MODEL 1
REMARK VINA RESULT:      -7.5      0.000      0.000
REMARK  9 active torsions:
REMARK  status: ('A' for Active; 'I' for Inactive)
REMARK    1  A    between atoms: C2_3  and  C19_23 
REMARK    2  A    between atoms: C3_4  and  C4_5 
REMARK    3  A    between atoms: C7_8  and  O1_9 
REMARK    4  A    between atoms: C8_10  and  O2_11 
REMARK    5  A    between atoms: O2_11  and  C9_12 
REMARK    6  A    between atoms: C9_12  and  C10_13 
REMARK    7  A    between atoms: C10_13  and  C11_14 
REMARK    8  A    between atoms: C11_14  and  C12_15 
REMARK    9  A    between atoms: C19_23  and  O3_24 
ROOT
HETATM    1  N1  UNL     1      28.905   0.972  54.739  1.00  0.00    -0.192 NA
HETATM    2  C1  UNL     1      28.557   0.091  54.034  1.00  0.00     0.097 C 
HETATM    3  C2  UNL     1      28.110  -0.999  53.182  1.00  0.00     0.046 C 
HETATM    4  C3  UNL     1      27.029  -0.914  52.383  1.00  0.00     0.032 C 
ENDROOT
BRANCH   3   5
HETATM    5  C19 UNL     1      29.024  -2.193  53.311  1.00  0.00     0.214 C 
BRANCH   5   6
HETATM    6  O3  UNL     1      28.423  -3.369  52.904  1.00  0.00    -0.396 OA
HETATM    7  H18 UNL     1      27.680  -3.223  52.246  1.00  0.00     0.209 HD
ENDBRANCH   5   6
ENDBRANCH   3   5
BRANCH   4   8
HETATM    8  C4  UNL     1      26.347   0.371  52.443  1.00  0.00    -0.032 A 
HETATM    9  C5  UNL     1      25.381   0.614  53.420  1.00  0.00     0.014 A 
HETATM   10  C6  UNL     1      24.676   1.820  53.488  1.00  0.00     0.040 A 
HETATM   11  C7  UNL     1      24.987   2.787  52.521  1.00  0.00     0.099 A 
HETATM   12  C8  UNL     1      25.958   2.543  51.540  1.00  0.00     0.102 A 
HETATM   13  C18 UNL     1      26.626   1.341  51.511  1.00  0.00     0.051 A 
BRANCH  11  14
HETATM   14  O1  UNL     1      24.220   3.961  52.678  1.00  0.00    -0.358 OA
HETATM   15  H4  UNL     1      23.411   4.123  52.059  1.00  0.00     0.217 HD
ENDBRANCH  11  14
BRANCH  12  16
HETATM   16  O2  UNL     1      26.040   3.652  50.744  1.00  0.00    -0.348 OA
BRANCH  16  17
HETATM   17  C9  UNL     1      25.676   3.816  49.412  1.00  0.00     0.176 C 
BRANCH  17  18
HETATM   18  C10 UNL     1      24.569   4.873  49.297  1.00  0.00     0.030 C 
BRANCH  18  19
HETATM   19  C11 UNL     1      23.327   4.216  48.738  1.00  0.00     0.031 C 
BRANCH  19  20
HETATM   20  C12 UNL     1      23.101   2.849  49.195  1.00  0.00     0.005 C 
HETATM   21  C13 UNL     1      22.375   2.499  50.233  1.00  0.00     0.053 C 
HETATM   22  C14 UNL     1      22.219   1.075  50.594  1.00  0.00     0.031 C 
HETATM   23  N2  UNL     1      21.747   3.547  50.998  1.00  0.00    -0.247 NA
HETATM   24  C15 UNL     1      21.460   0.857  51.673  1.00  0.00     0.005 C 
HETATM   25  C16 UNL     1      20.868   1.997  52.383  1.00  0.00     0.034 C 
HETATM   26  C17 UNL     1      20.852   3.212  51.859  1.00  0.00     0.086 C 
ENDBRANCH  19  20
ENDBRANCH  18  19
ENDBRANCH  17  18
ENDBRANCH  16  17
ENDBRANCH  12  16
ENDBRANCH   4   8
TORSDOF 9
ENDMDL
MODEL 2
REMARK VINA RESULT:      -7.4      3.503      5.816
REMARK  9 active torsions:
REMARK  status: ('A' for Active; 'I' for Inactive)
REMARK    1  A    between atoms: C2_3  and  C19_23 
REMARK    2  A    between atoms: C3_4  and  C4_5 
REMARK    3  A    between atoms: C7_8  and  O1_9 
REMARK    4  A    between atoms: C8_10  and  O2_11 
REMARK    5  A    between atoms: O2_11  and  C9_12 
REMARK    6  A    between atoms: C9_12  and  C10_13 
REMARK    7  A    between atoms: C10_13  and  C11_14 
REMARK    8  A    between atoms: C11_14  and  C12_15 
REMARK    9  A    between atoms: C19_23  and  O3_24 
ROOT
HETATM    1  N1  UNL     1      28.687   1.044  54.693  1.00  0.00    -0.192 NA
HETATM    2  C1  UNL     1      28.450   0.095  54.033  1.00  0.00     0.097 C 
HETATM    3  C2  UNL     1      28.141  -1.083  53.237  1.00  0.00     0.046 C 
HETATM    4  C3  UNL     1      27.045  -1.178  52.459  1.00  0.00     0.032 C 
ENDROOT
BRANCH   3   5
HETATM    5  C19 UNL     1      29.209  -2.136  53.395  1.00  0.00     0.214 C 
BRANCH   5   6
HETATM    6  O3  UNL     1      28.700  -3.420  53.355  1.00  0.00    -0.396 OA
HETATM    7  H18 UNL     1      27.708  -3.454  53.504  1.00  0.00     0.209 HD
ENDBRANCH   5   6
ENDBRANCH   3   5
BRANCH   4   8
HETATM    8  C4  UNL     1      26.197   0.005  52.480  1.00  0.00    -0.032 A 
HETATM    9  C5  UNL     1      25.069   0.052  53.302  1.00  0.00     0.014 A 
HETATM   10  C6  UNL     1      24.208   1.153  53.323  1.00  0.00     0.040 A 
HETATM   11  C7  UNL     1      24.531   2.222  52.475  1.00  0.00     0.099 A 
HETATM   12  C8  UNL     1      25.663   2.175  51.650  1.00  0.00     0.102 A 
HETATM   13  C18 UNL     1      26.482   1.070  51.662  1.00  0.00     0.051 A 
BRANCH  11  14
HETATM   14  O1  UNL     1      23.599   3.277  52.572  1.00  0.00    -0.358 OA
HETATM   15  H4  UNL     1      23.437   3.726  53.487  1.00  0.00     0.217 HD
ENDBRANCH  11  14
BRANCH  12  16
HETATM   16  O2  UNL     1      25.717   3.344  50.942  1.00  0.00    -0.348 OA
BRANCH  16  17
HETATM   17  C9  UNL     1      25.826   3.544  49.571  1.00  0.00     0.176 C 
BRANCH  17  18
HETATM   18  C10 UNL     1      26.378   4.949  49.288  1.00  0.00     0.030 C 
BRANCH  18  19
HETATM   19  C11 UNL     1      27.701   4.815  48.570  1.00  0.00     0.031 C 
BRANCH  19  20
HETATM   20  C12 UNL     1      28.366   6.080  48.272  1.00  0.00     0.005 C 
HETATM   21  C13 UNL     1      29.656   6.238  48.078  1.00  0.00     0.053 C 
HETATM   22  C14 UNL     1      30.212   7.574  47.780  1.00  0.00     0.031 C 
HETATM   23  N2  UNL     1      30.499   5.073  48.171  1.00  0.00    -0.247 NA
HETATM   24  C15 UNL     1      31.537   7.598  47.611  1.00  0.00     0.005 C 
HETATM   25  C16 UNL     1      32.304   6.352  47.728  1.00  0.00     0.034 C 
HETATM   26  C17 UNL     1      31.711   5.169  47.753  1.00  0.00     0.086 C 
ENDBRANCH  19  20
ENDBRANCH  18  19
ENDBRANCH  17  18
ENDBRANCH  16  17
ENDBRANCH  12  16
ENDBRANCH   4   8
TORSDOF 9
ENDMDL
MODEL 3
REMARK VINA RESULT:      -7.3      1.297      3.228
REMARK  9 active torsions:
REMARK  status: ('A' for Active; 'I' for Inactive)
REMARK    1  A    between atoms: C2_3  and  C19_23 
REMARK    2  A    between atoms: C3_4  and  C4_5 
REMARK    3  A    between atoms: C7_8  and  O1_9 
REMARK    4  A    between atoms: C8_10  and  O2_11 
REMARK    5  A    between atoms: O2_11  and  C9_12 
REMARK    6  A    between atoms: C9_12  and  C10_13 
REMARK    7  A    between atoms: C10_13  and  C11_14 
REMARK    8  A    between atoms: C11_14  and  C12_15 
REMARK    9  A    between atoms: C19_23  and  O3_24 
ROOT
HETATM    1  N1  UNL     1      28.365   0.685  55.043  1.00  0.00    -0.192 NA
HETATM    2  C1  UNL     1      28.250  -0.148  54.215  1.00  0.00     0.097 C 
HETATM    3  C2  UNL     1      28.091  -1.185  53.207  1.00  0.00     0.046 C 
HETATM    4  C3  UNL     1      27.087  -1.191  52.309  1.00  0.00     0.032 C 
ENDROOT
BRANCH   3   5
HETATM    5  C19 UNL     1      29.196  -2.207  53.306  1.00  0.00     0.214 C 
BRANCH   5   6
HETATM    6  O3  UNL     1      28.718  -3.500  53.400  1.00  0.00    -0.396 OA
HETATM    7  H18 UNL     1      27.718  -3.555  53.334  1.00  0.00     0.209 HD
ENDBRANCH   5   6
ENDBRANCH   3   5
BRANCH   4   8
HETATM    8  C4  UNL     1      26.174  -0.063  52.431  1.00  0.00    -0.032 A 
HETATM    9  C5  UNL     1      26.540   1.198  51.957  1.00  0.00     0.014 A 
HETATM   10  C6  UNL     1      25.708   2.314  52.089  1.00  0.00     0.040 A 
HETATM   11  C7  UNL     1      24.475   2.109  52.725  1.00  0.00     0.099 A 
HETATM   12  C8  UNL     1      24.107   0.843  53.201  1.00  0.00     0.102 A 
HETATM   13  C18 UNL     1      24.958  -0.227  53.049  1.00  0.00     0.051 A 
BRANCH  11  14
HETATM   14  O1  UNL     1      23.717   3.296  52.808  1.00  0.00    -0.358 OA
HETATM   15  H4  UNL     1      22.695   3.236  52.935  1.00  0.00     0.217 HD
ENDBRANCH  11  14
BRANCH  12  16
HETATM   16  O2  UNL     1      22.868   0.951  53.769  1.00  0.00    -0.348 OA
BRANCH  16  17
HETATM   17  C9  UNL     1      21.918  -0.034  54.015  1.00  0.00     0.176 C 
BRANCH  17  18
HETATM   18  C10 UNL     1      20.534   0.446  53.555  1.00  0.00     0.030 C 
BRANCH  18  19
HETATM   19  C11 UNL     1      20.716   1.510  52.496  1.00  0.00     0.031 C 
BRANCH  19  20
HETATM   20  C12 UNL     1      20.864   0.999  51.136  1.00  0.00     0.005 C 
HETATM   21  C13 UNL     1      21.443   1.633  50.141  1.00  0.00     0.053 C 
HETATM   22  C14 UNL     1      21.533   1.007  48.805  1.00  0.00     0.031 C 
HETATM   23  N2  UNL     1      21.975   2.947  50.398  1.00  0.00    -0.247 NA
HETATM   24  C15 UNL     1      22.139   1.760  47.881  1.00  0.00     0.005 C 
HETATM   25  C16 UNL     1      22.645   3.088  48.248  1.00  0.00     0.034 C 
HETATM   26  C17 UNL     1      22.745   3.471  49.510  1.00  0.00     0.086 C 
ENDBRANCH  19  20
ENDBRANCH  18  19
ENDBRANCH  17  18
ENDBRANCH  16  17
ENDBRANCH  12  16
ENDBRANCH   4   8
TORSDOF 9
ENDMDL
MODEL 4
REMARK VINA RESULT:      -6.9      2.686      4.508
REMARK  9 active torsions:
REMARK  status: ('A' for Active; 'I' for Inactive)
REMARK    1  A    between atoms: C2_3  and  C19_23 
REMARK    2  A    between atoms: C3_4  and  C4_5 
REMARK    3  A    between atoms: C7_8  and  O1_9 
REMARK    4  A    between atoms: C8_10  and  O2_11 
REMARK    5  A    between atoms: O2_11  and  C9_12 
REMARK    6  A    between atoms: C9_12  and  C10_13 
REMARK    7  A    between atoms: C10_13  and  C11_14 
REMARK    8  A    between atoms: C11_14  and  C12_15 
REMARK    9  A    between atoms: C19_23  and  O3_24 
ROOT
HETATM    1  N1  UNL     1      24.899   2.963  53.799  1.00  0.00    -0.192 NA
HETATM    2  C1  UNL     1      25.697   2.097  53.710  1.00  0.00     0.097 C 
HETATM    3  C2  UNL     1      26.680   1.028  53.627  1.00  0.00     0.046 C 
HETATM    4  C3  UNL     1      26.369  -0.272  53.787  1.00  0.00     0.032 C 
ENDROOT
BRANCH   3   5
HETATM    5  C19 UNL     1      28.051   1.580  53.322  1.00  0.00     0.214 C 
BRANCH   5   6
HETATM    6  O3  UNL     1      28.253   2.832  53.871  1.00  0.00    -0.396 OA
HETATM    7  H18 UNL     1      28.596   2.797  54.813  1.00  0.00     0.209 HD
ENDBRANCH   5   6
ENDBRANCH   3   5
BRANCH   4   8
HETATM    8  C4  UNL     1      24.958  -0.518  54.049  1.00  0.00    -0.032 A 
HETATM    9  C5  UNL     1      24.549  -1.070  55.263  1.00  0.00     0.014 A 
HETATM   10  C6  UNL     1      23.209  -1.356  55.539  1.00  0.00     0.040 A 
HETATM   11  C7  UNL     1      22.281  -1.059  54.530  1.00  0.00     0.099 A 
HETATM   12  C8  UNL     1      22.691  -0.503  53.311  1.00  0.00     0.102 A 
HETATM   13  C18 UNL     1      24.021  -0.238  53.083  1.00  0.00     0.051 A 
BRANCH  11  14
HETATM   14  O1  UNL     1      20.962  -1.387  54.909  1.00  0.00    -0.358 OA
HETATM   15  H4  UNL     1      20.799  -1.881  55.800  1.00  0.00     0.217 HD
ENDBRANCH  11  14
BRANCH  12  16
HETATM   16  O2  UNL     1      21.580  -0.328  52.533  1.00  0.00    -0.348 OA
BRANCH  16  17
HETATM   17  C9  UNL     1      21.464   0.240  51.269  1.00  0.00     0.176 C 
BRANCH  17  18
HETATM   18  C10 UNL     1      21.493   1.771  51.377  1.00  0.00     0.030 C 
BRANCH  18  19
HETATM   19  C11 UNL     1      22.264   2.325  50.200  1.00  0.00     0.031 C 
BRANCH  19  20
HETATM   20  C12 UNL     1      23.715   2.293  50.351  1.00  0.00     0.005 C 
HETATM   21  C13 UNL     1      24.548   3.217  49.927  1.00  0.00     0.053 C 
HETATM   22  C14 UNL     1      26.003   3.072  50.143  1.00  0.00     0.031 C 
HETATM   23  N2  UNL     1      23.995   4.361  49.248  1.00  0.00    -0.247 NA
HETATM   24  C15 UNL     1      26.738   4.077  49.658  1.00  0.00     0.005 C 
HETATM   25  C16 UNL     1      26.074   5.197  48.980  1.00  0.00     0.034 C 
HETATM   26  C17 UNL     1      24.764   5.372  49.045  1.00  0.00     0.086 C 
ENDBRANCH  19  20
ENDBRANCH  18  19
ENDBRANCH  17  18
ENDBRANCH  16  17
ENDBRANCH  12  16
ENDBRANCH   4   8
TORSDOF 9
ENDMDL
MODEL 5
REMARK VINA RESULT:      -6.8      2.514      4.228
REMARK  9 active torsions:
REMARK  status: ('A' for Active; 'I' for Inactive)
REMARK    1  A    between atoms: C2_3  and  C19_23 
REMARK    2  A    between atoms: C3_4  and  C4_5 
REMARK    3  A    between atoms: C7_8  and  O1_9 
REMARK    4  A    between atoms: C8_10  and  O2_11 
REMARK    5  A    between atoms: O2_11  and  C9_12 
REMARK    6  A    between atoms: C9_12  and  C10_13 
REMARK    7  A    between atoms: C10_13  and  C11_14 
REMARK    8  A    between atoms: C11_14  and  C12_15 
REMARK    9  A    between atoms: C19_23  and  O3_24 
ROOT
HETATM    1  N1  UNL     1      26.976  -2.336  52.135  1.00  0.00    -0.192 NA
HETATM    2  C1  UNL     1      27.312  -1.477  52.872  1.00  0.00     0.097 C 
HETATM    3  C2  UNL     1      27.723  -0.402  53.762  1.00  0.00     0.046 C 
HETATM    4  C3  UNL     1      26.853   0.451  54.336  1.00  0.00     0.032 C 
ENDROOT
BRANCH   3   5
HETATM    5  C19 UNL     1      29.219  -0.403  53.952  1.00  0.00     0.214 C 
BRANCH   5   6
HETATM    6  O3  UNL     1      29.854  -1.347  53.168  1.00  0.00    -0.396 OA
HETATM    7  H18 UNL     1      29.680  -1.226  52.187  1.00  0.00     0.209 HD
ENDBRANCH   5   6
ENDBRANCH   3   5
BRANCH   4   8
HETATM    8  C4  UNL     1      25.461   0.201  53.991  1.00  0.00    -0.032 A 
HETATM    9  C5  UNL     1      24.688  -0.671  54.759  1.00  0.00     0.014 A 
HETATM   10  C6  UNL     1      23.359  -0.967  54.440  1.00  0.00     0.040 A 
HETATM   11  C7  UNL     1      22.829  -0.341  53.302  1.00  0.00     0.099 A 
HETATM   12  C8  UNL     1      23.605   0.536  52.532  1.00  0.00     0.102 A 
HETATM   13  C18 UNL     1      24.909   0.797  52.883  1.00  0.00     0.051 A 
BRANCH  11  14
HETATM   14  O1  UNL     1      21.487  -0.709  53.070  1.00  0.00    -0.358 OA
HETATM   15  H4  UNL     1      20.783   0.026  52.902  1.00  0.00     0.217 HD
ENDBRANCH  11  14
BRANCH  12  16
HETATM   16  O2  UNL     1      22.831   0.984  51.497  1.00  0.00    -0.348 OA
BRANCH  16  17
HETATM   17  C9  UNL     1      22.889   2.188  50.806  1.00  0.00     0.176 C 
BRANCH  17  18
HETATM   18  C10 UNL     1      22.656   3.360  51.770  1.00  0.00     0.030 C 
BRANCH  18  19
HETATM   19  C11 UNL     1      23.750   4.382  51.566  1.00  0.00     0.031 C 
BRANCH  19  20
HETATM   20  C12 UNL     1      24.919   3.890  50.843  1.00  0.00     0.005 C 
HETATM   21  C13 UNL     1      25.699   4.611  50.070  1.00  0.00     0.053 C 
HETATM   22  C14 UNL     1      26.859   3.995  49.391  1.00  0.00     0.031 C 
HETATM   23  N2  UNL     1      25.381   6.006  49.907  1.00  0.00    -0.247 NA
HETATM   24  C15 UNL     1      27.565   4.836  48.630  1.00  0.00     0.005 C 
HETATM   25  C16 UNL     1      27.154   6.242  48.531  1.00  0.00     0.034 C 
HETATM   26  C17 UNL     1      26.260   6.765  49.354  1.00  0.00     0.086 C 
ENDBRANCH  19  20
ENDBRANCH  18  19
ENDBRANCH  17  18
ENDBRANCH  16  17
ENDBRANCH  12  16
ENDBRANCH   4   8
TORSDOF 9
ENDMDL
MODEL 6
REMARK VINA RESULT:      -6.7      2.097      3.265
REMARK  9 active torsions:
REMARK  status: ('A' for Active; 'I' for Inactive)
REMARK    1  A    between atoms: C2_3  and  C19_23 
REMARK    2  A    between atoms: C3_4  and  C4_5 
REMARK    3  A    between atoms: C7_8  and  O1_9 
REMARK    4  A    between atoms: C8_10  and  O2_11 
REMARK    5  A    between atoms: O2_11  and  C9_12 
REMARK    6  A    between atoms: C9_12  and  C10_13 
REMARK    7  A    between atoms: C10_13  and  C11_14 
REMARK    8  A    between atoms: C11_14  and  C12_15 
REMARK    9  A    between atoms: C19_23  and  O3_24 
ROOT
HETATM    1  N1  UNL     1      28.553   0.856  54.872  1.00  0.00    -0.192 NA
HETATM    2  C1  UNL     1      28.360  -0.025  54.111  1.00  0.00     0.097 C 
HETATM    3  C2  UNL     1      28.104  -1.119  53.187  1.00  0.00     0.046 C 
HETATM    4  C3  UNL     1      27.101  -1.102  52.287  1.00  0.00     0.032 C 
ENDROOT
BRANCH   3   5
HETATM    5  C19 UNL     1      29.111  -2.227  53.371  1.00  0.00     0.214 C 
BRANCH   5   6
HETATM    6  O3  UNL     1      28.530  -3.481  53.348  1.00  0.00    -0.396 OA
HETATM    7  H18 UNL     1      28.994  -4.118  52.727  1.00  0.00     0.209 HD
ENDBRANCH   5   6
ENDBRANCH   3   5
BRANCH   4   8
HETATM    8  C4  UNL     1      26.297   0.111  52.316  1.00  0.00    -0.032 A 
HETATM    9  C5  UNL     1      25.139   0.173  53.093  1.00  0.00     0.014 A 
HETATM   10  C6  UNL     1      24.319   1.306  53.118  1.00  0.00     0.040 A 
HETATM   11  C7  UNL     1      24.716   2.389  52.321  1.00  0.00     0.099 A 
HETATM   12  C8  UNL     1      25.879   2.327  51.542  1.00  0.00     0.102 A 
HETATM   13  C18 UNL     1      26.656   1.192  51.547  1.00  0.00     0.051 A 
BRANCH  11  14
HETATM   14  O1  UNL     1      23.821   3.476  52.419  1.00  0.00    -0.358 OA
HETATM   15  H4  UNL     1      22.848   3.360  52.096  1.00  0.00     0.217 HD
ENDBRANCH  11  14
BRANCH  12  16
HETATM   16  O2  UNL     1      26.005   3.516  50.878  1.00  0.00    -0.348 OA
BRANCH  16  17
HETATM   17  C9  UNL     1      26.637   3.793  49.671  1.00  0.00     0.176 C 
BRANCH  17  18
HETATM   18  C10 UNL     1      26.071   5.087  49.068  1.00  0.00     0.030 C 
BRANCH  18  19
HETATM   19  C11 UNL     1      25.319   5.836  50.145  1.00  0.00     0.031 C 
BRANCH  19  20
HETATM   20  C12 UNL     1      24.735   7.102  49.714  1.00  0.00     0.005 C 
HETATM   21  C13 UNL     1      23.455   7.400  49.736  1.00  0.00     0.053 C 
HETATM   22  C14 UNL     1      22.984   8.722  49.274  1.00  0.00     0.031 C 
HETATM   23  N2  UNL     1      22.539   6.397  50.218  1.00  0.00    -0.247 NA
HETATM   24  C15 UNL     1      21.660   8.893  49.343  1.00  0.00     0.005 C 
HETATM   25  C16 UNL     1      20.815   7.805  49.850  1.00  0.00     0.034 C 
HETATM   26  C17 UNL     1      21.329   6.755  50.468  1.00  0.00     0.086 C 
ENDBRANCH  19  20
ENDBRANCH  18  19
ENDBRANCH  17  18
ENDBRANCH  16  17
ENDBRANCH  12  16
ENDBRANCH   4   8
TORSDOF 9
ENDMDL
MODEL 7
REMARK VINA RESULT:      -6.6      2.581      5.768
REMARK  9 active torsions:
REMARK  status: ('A' for Active; 'I' for Inactive)
REMARK    1  A    between atoms: C2_3  and  C19_23 
REMARK    2  A    between atoms: C3_4  and  C4_5 
REMARK    3  A    between atoms: C7_8  and  O1_9 
REMARK    4  A    between atoms: C8_10  and  O2_11 
REMARK    5  A    between atoms: O2_11  and  C9_12 
REMARK    6  A    between atoms: C9_12  and  C10_13 
REMARK    7  A    between atoms: C10_13  and  C11_14 
REMARK    8  A    between atoms: C11_14  and  C12_15 
REMARK    9  A    between atoms: C19_23  and  O3_24 
ROOT
HETATM    1  N1  UNL     1      19.837   2.987  52.666  1.00  0.00    -0.192 NA
HETATM    2  C1  UNL     1      20.465   2.000  52.820  1.00  0.00     0.097 C 
HETATM    3  C2  UNL     1      21.223   0.770  52.996  1.00  0.00     0.046 C 
HETATM    4  C3  UNL     1      22.058   0.281  52.059  1.00  0.00     0.032 C 
ENDROOT
BRANCH   3   5
HETATM    5  C19 UNL     1      20.954   0.161  54.349  1.00  0.00     0.214 C 
BRANCH   5   6
HETATM    6  O3  UNL     1      19.806  -0.608  54.367  1.00  0.00    -0.396 OA
HETATM    7  H18 UNL     1      19.984  -1.585  54.221  1.00  0.00     0.209 HD
ENDBRANCH   5   6
ENDBRANCH   3   5
BRANCH   4   8
HETATM    8  C4  UNL     1      22.141   1.093  50.854  1.00  0.00    -0.032 A 
HETATM    9  C5  UNL     1      21.419   0.741  49.713  1.00  0.00     0.014 A 
HETATM   10  C6  UNL     1      21.501   1.473  48.524  1.00  0.00     0.040 A 
HETATM   11  C7  UNL     1      22.349   2.590  48.529  1.00  0.00     0.099 A 
HETATM   12  C8  UNL     1      23.073   2.944  49.675  1.00  0.00     0.102 A 
HETATM   13  C18 UNL     1      22.962   2.194  50.823  1.00  0.00     0.051 A 
BRANCH  11  14
HETATM   14  O1  UNL     1      22.359   3.254  47.284  1.00  0.00    -0.358 OA
HETATM   15  H4  UNL     1      21.796   4.110  47.162  1.00  0.00     0.217 HD
ENDBRANCH  11  14
BRANCH  12  16
HETATM   16  O2  UNL     1      23.806   4.061  49.381  1.00  0.00    -0.348 OA
BRANCH  16  17
HETATM   17  C9  UNL     1      24.904   4.598  50.043  1.00  0.00     0.176 C 
BRANCH  17  18
HETATM   18  C10 UNL     1      26.204   4.099  49.396  1.00  0.00     0.030 C 
BRANCH  18  19
HETATM   19  C11 UNL     1      26.610   2.804  50.061  1.00  0.00     0.031 C 
BRANCH  19  20
HETATM   20  C12 UNL     1      26.401   2.766  51.505  1.00  0.00     0.005 C 
HETATM   21  C13 UNL     1      26.352   1.679  52.242  1.00  0.00     0.053 C 
HETATM   22  C14 UNL     1      26.136   1.771  53.701  1.00  0.00     0.031 C 
HETATM   23  N2  UNL     1      26.511   0.410  51.580  1.00  0.00    -0.247 NA
HETATM   24  C15 UNL     1      26.101   0.593  54.332  1.00  0.00     0.005 C 
HETATM   25  C16 UNL     1      26.273  -0.644  53.561  1.00  0.00     0.034 C 
HETATM   26  C17 UNL     1      26.703  -0.632  52.310  1.00  0.00     0.086 C 
ENDBRANCH  19  20
ENDBRANCH  18  19
ENDBRANCH  17  18
ENDBRANCH  16  17
ENDBRANCH  12  16
ENDBRANCH   4   8
TORSDOF 9
ENDMDL
MODEL 8
REMARK VINA RESULT:      -6.5      2.867      6.434
REMARK  9 active torsions:
REMARK  status: ('A' for Active; 'I' for Inactive)
REMARK    1  A    between atoms: C2_3  and  C19_23 
REMARK    2  A    between atoms: C3_4  and  C4_5 
REMARK    3  A    between atoms: C7_8  and  O1_9 
REMARK    4  A    between atoms: C8_10  and  O2_11 
REMARK    5  A    between atoms: O2_11  and  C9_12 
REMARK    6  A    between atoms: C9_12  and  C10_13 
REMARK    7  A    between atoms: C10_13  and  C11_14 
REMARK    8  A    between atoms: C11_14  and  C12_15 
REMARK    9  A    between atoms: C19_23  and  O3_24 
ROOT
HETATM    1  N1  UNL     1      20.319   3.058  53.003  1.00  0.00    -0.192 NA
HETATM    2  C1  UNL     1      20.418   2.470  51.984  1.00  0.00     0.097 C 
HETATM    3  C2  UNL     1      20.565   1.752  50.728  1.00  0.00     0.046 C 
HETATM    4  C3  UNL     1      21.075   0.507  50.647  1.00  0.00     0.032 C 
ENDROOT
BRANCH   3   5
HETATM    5  C19 UNL     1      20.058   2.578  49.572  1.00  0.00     0.214 C 
BRANCH   5   6
HETATM    6  O3  UNL     1      19.998   1.860  48.392  1.00  0.00    -0.396 OA
HETATM    7  H18 UNL     1      19.474   2.326  47.675  1.00  0.00     0.209 HD
ENDBRANCH   5   6
ENDBRANCH   3   5
BRANCH   4   8
HETATM    8  C4  UNL     1      21.463  -0.060  51.931  1.00  0.00    -0.032 A 
HETATM    9  C5  UNL     1      20.494  -0.539  52.814  1.00  0.00     0.014 A 
HETATM   10  C6  UNL     1      20.822  -1.056  54.071  1.00  0.00     0.040 A 
HETATM   11  C7  UNL     1      22.183  -1.074  54.409  1.00  0.00     0.099 A 
HETATM   12  C8  UNL     1      23.156  -0.594  53.522  1.00  0.00     0.102 A 
HETATM   13  C18 UNL     1      22.787  -0.094  52.295  1.00  0.00     0.051 A 
BRANCH  11  14
HETATM   14  O1  UNL     1      22.404  -1.612  55.695  1.00  0.00    -0.358 OA
HETATM   15  H4  UNL     1      23.265  -2.150  55.878  1.00  0.00     0.217 HD
ENDBRANCH  11  14
BRANCH  12  16
HETATM   16  O2  UNL     1      24.378  -0.736  54.120  1.00  0.00    -0.348 OA
BRANCH  16  17
HETATM   17  C9  UNL     1      25.643  -0.426  53.634  1.00  0.00     0.176 C 
BRANCH  17  18
HETATM   18  C10 UNL     1      26.309   0.623  54.536  1.00  0.00     0.030 C 
BRANCH  18  19
HETATM   19  C11 UNL     1      26.488   1.899  53.745  1.00  0.00     0.031 C 
BRANCH  19  20
HETATM   20  C12 UNL     1      25.294   2.352  53.037  1.00  0.00     0.005 C 
HETATM   21  C13 UNL     1      25.266   2.825  51.812  1.00  0.00     0.053 C 
HETATM   22  C14 UNL     1      23.990   3.250  51.200  1.00  0.00     0.031 C 
HETATM   23  N2  UNL     1      26.514   2.918  51.098  1.00  0.00    -0.247 NA
HETATM   24  C15 UNL     1      24.102   3.718  49.953  1.00  0.00     0.005 C 
HETATM   25  C16 UNL     1      25.423   3.771  49.316  1.00  0.00     0.034 C 
HETATM   26  C17 UNL     1      26.470   3.150  49.833  1.00  0.00     0.086 C 
ENDBRANCH  19  20
ENDBRANCH  18  19
ENDBRANCH  17  18
ENDBRANCH  16  17
ENDBRANCH  12  16
ENDBRANCH   4   8
TORSDOF 9
ENDMDL
MODEL 9
REMARK VINA RESULT:      -6.5      1.762      3.419
REMARK  9 active torsions:
REMARK  status: ('A' for Active; 'I' for Inactive)
REMARK    1  A    between atoms: C2_3  and  C19_23 
REMARK    2  A    between atoms: C3_4  and  C4_5 
REMARK    3  A    between atoms: C7_8  and  O1_9 
REMARK    4  A    between atoms: C8_10  and  O2_11 
REMARK    5  A    between atoms: O2_11  and  C9_12 
REMARK    6  A    between atoms: C9_12  and  C10_13 
REMARK    7  A    between atoms: C10_13  and  C11_14 
REMARK    8  A    between atoms: C11_14  and  C12_15 
REMARK    9  A    between atoms: C19_23  and  O3_24 
ROOT
HETATM    1  N1  UNL     1      28.479   1.046  54.716  1.00  0.00    -0.192 NA
HETATM    2  C1  UNL     1      28.319   0.111  54.013  1.00  0.00     0.097 C 
HETATM    3  C2  UNL     1      28.104  -1.048  53.162  1.00  0.00     0.046 C 
HETATM    4  C3  UNL     1      27.102  -1.127  52.265  1.00  0.00     0.032 C 
ENDROOT
BRANCH   3   5
HETATM    5  C19 UNL     1      29.151  -2.105  53.415  1.00  0.00     0.214 C 
BRANCH   5   6
HETATM    6  O3  UNL     1      28.631  -3.385  53.390  1.00  0.00    -0.396 OA
HETATM    7  H18 UNL     1      27.656  -3.409  53.155  1.00  0.00     0.209 HD
ENDBRANCH   5   6
ENDBRANCH   3   5
BRANCH   4   8
HETATM    8  C4  UNL     1      26.254   0.055  52.217  1.00  0.00    -0.032 A 
HETATM    9  C5  UNL     1      26.714   1.232  51.626  1.00  0.00     0.014 A 
HETATM   10  C6  UNL     1      25.945   2.400  51.593  1.00  0.00     0.040 A 
HETATM   11  C7  UNL     1      24.675   2.335  52.185  1.00  0.00     0.099 A 
HETATM   12  C8  UNL     1      24.213   1.152  52.779  1.00  0.00     0.102 A 
HETATM   13  C18 UNL     1      25.004   0.028  52.788  1.00  0.00     0.051 A 
BRANCH  11  14
HETATM   14  O1  UNL     1      23.986   3.563  52.099  1.00  0.00    -0.358 OA
HETATM   15  H4  UNL     1      22.957   3.573  52.181  1.00  0.00     0.217 HD
ENDBRANCH  11  14
BRANCH  12  16
HETATM   16  O2  UNL     1      22.959   1.390  53.270  1.00  0.00    -0.348 OA
BRANCH  16  17
HETATM   17  C9  UNL     1      21.880   0.523  53.400  1.00  0.00     0.176 C 
BRANCH  17  18
HETATM   18  C10 UNL     1      20.577   1.248  53.036  1.00  0.00     0.030 C 
BRANCH  18  19
HETATM   19  C11 UNL     1      20.895   2.694  52.731  1.00  0.00     0.031 C 
BRANCH  19  20
HETATM   20  C12 UNL     1      20.078   3.291  51.679  1.00  0.00     0.005 C 
HETATM   21  C13 UNL     1      20.300   4.452  51.104  1.00  0.00     0.053 C 
HETATM   22  C14 UNL     1      19.398   4.950  50.044  1.00  0.00     0.031 C 
HETATM   23  N2  UNL     1      21.441   5.213  51.545  1.00  0.00    -0.247 NA
HETATM   24  C15 UNL     1      19.733   6.145  49.548  1.00  0.00     0.005 C 
HETATM   25  C16 UNL     1      20.917   6.838  50.069  1.00  0.00     0.034 C 
HETATM   26  C17 UNL     1      21.804   6.224  50.835  1.00  0.00     0.086 C 
ENDBRANCH  19  20
ENDBRANCH  18  19
ENDBRANCH  17  18
ENDBRANCH  16  17
ENDBRANCH  12  16
ENDBRANCH   4   8
TORSDOF 9
ENDMDL
