MODEL 1
REMARK VINA RESULT:      -8.5      0.000      0.000
REMARK  1 active torsions:
REMARK  status: ('A' for Active; 'I' for Inactive)
REMARK    1  A    between atoms: C2_2  and  C3_3 
ROOT
HETATM    1  C3  UNL     1      28.074   0.524  53.941  1.00  0.00     0.051 C 
HETATM    2  C4  UNL     1      27.103   0.114  54.989  1.00  0.00     0.091 C 
HETATM    3  C5  UNL     1      25.712  -0.247  54.489  1.00  0.00     0.149 C 
HETATM    4  O1  UNL     1      25.031  -1.131  54.925  1.00  0.00    -0.296 OA
HETATM    5  C6  UNL     1      25.355   0.659  53.400  1.00  0.00     0.158 C 
HETATM    6  C7  UNL     1      26.576   0.444  52.519  1.00  0.00     0.036 C 
HETATM    7  C8  UNL     1      27.580   1.310  52.798  1.00  0.00     0.081 C 
HETATM    8  O2  UNL     1      27.504   2.372  51.840  1.00  0.00    -0.218 OA
HETATM    9  N1  UNL     1      26.386   2.618  51.155  1.00  0.00    -0.144 NA
HETATM   10  C9  UNL     1      25.569   3.430  50.819  1.00  0.00     0.133 C 
HETATM   11  C10 UNL     1      24.475   2.940  49.962  1.00  0.00     0.091 A 
HETATM   12  C11 UNL     1      23.909   3.960  49.049  1.00  0.00     0.005 A 
HETATM   13  C12 UNL     1      22.672   4.379  48.843  1.00  0.00     0.084 A 
HETATM   14  N2  UNL     1      21.715   3.716  49.661  1.00  0.00    -0.375 N 
HETATM   15  C13 UNL     1      22.028   2.721  50.596  1.00  0.00     0.100 A 
HETATM   16  C14 UNL     1      23.299   2.382  50.716  1.00  0.00     0.021 A 
HETATM   17  C15 UNL     1      23.448   1.337  51.758  1.00  0.00     0.162 A 
HETATM   18  O3  UNL     1      22.590   0.469  52.092  1.00  0.00    -0.286 OA
HETATM   19  N3  UNL     1      24.122   0.617  52.785  1.00  0.00    -0.245 NA
HETATM   20  H15 UNL     1      20.723   4.041  49.507  1.00  0.00     0.164 HD
HETATM   21  H17 UNL     1      24.540   1.400  52.278  1.00  0.00     0.225 HD
ENDROOT
BRANCH   1  22
HETATM   22  C2  UNL     1      28.761  -0.725  53.417  1.00  0.00     0.007 C 
HETATM   23  C1  UNL     1      30.256  -0.477  53.529  1.00  0.00     0.006 C 
ENDBRANCH   1  22
TORSDOF 1
ENDMDL
MODEL 2
REMARK VINA RESULT:      -8.3      2.292      5.939
REMARK  1 active torsions:
REMARK  status: ('A' for Active; 'I' for Inactive)
REMARK    1  A    between atoms: C2_2  and  C3_3 
ROOT
HETATM    1  C3  UNL     1      21.443   1.328  51.709  1.00  0.00     0.051 C 
HETATM    2  C4  UNL     1      21.252  -0.132  51.914  1.00  0.00     0.091 C 
HETATM    3  C5  UNL     1      22.034  -0.740  53.070  1.00  0.00     0.149 C 
HETATM    4  O1  UNL     1      21.628  -1.598  53.800  1.00  0.00    -0.296 OA
HETATM    5  C6  UNL     1      23.348  -0.104  53.133  1.00  0.00     0.158 C 
HETATM    6  C7  UNL     1      22.894   1.346  53.181  1.00  0.00     0.036 C 
HETATM    7  C8  UNL     1      22.779   1.900  51.950  1.00  0.00     0.081 C 
HETATM    8  O2  UNL     1      23.977   2.643  51.704  1.00  0.00    -0.218 OA
HETATM    9  N1  UNL     1      25.099   2.409  52.388  1.00  0.00    -0.144 NA
HETATM   10  C9  UNL     1      26.275   2.174  52.345  1.00  0.00     0.133 C 
HETATM   11  C10 UNL     1      26.959   2.016  53.641  1.00  0.00     0.091 A 
HETATM   12  C11 UNL     1      28.392   2.392  53.626  1.00  0.00     0.005 A 
HETATM   13  C12 UNL     1      29.484   1.743  53.994  1.00  0.00     0.084 A 
HETATM   14  N2  UNL     1      29.215   0.438  54.494  1.00  0.00    -0.375 N 
HETATM   15  C13 UNL     1      27.935  -0.122  54.595  1.00  0.00     0.100 A 
HETATM   16  C14 UNL     1      26.916   0.620  54.198  1.00  0.00     0.021 A 
HETATM   17  C15 UNL     1      25.650  -0.134  54.355  1.00  0.00     0.162 A 
HETATM   18  O3  UNL     1      25.403  -1.036  55.207  1.00  0.00    -0.286 OA
HETATM   19  N3  UNL     1      24.307  -0.493  54.043  1.00  0.00    -0.245 NA
HETATM   20  H15 UNL     1      30.078  -0.091  54.791  1.00  0.00     0.164 HD
HETATM   21  H17 UNL     1      24.828   0.231  53.542  1.00  0.00     0.225 HD
ENDROOT
BRANCH   1  22
HETATM   22  C2  UNL     1      20.432   2.064  52.571  1.00  0.00     0.007 C 
HETATM   23  C1  UNL     1      20.201   3.413  51.911  1.00  0.00     0.006 C 
ENDBRANCH   1  22
TORSDOF 1
ENDMDL
MODEL 3
REMARK VINA RESULT:      -8.0      2.098      6.361
REMARK  1 active torsions:
REMARK  status: ('A' for Active; 'I' for Inactive)
REMARK    1  A    between atoms: C2_2  and  C3_3 
ROOT
HETATM    1  C3  UNL     1      21.137   0.771  52.798  1.00  0.00     0.051 C 
HETATM    2  C4  UNL     1      21.093   2.254  52.703  1.00  0.00     0.091 C 
HETATM    3  C5  UNL     1      22.301   2.906  52.045  1.00  0.00     0.149 C 
HETATM    4  O1  UNL     1      22.260   3.856  51.317  1.00  0.00    -0.296 OA
HETATM    5  C6  UNL     1      23.503   2.181  52.449  1.00  0.00     0.158 C 
HETATM    6  C7  UNL     1      23.066   0.780  52.053  1.00  0.00     0.036 C 
HETATM    7  C8  UNL     1      22.435   0.125  53.058  1.00  0.00     0.081 C 
HETATM    8  O2  UNL     1      23.401  -0.726  53.682  1.00  0.00    -0.218 OA
HETATM    9  N1  UNL     1      24.712  -0.516  53.547  1.00  0.00    -0.144 NA
HETATM   10  C9  UNL     1      25.771  -0.376  54.092  1.00  0.00     0.133 C 
HETATM   11  C10 UNL     1      26.934  -0.151  53.215  1.00  0.00     0.091 A 
HETATM   12  C11 UNL     1      28.221  -0.634  53.768  1.00  0.00     0.005 A 
HETATM   13  C12 UNL     1      29.386  -0.038  53.955  1.00  0.00     0.084 A 
HETATM   14  N2  UNL     1      29.389   1.325  53.543  1.00  0.00    -0.375 N 
HETATM   15  C13 UNL     1      28.283   1.986  52.995  1.00  0.00     0.100 A 
HETATM   16  C14 UNL     1      27.169   1.291  52.854  1.00  0.00     0.021 A 
HETATM   17  C15 UNL     1      26.104   2.149  52.283  1.00  0.00     0.162 A 
HETATM   18  O3  UNL     1      26.259   3.143  51.515  1.00  0.00    -0.286 OA
HETATM   19  N3  UNL     1      24.764   2.578  52.061  1.00  0.00    -0.245 NA
HETATM   20  H15 UNL     1      30.313   1.812  53.687  1.00  0.00     0.164 HD
HETATM   21  H17 UNL     1      25.009   1.774  52.643  1.00  0.00     0.225 HD
ENDROOT
BRANCH   1  22
HETATM   22  C2  UNL     1      20.550   0.197  51.520  1.00  0.00     0.007 C 
HETATM   23  C1  UNL     1      19.059   0.480  51.563  1.00  0.00     0.006 C 
ENDBRANCH   1  22
TORSDOF 1
ENDMDL
MODEL 4
REMARK VINA RESULT:      -7.9      2.394      4.116
REMARK  1 active torsions:
REMARK  status: ('A' for Active; 'I' for Inactive)
REMARK    1  A    between atoms: C2_2  and  C3_3 
ROOT
HETATM    1  C3  UNL     1      27.007  -0.303  53.816  1.00  0.00     0.051 C 
HETATM    2  C4  UNL     1      27.408   0.134  52.453  1.00  0.00     0.091 C 
HETATM    3  C5  UNL     1      26.451   1.099  51.766  1.00  0.00     0.149 C 
HETATM    4  O1  UNL     1      26.780   2.018  51.072  1.00  0.00    -0.296 OA
HETATM    5  C6  UNL     1      25.081   0.715  52.096  1.00  0.00     0.158 C 
HETATM    6  C7  UNL     1      25.210   0.698  53.611  1.00  0.00     0.036 C 
HETATM    7  C8  UNL     1      25.575  -0.515  54.090  1.00  0.00     0.081 C 
HETATM    8  O2  UNL     1      24.383  -1.175  54.529  1.00  0.00    -0.218 OA
HETATM    9  N1  UNL     1      23.177  -0.802  54.099  1.00  0.00    -0.144 NA
HETATM   10  C9  UNL     1      22.136  -1.136  53.606  1.00  0.00     0.133 C 
HETATM   11  C10 UNL     1      21.142  -0.069  53.388  1.00  0.00     0.091 A 
HETATM   12  C11 UNL     1      19.734  -0.526  53.433  1.00  0.00     0.005 A 
HETATM   13  C12 UNL     1      18.729  -0.392  52.583  1.00  0.00     0.084 A 
HETATM   14  N2  UNL     1      19.085   0.328  51.408  1.00  0.00    -0.375 N 
HETATM   15  C13 UNL     1      20.361   0.849  51.156  1.00  0.00     0.100 A 
HETATM   16  C14 UNL     1      21.287   0.654  52.077  1.00  0.00     0.021 A 
HETATM   17  C15 UNL     1      22.571   1.250  51.637  1.00  0.00     0.162 A 
HETATM   18  O3  UNL     1      22.724   2.247  50.873  1.00  0.00    -0.286 OA
HETATM   19  N3  UNL     1      23.989   1.369  51.566  1.00  0.00    -0.245 NA
HETATM   20  H15 UNL     1      18.293   0.442  50.721  1.00  0.00     0.164 HD
HETATM   21  H17 UNL     1      23.510   0.655  52.119  1.00  0.00     0.225 HD
ENDROOT
BRANCH   1  22
HETATM   22  C2  UNL     1      27.554   0.700  54.816  1.00  0.00     0.007 C 
HETATM   23  C1  UNL     1      29.002   0.950  54.431  1.00  0.00     0.006 C 
ENDBRANCH   1  22
TORSDOF 1
ENDMDL
MODEL 5
REMARK VINA RESULT:      -7.5      1.932      3.623
REMARK  1 active torsions:
REMARK  status: ('A' for Active; 'I' for Inactive)
REMARK    1  A    between atoms: C2_2  and  C3_3 
ROOT
HETATM    1  C3  UNL     1      26.021  -0.150  53.323  1.00  0.00     0.051 C 
HETATM    2  C4  UNL     1      26.894   0.419  52.262  1.00  0.00     0.091 C 
HETATM    3  C5  UNL     1      26.592   1.858  51.867  1.00  0.00     0.149 C 
HETATM    4  O1  UNL     1      27.415   2.684  51.592  1.00  0.00    -0.296 OA
HETATM    5  C6  UNL     1      25.145   2.056  51.883  1.00  0.00     0.158 C 
HETATM    6  C7  UNL     1      24.865   1.564  53.294  1.00  0.00     0.036 C 
HETATM    7  C8  UNL     1      24.600   0.236  53.342  1.00  0.00     0.081 C 
HETATM    8  O2  UNL     1      23.177   0.088  53.379  1.00  0.00    -0.218 OA
HETATM    9  N1  UNL     1      22.360   1.066  52.981  1.00  0.00    -0.144 NA
HETATM   10  C9  UNL     1      21.434   1.385  52.288  1.00  0.00     0.133 C 
HETATM   11  C10 UNL     1      21.020   2.798  52.361  1.00  0.00     0.091 A 
HETATM   12  C11 UNL     1      19.583   3.029  52.082  1.00  0.00     0.005 A 
HETATM   13  C12 UNL     1      18.962   3.829  51.232  1.00  0.00     0.084 A 
HETATM   14  N2  UNL     1      19.854   4.606  50.442  1.00  0.00    -0.375 N 
HETATM   15  C13 UNL     1      21.250   4.546  50.538  1.00  0.00     0.100 A 
HETATM   16  C14 UNL     1      21.762   3.711  51.423  1.00  0.00     0.021 A 
HETATM   17  C15 UNL     1      23.242   3.763  51.373  1.00  0.00     0.162 A 
HETATM   18  O3  UNL     1      23.957   4.753  51.041  1.00  0.00    -0.286 OA
HETATM   19  N3  UNL     1      24.563   3.247  51.507  1.00  0.00    -0.245 NA
HETATM   20  H15 UNL     1      19.371   5.249  49.759  1.00  0.00     0.164 HD
HETATM   21  H17 UNL     1      23.722   2.702  51.709  1.00  0.00     0.225 HD
ENDROOT
BRANCH   1  22
HETATM   22  C2  UNL     1      26.637   0.181  54.671  1.00  0.00     0.007 C 
HETATM   23  C1  UNL     1      28.140   0.033  54.508  1.00  0.00     0.006 C 
ENDBRANCH   1  22
TORSDOF 1
ENDMDL
MODEL 6
REMARK VINA RESULT:      -7.3      2.694      7.014
REMARK  1 active torsions:
REMARK  status: ('A' for Active; 'I' for Inactive)
REMARK    1  A    between atoms: C2_2  and  C3_3 
ROOT
HETATM    1  C3  UNL     1      19.108   1.123  51.608  1.00  0.00     0.051 C 
HETATM    2  C4  UNL     1      19.008   2.590  51.832  1.00  0.00     0.091 C 
HETATM    3  C5  UNL     1      20.301   3.371  51.647  1.00  0.00     0.149 C 
HETATM    4  O1  UNL     1      20.383   4.461  51.157  1.00  0.00    -0.296 OA
HETATM    5  C6  UNL     1      21.410   2.572  52.162  1.00  0.00     0.158 C 
HETATM    6  C7  UNL     1      21.155   1.297  51.375  1.00  0.00     0.036 C 
HETATM    7  C8  UNL     1      20.340   0.434  52.028  1.00  0.00     0.081 C 
HETATM    8  O2  UNL     1      21.175  -0.538  52.667  1.00  0.00    -0.218 OA
HETATM    9  N1  UNL     1      22.467  -0.304  52.903  1.00  0.00    -0.144 NA
HETATM   10  C9  UNL     1      23.358  -0.292  53.707  1.00  0.00     0.133 C 
HETATM   11  C10 UNL     1      24.682   0.124  53.210  1.00  0.00     0.091 A 
HETATM   12  C11 UNL     1      25.825  -0.472  53.940  1.00  0.00     0.005 A 
HETATM   13  C12 UNL     1      26.879   0.065  54.530  1.00  0.00     0.084 A 
HETATM   14  N2  UNL     1      26.906   1.485  54.440  1.00  0.00    -0.375 N 
HETATM   15  C13 UNL     1      25.927   2.255  53.797  1.00  0.00     0.100 A 
HETATM   16  C14 UNL     1      24.918   1.610  53.241  1.00  0.00     0.021 A 
HETATM   17  C15 UNL     1      23.974   2.576  52.631  1.00  0.00     0.162 A 
HETATM   18  O3  UNL     1      24.254   3.717  52.160  1.00  0.00    -0.286 OA
HETATM   19  N3  UNL     1      22.704   3.046  52.188  1.00  0.00    -0.245 NA
HETATM   20  H15 UNL     1      27.742   1.926  54.906  1.00  0.00     0.164 HD
HETATM   21  H17 UNL     1      22.847   2.131  52.622  1.00  0.00     0.225 HD
ENDROOT
BRANCH   1  22
HETATM   22  C2  UNL     1      18.873   0.852  50.132  1.00  0.00     0.007 C 
HETATM   23  C1  UNL     1      17.583   1.564  49.762  1.00  0.00     0.006 C 
ENDBRANCH   1  22
TORSDOF 1
ENDMDL
MODEL 7
REMARK VINA RESULT:      -7.3      2.775      4.621
REMARK  1 active torsions:
REMARK  status: ('A' for Active; 'I' for Inactive)
REMARK    1  A    between atoms: C2_2  and  C3_3 
ROOT
HETATM    1  C3  UNL     1      22.390   0.080  53.852  1.00  0.00     0.051 C 
HETATM    2  C4  UNL     1      21.179   0.937  53.952  1.00  0.00     0.091 C 
HETATM    3  C5  UNL     1      20.834   1.733  52.701  1.00  0.00     0.149 C 
HETATM    4  O1  UNL     1      19.724   1.938  52.301  1.00  0.00    -0.296 OA
HETATM    5  C6  UNL     1      22.073   2.195  52.082  1.00  0.00     0.158 C 
HETATM    6  C7  UNL     1      22.786   0.856  51.977  1.00  0.00     0.036 C 
HETATM    7  C8  UNL     1      23.536   0.577  53.070  1.00  0.00     0.081 C 
HETATM    8  O2  UNL     1      24.888   0.931  52.760  1.00  0.00    -0.218 OA
HETATM    9  N1  UNL     1      25.182   1.773  51.768  1.00  0.00    -0.144 NA
HETATM   10  C9  UNL     1      25.765   2.765  51.429  1.00  0.00     0.133 C 
HETATM   11  C10 UNL     1      25.623   3.156  50.015  1.00  0.00     0.091 A 
HETATM   12  C11 UNL     1      26.782   3.895  49.464  1.00  0.00     0.005 A 
HETATM   13  C12 UNL     1      26.879   5.056  48.838  1.00  0.00     0.084 A 
HETATM   14  N2  UNL     1      25.624   5.706  48.669  1.00  0.00    -0.375 N 
HETATM   15  C13 UNL     1      24.400   5.188  49.114  1.00  0.00     0.100 A 
HETATM   16  C14 UNL     1      24.424   4.019  49.728  1.00  0.00     0.021 A 
HETATM   17  C15 UNL     1      23.054   3.637  50.145  1.00  0.00     0.162 A 
HETATM   18  O3  UNL     1      21.969   3.967  49.583  1.00  0.00    -0.286 OA
HETATM   19  N3  UNL     1      22.078   2.998  50.962  1.00  0.00    -0.245 NA
HETATM   20  H15 UNL     1      25.687   6.633  48.171  1.00  0.00     0.164 HD
HETATM   21  H17 UNL     1      23.084   2.932  51.130  1.00  0.00     0.225 HD
ENDROOT
BRANCH   1  22
HETATM   22  C2  UNL     1      21.970  -1.272  53.301  1.00  0.00     0.007 C 
HETATM   23  C1  UNL     1      20.869  -1.787  54.212  1.00  0.00     0.006 C 
ENDBRANCH   1  22
TORSDOF 1
ENDMDL
MODEL 8
REMARK VINA RESULT:      -7.1      2.048      6.293
REMARK  1 active torsions:
REMARK  status: ('A' for Active; 'I' for Inactive)
REMARK    1  A    between atoms: C2_2  and  C3_3 
ROOT
HETATM    1  C3  UNL     1      23.005   3.740  48.290  1.00  0.00     0.051 C 
HETATM    2  C4  UNL     1      22.099   2.619  47.924  1.00  0.00     0.091 C 
HETATM    3  C5  UNL     1      21.544   1.817  49.092  1.00  0.00     0.149 C 
HETATM    4  O1  UNL     1      20.433   1.373  49.156  1.00  0.00    -0.296 OA
HETATM    5  C6  UNL     1      22.585   1.685  50.109  1.00  0.00     0.158 C 
HETATM    6  C7  UNL     1      22.928   3.157  50.272  1.00  0.00     0.036 C 
HETATM    7  C8  UNL     1      23.915   3.560  49.435  1.00  0.00     0.081 C 
HETATM    8  O2  UNL     1      25.137   3.546  50.180  1.00  0.00    -0.218 OA
HETATM    9  N1  UNL     1      25.264   2.839  51.304  1.00  0.00    -0.144 NA
HETATM   10  C9  UNL     1      25.901   2.027  51.916  1.00  0.00     0.133 C 
HETATM   11  C10 UNL     1      25.395   1.673  53.254  1.00  0.00     0.091 A 
HETATM   12  C11 UNL     1      26.443   1.250  54.212  1.00  0.00     0.005 A 
HETATM   13  C12 UNL     1      26.573   0.171  54.967  1.00  0.00     0.084 A 
HETATM   14  N2  UNL     1      25.497  -0.747  54.818  1.00  0.00    -0.375 N 
HETATM   15  C13 UNL     1      24.402  -0.550  53.966  1.00  0.00     0.100 A 
HETATM   16  C14 UNL     1      24.377   0.565  53.259  1.00  0.00     0.021 A 
HETATM   17  C15 UNL     1      23.167   0.596  52.404  1.00  0.00     0.162 A 
HETATM   18  O3  UNL     1      22.054   0.044  52.642  1.00  0.00    -0.286 OA
HETATM   19  N3  UNL     1      22.396   0.953  51.261  1.00  0.00    -0.245 NA
HETATM   20  H15 UNL     1      25.588  -1.612  55.414  1.00  0.00     0.164 HD
HETATM   21  H17 UNL     1      23.365   1.246  51.401  1.00  0.00     0.225 HD
ENDROOT
BRANCH   1  22
HETATM   22  C2  UNL     1      22.157   4.977  48.528  1.00  0.00     0.007 C 
HETATM   23  C1  UNL     1      21.407   5.243  47.234  1.00  0.00     0.006 C 
ENDBRANCH   1  22
TORSDOF 1
ENDMDL
MODEL 9
REMARK VINA RESULT:      -7.1      2.969      6.881
REMARK  1 active torsions:
REMARK  status: ('A' for Active; 'I' for Inactive)
REMARK    1  A    between atoms: C2_2  and  C3_3 
ROOT
HETATM    1  C3  UNL     1      19.088   1.580  50.887  1.00  0.00     0.051 C 
HETATM    2  C4  UNL     1      18.548   0.257  51.297  1.00  0.00     0.091 C 
HETATM    3  C5  UNL     1      19.135  -0.323  52.577  1.00  0.00     0.149 C 
HETATM    4  O1  UNL     1      18.518  -0.934  53.402  1.00  0.00    -0.296 OA
HETATM    5  C6  UNL     1      20.560  -0.008  52.624  1.00  0.00     0.158 C 
HETATM    6  C7  UNL     1      20.467   1.496  52.425  1.00  0.00     0.036 C 
HETATM    7  C8  UNL     1      20.517   1.855  51.120  1.00  0.00     0.081 C 
HETATM    8  O2  UNL     1      21.863   2.250  50.839  1.00  0.00    -0.218 OA
HETATM    9  N1  UNL     1      22.880   1.874  51.617  1.00  0.00    -0.144 NA
HETATM   10  C9  UNL     1      23.966   1.368  51.681  1.00  0.00     0.133 C 
HETATM   11  C10 UNL     1      24.562   1.265  53.025  1.00  0.00     0.091 A 
HETATM   12  C11 UNL     1      26.043   1.290  53.042  1.00  0.00     0.005 A 
HETATM   13  C12 UNL     1      26.938   0.471  53.569  1.00  0.00     0.084 A 
HETATM   14  N2  UNL     1      26.353  -0.637  54.243  1.00  0.00    -0.375 N 
HETATM   15  C13 UNL     1      24.974  -0.859  54.348  1.00  0.00     0.100 A 
HETATM   16  C14 UNL     1      24.173   0.025  53.783  1.00  0.00     0.021 A 
HETATM   17  C15 UNL     1      22.759  -0.377  53.974  1.00  0.00     0.162 A 
HETATM   18  O3  UNL     1      22.283  -1.048  54.935  1.00  0.00    -0.286 OA
HETATM   19  N3  UNL     1      21.377  -0.459  53.638  1.00  0.00    -0.245 NA
HETATM   20  H15 UNL     1      27.057  -1.298  54.668  1.00  0.00     0.164 HD
HETATM   21  H17 UNL     1      22.068   0.033  53.067  1.00  0.00     0.225 HD
ENDROOT
BRANCH   1  22
HETATM   22  C2  UNL     1      18.263   2.660  51.565  1.00  0.00     0.007 C 
HETATM   23  C1  UNL     1      16.808   2.347  51.263  1.00  0.00     0.006 C 
ENDBRANCH   1  22
TORSDOF 1
ENDMDL
