MODEL 1
REMARK VINA RESULT:      -7.6      0.000      0.000
REMARK  5 active torsions:
REMARK  status: ('A' for Active; 'I' for Inactive)
REMARK    1  A    between atoms: C1_2  and  C2_3 
REMARK    2  A    between atoms: C2_3  and  O1_4 
REMARK    3  A    between atoms: O1_4  and  C3_5 
REMARK    4  A    between atoms: C9_12  and  C10_13 
REMARK    5  A    between atoms: C10_13  and  C11_14 
ROOT
HETATM    1  C3  UNL     1      28.018  -0.067  53.606  1.00  0.00     0.104 A 
HETATM    2  C4  UNL     1      29.321  -0.260  53.700  1.00  0.00     0.037 A 
HETATM    3  C5  UNL     1      29.839  -1.592  53.414  1.00  0.00    -0.001 A 
HETATM    4  C6  UNL     1      28.946  -2.481  53.086  1.00  0.00    -0.021 A 
HETATM    5  C7  UNL     1      27.493  -2.401  52.946  1.00  0.00     0.098 A 
HETATM    6  C8  UNL     1      26.943  -1.024  53.241  1.00  0.00     0.216 A 
HETATM    7  N2  UNL     1      25.868  -1.027  54.150  1.00  0.00    -0.224 NA
HETATM    8  C9  UNL     1      25.032  -0.628  53.299  1.00  0.00     0.146 A 
HETATM    9  O2  UNL     1      26.003  -0.588  52.332  1.00  0.00    -0.297 OA
ENDROOT
BRANCH   1  10
HETATM   10  O1  UNL     1      27.537   1.221  53.886  1.00  0.00    -0.345 OA
BRANCH  10  11
HETATM   11  C2  UNL     1      27.806   2.359  53.130  1.00  0.00     0.221 C 
BRANCH  11  12
HETATM   12  C1  UNL     1      27.106   2.330  51.818  1.00  0.00     0.106 C 
HETATM   13  N1  UNL     1      27.085   3.323  51.024  1.00  0.00    -0.314 NA
HETATM   14  H1  UNL     1      26.601   3.289  50.128  1.00  0.00     0.185 HD
ENDBRANCH  11  12
ENDBRANCH  10  11
ENDBRANCH   1  10
BRANCH   8  15
HETATM   15  C10 UNL     1      23.593  -0.303  53.240  1.00  0.00     0.124 C 
BRANCH  15  16
HETATM   16  C11 UNL     1      23.295   0.967  52.571  1.00  0.00    -0.051 A 
HETATM   17  C12 UNL     1      22.510   1.102  51.460  1.00  0.00     0.007 A 
HETATM   18  C13 UNL     1      22.263   2.320  50.871  1.00  0.00     0.001 A 
HETATM   19  C14 UNL     1      22.814   3.469  51.398  1.00  0.00     0.000 A 
HETATM   20  C15 UNL     1      23.623   3.416  52.525  1.00  0.00     0.001 A 
HETATM   21  C16 UNL     1      23.834   2.156  53.072  1.00  0.00     0.007 A 
ENDBRANCH  15  16
ENDBRANCH   8  15
TORSDOF 5
ENDMDL
MODEL 2
REMARK VINA RESULT:      -7.5      2.815      4.501
REMARK  5 active torsions:
REMARK  status: ('A' for Active; 'I' for Inactive)
REMARK    1  A    between atoms: C1_2  and  C2_3 
REMARK    2  A    between atoms: C2_3  and  O1_4 
REMARK    3  A    between atoms: O1_4  and  C3_5 
REMARK    4  A    between atoms: C9_12  and  C10_13 
REMARK    5  A    between atoms: C10_13  and  C11_14 
ROOT
HETATM    1  C3  UNL     1      26.763   0.401  53.236  1.00  0.00     0.104 A 
HETATM    2  C4  UNL     1      27.429  -0.284  54.147  1.00  0.00     0.037 A 
HETATM    3  C5  UNL     1      28.647   0.303  54.691  1.00  0.00    -0.001 A 
HETATM    4  C6  UNL     1      28.965   1.473  54.216  1.00  0.00    -0.021 A 
HETATM    5  C7  UNL     1      28.324   2.330  53.219  1.00  0.00     0.098 A 
HETATM    6  C8  UNL     1      27.060   1.731  52.646  1.00  0.00     0.216 A 
HETATM    7  N2  UNL     1      27.017   1.737  51.239  1.00  0.00    -0.224 NA
HETATM    8  C9  UNL     1      26.058   2.550  51.183  1.00  0.00     0.146 A 
HETATM    9  O2  UNL     1      26.011   2.619  52.552  1.00  0.00    -0.297 OA
ENDROOT
BRANCH   1  10
HETATM   10  O1  UNL     1      25.593  -0.179  52.724  1.00  0.00    -0.345 OA
BRANCH  10  11
HETATM   11  C2  UNL     1      24.437  -0.436  53.457  1.00  0.00     0.221 C 
BRANCH  11  12
HETATM   12  C1  UNL     1      23.271   0.327  52.936  1.00  0.00     0.106 C 
HETATM   13  N1  UNL     1      23.174   1.591  53.033  1.00  0.00    -0.314 NA
HETATM   14  H1  UNL     1      22.370   2.102  52.671  1.00  0.00     0.185 HD
ENDBRANCH  11  12
ENDBRANCH  10  11
ENDBRANCH   1  10
BRANCH   8  15
HETATM   15  C10 UNL     1      25.243   3.219  50.150  1.00  0.00     0.124 C 
BRANCH  15  16
HETATM   16  C11 UNL     1      25.921   4.339  49.490  1.00  0.00    -0.051 A 
HETATM   17  C12 UNL     1      27.223   4.329  49.072  1.00  0.00     0.007 A 
HETATM   18  C13 UNL     1      27.812   5.408  48.456  1.00  0.00     0.001 A 
HETATM   19  C14 UNL     1      27.087   6.561  48.237  1.00  0.00     0.000 A 
HETATM   20  C15 UNL     1      25.759   6.650  48.633  1.00  0.00     0.001 A 
HETATM   21  C16 UNL     1      25.224   5.526  49.249  1.00  0.00     0.007 A 
ENDBRANCH  15  16
ENDBRANCH   8  15
TORSDOF 5
ENDMDL
MODEL 3
REMARK VINA RESULT:      -7.5      2.337      6.007
REMARK  5 active torsions:
REMARK  status: ('A' for Active; 'I' for Inactive)
REMARK    1  A    between atoms: C1_2  and  C2_3 
REMARK    2  A    between atoms: C2_3  and  O1_4 
REMARK    3  A    between atoms: O1_4  and  C3_5 
REMARK    4  A    between atoms: C9_12  and  C10_13 
REMARK    5  A    between atoms: C10_13  and  C11_14 
ROOT
HETATM    1  C3  UNL     1      21.843   1.792  52.541  1.00  0.00     0.104 A 
HETATM    2  C4  UNL     1      20.593   1.468  52.816  1.00  0.00     0.037 A 
HETATM    3  C5  UNL     1      20.355   0.268  53.608  1.00  0.00    -0.001 A 
HETATM    4  C6  UNL     1      21.423  -0.380  53.977  1.00  0.00    -0.021 A 
HETATM    5  C7  UNL     1      22.845  -0.132  53.744  1.00  0.00     0.098 A 
HETATM    6  C8  UNL     1      23.105   1.109  52.923  1.00  0.00     0.216 A 
HETATM    7  N2  UNL     1      23.973   0.896  51.835  1.00  0.00    -0.224 NA
HETATM    8  C9  UNL     1      24.884   1.627  52.304  1.00  0.00     0.146 A 
HETATM    9  O2  UNL     1      24.121   1.903  53.410  1.00  0.00    -0.297 OA
ENDROOT
BRANCH   1  10
HETATM   10  O1  UNL     1      22.053   2.950  51.777  1.00  0.00    -0.345 OA
BRANCH  10  11
HETATM   11  C2  UNL     1      21.851   4.254  52.224  1.00  0.00     0.221 C 
BRANCH  11  12
HETATM   12  C1  UNL     1      23.123   5.023  52.276  1.00  0.00     0.106 C 
HETATM   13  N1  UNL     1      23.864   5.063  53.308  1.00  0.00    -0.314 NA
HETATM   14  H1  UNL     1      24.733   5.595  53.331  1.00  0.00     0.185 HD
ENDBRANCH  11  12
ENDBRANCH  10  11
ENDBRANCH   1  10
BRANCH   8  15
HETATM   15  C10 UNL     1      26.238   2.076  51.925  1.00  0.00     0.124 C 
BRANCH  15  16
HETATM   16  C11 UNL     1      27.315   1.407  52.661  1.00  0.00    -0.051 A 
HETATM   17  C12 UNL     1      28.268   2.045  53.406  1.00  0.00     0.007 A 
HETATM   18  C13 UNL     1      29.258   1.368  54.079  1.00  0.00     0.001 A 
HETATM   19  C14 UNL     1      29.320  -0.008  54.019  1.00  0.00     0.000 A 
HETATM   20  C15 UNL     1      28.389  -0.729  53.282  1.00  0.00     0.001 A 
HETATM   21  C16 UNL     1      27.415   0.013  52.626  1.00  0.00     0.007 A 
ENDBRANCH  15  16
ENDBRANCH   8  15
TORSDOF 5
ENDMDL
MODEL 4
REMARK VINA RESULT:      -7.4      1.890      3.865
REMARK  5 active torsions:
REMARK  status: ('A' for Active; 'I' for Inactive)
REMARK    1  A    between atoms: C1_2  and  C2_3 
REMARK    2  A    between atoms: C2_3  and  O1_4 
REMARK    3  A    between atoms: O1_4  and  C3_5 
REMARK    4  A    between atoms: C9_12  and  C10_13 
REMARK    5  A    between atoms: C10_13  and  C11_14 
ROOT
HETATM    1  C3  UNL     1      27.396   0.095  53.808  1.00  0.00     0.104 A 
HETATM    2  C4  UNL     1      28.626   0.027  54.283  1.00  0.00     0.037 A 
HETATM    3  C5  UNL     1      29.423   1.248  54.298  1.00  0.00    -0.001 A 
HETATM    4  C6  UNL     1      28.830   2.309  53.832  1.00  0.00    -0.021 A 
HETATM    5  C7  UNL     1      27.491   2.518  53.284  1.00  0.00     0.098 A 
HETATM    6  C8  UNL     1      26.654   1.259  53.262  1.00  0.00     0.216 A 
HETATM    7  N2  UNL     1      26.053   1.001  52.016  1.00  0.00    -0.224 NA
HETATM    8  C9  UNL     1      24.882   1.168  52.446  1.00  0.00     0.146 A 
HETATM    9  O2  UNL     1      25.361   1.436  53.703  1.00  0.00    -0.297 OA
ENDROOT
BRANCH   1  10
HETATM   10  O1  UNL     1      26.644  -1.089  53.801  1.00  0.00    -0.345 OA
BRANCH  10  11
HETATM   11  C2  UNL     1      26.719  -2.082  52.827  1.00  0.00     0.221 C 
BRANCH  11  12
HETATM   12  C1  UNL     1      28.109  -2.583  52.654  1.00  0.00     0.106 C 
HETATM   13  N1  UNL     1      28.603  -3.509  53.371  1.00  0.00    -0.314 NA
HETATM   14  H1  UNL     1      29.557  -3.844  53.242  1.00  0.00     0.185 HD
ENDBRANCH  11  12
ENDBRANCH  10  11
ENDBRANCH   1  10
BRANCH   8  15
HETATM   15  C10 UNL     1      23.502   1.124  51.924  1.00  0.00     0.124 C 
BRANCH  15  16
HETATM   16  C11 UNL     1      22.598   0.271  52.701  1.00  0.00    -0.051 A 
HETATM   17  C12 UNL     1      22.998  -0.717  53.557  1.00  0.00     0.007 A 
HETATM   18  C13 UNL     1      22.107  -1.491  54.264  1.00  0.00     0.001 A 
HETATM   19  C14 UNL     1      20.751  -1.286  54.125  1.00  0.00     0.000 A 
HETATM   20  C15 UNL     1      20.265  -0.303  53.274  1.00  0.00     0.001 A 
HETATM   21  C16 UNL     1      21.216   0.444  52.589  1.00  0.00     0.007 A 
ENDBRANCH  15  16
ENDBRANCH   8  15
TORSDOF 5
ENDMDL
MODEL 5
REMARK VINA RESULT:      -7.3      2.826      4.982
REMARK  5 active torsions:
REMARK  status: ('A' for Active; 'I' for Inactive)
REMARK    1  A    between atoms: C1_2  and  C2_3 
REMARK    2  A    between atoms: C2_3  and  O1_4 
REMARK    3  A    between atoms: O1_4  and  C3_5 
REMARK    4  A    between atoms: C9_12  and  C10_13 
REMARK    5  A    between atoms: C10_13  and  C11_14 
ROOT
HETATM    1  C3  UNL     1      24.696   1.192  52.588  1.00  0.00     0.104 A 
HETATM    2  C4  UNL     1      24.757   0.224  53.485  1.00  0.00     0.037 A 
HETATM    3  C5  UNL     1      23.526  -0.485  53.812  1.00  0.00    -0.001 A 
HETATM    4  C6  UNL     1      22.464  -0.087  53.173  1.00  0.00    -0.021 A 
HETATM    5  C7  UNL     1      22.262   0.957  52.170  1.00  0.00     0.098 A 
HETATM    6  C8  UNL     1      23.531   1.701  51.822  1.00  0.00     0.216 A 
HETATM    7  N2  UNL     1      23.399   3.102  51.875  1.00  0.00    -0.224 NA
HETATM    8  C9  UNL     1      23.568   3.254  50.638  1.00  0.00     0.146 A 
HETATM    9  O2  UNL     1      23.712   1.900  50.471  1.00  0.00    -0.297 OA
ENDROOT
BRANCH   1  10
HETATM   10  O1  UNL     1      25.890   1.863  52.286  1.00  0.00    -0.345 OA
BRANCH  10  11
HETATM   11  C2  UNL     1      27.169   1.336  52.443  1.00  0.00     0.221 C 
BRANCH  11  12
HETATM   12  C1  UNL     1      27.993   2.152  53.375  1.00  0.00     0.106 C 
HETATM   13  N1  UNL     1      28.924   2.922  52.980  1.00  0.00    -0.314 NA
HETATM   14  H1  UNL     1      29.481   3.476  53.630  1.00  0.00     0.185 HD
ENDBRANCH  11  12
ENDBRANCH  10  11
ENDBRANCH   1  10
BRANCH   8  15
HETATM   15  C10 UNL     1      23.614   4.361  49.663  1.00  0.00     0.124 C 
BRANCH  15  16
HETATM   16  C11 UNL     1      24.971   4.764  49.283  1.00  0.00    -0.051 A 
HETATM   17  C12 UNL     1      26.077   3.963  49.362  1.00  0.00     0.007 A 
HETATM   18  C13 UNL     1      27.330   4.392  48.992  1.00  0.00     0.001 A 
HETATM   19  C14 UNL     1      27.512   5.674  48.519  1.00  0.00     0.000 A 
HETATM   20  C15 UNL     1      26.439   6.549  48.409  1.00  0.00     0.001 A 
HETATM   21  C16 UNL     1      25.200   6.055  48.799  1.00  0.00     0.007 A 
ENDBRANCH  15  16
ENDBRANCH   8  15
TORSDOF 5
ENDMDL
MODEL 6
REMARK VINA RESULT:      -7.2      2.657      5.201
REMARK  5 active torsions:
REMARK  status: ('A' for Active; 'I' for Inactive)
REMARK    1  A    between atoms: C1_2  and  C2_3 
REMARK    2  A    between atoms: C2_3  and  O1_4 
REMARK    3  A    between atoms: O1_4  and  C3_5 
REMARK    4  A    between atoms: C9_12  and  C10_13 
REMARK    5  A    between atoms: C10_13  and  C11_14 
ROOT
HETATM    1  C3  UNL     1      25.706   3.140  50.530  1.00  0.00     0.104 A 
HETATM    2  C4  UNL     1      26.759   3.574  49.862  1.00  0.00     0.037 A 
HETATM    3  C5  UNL     1      26.613   4.786  49.064  1.00  0.00    -0.001 A 
HETATM    4  C6  UNL     1      25.432   5.334  49.091  1.00  0.00    -0.021 A 
HETATM    5  C7  UNL     1      24.197   4.961  49.780  1.00  0.00     0.098 A 
HETATM    6  C8  UNL     1      24.336   3.705  50.610  1.00  0.00     0.216 A 
HETATM    7  N2  UNL     1      23.326   2.753  50.369  1.00  0.00    -0.224 NA
HETATM    8  C9  UNL     1      22.832   2.857  51.522  1.00  0.00     0.146 A 
HETATM    9  O2  UNL     1      23.771   3.795  51.863  1.00  0.00    -0.297 OA
ENDROOT
BRANCH   1  10
HETATM   10  O1  UNL     1      25.865   1.973  51.292  1.00  0.00    -0.345 OA
BRANCH  10  11
HETATM   11  C2  UNL     1      26.994   1.652  52.042  1.00  0.00     0.221 C 
BRANCH  11  12
HETATM   12  C1  UNL     1      26.773   1.875  53.496  1.00  0.00     0.106 C 
HETATM   13  N1  UNL     1      25.953   2.736  53.946  1.00  0.00    -0.314 NA
HETATM   14  H1  UNL     1      25.811   2.878  54.945  1.00  0.00     0.185 HD
ENDBRANCH  11  12
ENDBRANCH  10  11
ENDBRANCH   1  10
BRANCH   8  15
HETATM   15  C10 UNL     1      21.718   2.273  52.296  1.00  0.00     0.124 C 
BRANCH  15  16
HETATM   16  C11 UNL     1      22.097   1.102  53.093  1.00  0.00    -0.051 A 
HETATM   17  C12 UNL     1      23.326   0.505  53.072  1.00  0.00     0.007 A 
HETATM   18  C13 UNL     1      23.630  -0.594  53.841  1.00  0.00     0.001 A 
HETATM   19  C14 UNL     1      22.679  -1.137  54.678  1.00  0.00     0.000 A 
HETATM   20  C15 UNL     1      21.405  -0.588  54.756  1.00  0.00     0.001 A 
HETATM   21  C16 UNL     1      21.162   0.520  53.954  1.00  0.00     0.007 A 
ENDBRANCH  15  16
ENDBRANCH   8  15
TORSDOF 5
ENDMDL
MODEL 7
REMARK VINA RESULT:      -7.0      2.093      3.005
REMARK  5 active torsions:
REMARK  status: ('A' for Active; 'I' for Inactive)
REMARK    1  A    between atoms: C1_2  and  C2_3 
REMARK    2  A    between atoms: C2_3  and  O1_4 
REMARK    3  A    between atoms: O1_4  and  C3_5 
REMARK    4  A    between atoms: C9_12  and  C10_13 
REMARK    5  A    between atoms: C10_13  and  C11_14 
ROOT
HETATM    1  C3  UNL     1      27.147   1.692  53.520  1.00  0.00     0.104 A 
HETATM    2  C4  UNL     1      28.166   2.483  53.235  1.00  0.00     0.037 A 
HETATM    3  C5  UNL     1      29.461   2.173  53.829  1.00  0.00    -0.001 A 
HETATM    4  C6  UNL     1      29.487   1.123  54.598  1.00  0.00    -0.021 A 
HETATM    5  C7  UNL     1      28.446   0.174  54.991  1.00  0.00     0.098 A 
HETATM    6  C8  UNL     1      27.098   0.485  54.383  1.00  0.00     0.216 A 
HETATM    7  N2  UNL     1      26.047   0.513  55.319  1.00  0.00    -0.224 NA
HETATM    8  C9  UNL     1      25.470  -0.495  54.835  1.00  0.00     0.146 A 
HETATM    9  O2  UNL     1      26.443  -0.616  53.876  1.00  0.00    -0.297 OA
ENDROOT
BRANCH   1  10
HETATM   10  O1  UNL     1      25.909   2.006  52.941  1.00  0.00    -0.345 OA
BRANCH  10  11
HETATM   11  C2  UNL     1      25.616   1.926  51.581  1.00  0.00     0.221 C 
BRANCH  11  12
HETATM   12  C1  UNL     1      25.210   3.245  51.025  1.00  0.00     0.106 C 
HETATM   13  N1  UNL     1      24.720   4.174  51.741  1.00  0.00    -0.314 NA
HETATM   14  H1  UNL     1      24.446   5.074  51.347  1.00  0.00     0.185 HD
ENDBRANCH  11  12
ENDBRANCH  10  11
ENDBRANCH   1  10
BRANCH   8  15
HETATM   15  C10 UNL     1      24.261  -1.301  55.097  1.00  0.00     0.124 C 
BRANCH  15  16
HETATM   16  C11 UNL     1      23.088  -0.883  54.323  1.00  0.00    -0.051 A 
HETATM   17  C12 UNL     1      23.133  -0.319  53.078  1.00  0.00     0.007 A 
HETATM   18  C13 UNL     1      22.000   0.056  52.393  1.00  0.00     0.001 A 
HETATM   19  C14 UNL     1      20.756  -0.131  52.958  1.00  0.00     0.000 A 
HETATM   20  C15 UNL     1      20.627  -0.697  54.219  1.00  0.00     0.001 A 
HETATM   21  C16 UNL     1      21.809  -1.054  54.858  1.00  0.00     0.007 A 
ENDBRANCH  15  16
ENDBRANCH   8  15
TORSDOF 5
ENDMDL
MODEL 8
REMARK VINA RESULT:      -7.0      2.306      5.954
REMARK  5 active torsions:
REMARK  status: ('A' for Active; 'I' for Inactive)
REMARK    1  A    between atoms: C1_2  and  C2_3 
REMARK    2  A    between atoms: C2_3  and  O1_4 
REMARK    3  A    between atoms: O1_4  and  C3_5 
REMARK    4  A    between atoms: C9_12  and  C10_13 
REMARK    5  A    between atoms: C10_13  and  C11_14 
ROOT
HETATM    1  C3  UNL     1      21.919   0.901  51.336  1.00  0.00     0.104 A 
HETATM    2  C4  UNL     1      21.055   1.280  50.412  1.00  0.00     0.037 A 
HETATM    3  C5  UNL     1      19.648   0.953  50.614  1.00  0.00    -0.001 A 
HETATM    4  C6  UNL     1      19.377   0.306  51.711  1.00  0.00    -0.021 A 
HETATM    5  C7  UNL     1      20.227  -0.168  52.802  1.00  0.00     0.098 A 
HETATM    6  C8  UNL     1      21.688   0.165  52.604  1.00  0.00     0.216 A 
HETATM    7  N2  UNL     1      22.547  -0.938  52.771  1.00  0.00    -0.224 NA
HETATM    8  C9  UNL     1      23.098  -0.466  53.799  1.00  0.00     0.146 A 
HETATM    9  O2  UNL     1      22.311   0.654  53.731  1.00  0.00    -0.297 OA
ENDROOT
BRANCH   1  10
HETATM   10  O1  UNL     1      23.268   1.224  51.125  1.00  0.00    -0.345 OA
BRANCH  10  11
HETATM   11  C2  UNL     1      23.756   2.503  50.869  1.00  0.00     0.221 C 
BRANCH  11  12
HETATM   12  C1  UNL     1      23.983   3.270  52.123  1.00  0.00     0.106 C 
HETATM   13  N1  UNL     1      24.645   2.807  53.104  1.00  0.00    -0.314 NA
HETATM   14  H1  UNL     1      24.794   3.343  53.958  1.00  0.00     0.185 HD
ENDBRANCH  11  12
ENDBRANCH  10  11
ENDBRANCH   1  10
BRANCH   8  15
HETATM   15  C10 UNL     1      24.152  -0.853  54.758  1.00  0.00     0.124 C 
BRANCH  15  16
HETATM   16  C11 UNL     1      25.509  -0.512  54.321  1.00  0.00    -0.051 A 
HETATM   17  C12 UNL     1      26.441   0.129  55.089  1.00  0.00     0.007 A 
HETATM   18  C13 UNL     1      27.703   0.426  54.630  1.00  0.00     0.001 A 
HETATM   19  C14 UNL     1      28.073   0.076  53.349  1.00  0.00     0.000 A 
HETATM   20  C15 UNL     1      27.184  -0.578  52.505  1.00  0.00     0.001 A 
HETATM   21  C16 UNL     1      25.925  -0.848  53.029  1.00  0.00     0.007 A 
ENDBRANCH  15  16
ENDBRANCH   8  15
TORSDOF 5
ENDMDL
MODEL 9
REMARK VINA RESULT:      -6.9      3.218      5.039
REMARK  5 active torsions:
REMARK  status: ('A' for Active; 'I' for Inactive)
REMARK    1  A    between atoms: C1_2  and  C2_3 
REMARK    2  A    between atoms: C2_3  and  O1_4 
REMARK    3  A    between atoms: O1_4  and  C3_5 
REMARK    4  A    between atoms: C9_12  and  C10_13 
REMARK    5  A    between atoms: C10_13  and  C11_14 
ROOT
HETATM    1  C3  UNL     1      24.477   0.772  53.001  1.00  0.00     0.104 A 
HETATM    2  C4  UNL     1      24.672  -0.345  53.678  1.00  0.00     0.037 A 
HETATM    3  C5  UNL     1      25.951  -1.028  53.519  1.00  0.00    -0.001 A 
HETATM    4  C6  UNL     1      26.793  -0.456  52.707  1.00  0.00    -0.021 A 
HETATM    5  C7  UNL     1      26.703   0.764  51.906  1.00  0.00     0.098 A 
HETATM    6  C8  UNL     1      25.382   1.482  52.062  1.00  0.00     0.216 A 
HETATM    7  N2  UNL     1      24.768   1.809  50.838  1.00  0.00    -0.224 NA
HETATM    8  C9  UNL     1      24.888   3.050  51.008  1.00  0.00     0.146 A 
HETATM    9  O2  UNL     1      25.498   2.845  52.219  1.00  0.00    -0.297 OA
ENDROOT
BRANCH   1  10
HETATM   10  O1  UNL     1      23.241   1.415  53.166  1.00  0.00    -0.345 OA
BRANCH  10  11
HETATM   11  C2  UNL     1      22.004   0.778  53.203  1.00  0.00     0.221 C 
BRANCH  11  12
HETATM   12  C1  UNL     1      21.534   0.401  51.843  1.00  0.00     0.106 C 
HETATM   13  N1  UNL     1      21.743   1.121  50.817  1.00  0.00    -0.314 NA
HETATM   14  H1  UNL     1      21.416   0.851  49.890  1.00  0.00     0.185 HD
ENDBRANCH  11  12
ENDBRANCH  10  11
ENDBRANCH   1  10
BRANCH   8  15
HETATM   15  C10 UNL     1      24.555   4.295  50.289  1.00  0.00     0.124 C 
BRANCH  15  16
HETATM   16  C11 UNL     1      25.689   4.895  49.580  1.00  0.00    -0.051 A 
HETATM   17  C12 UNL     1      26.846   4.241  49.259  1.00  0.00     0.007 A 
HETATM   18  C13 UNL     1      27.882   4.851  48.591  1.00  0.00     0.001 A 
HETATM   19  C14 UNL     1      27.780   6.175  48.218  1.00  0.00     0.000 A 
HETATM   20  C15 UNL     1      26.638   6.909  48.508  1.00  0.00     0.001 A 
HETATM   21  C16 UNL     1      25.628   6.234  49.184  1.00  0.00     0.007 A 
ENDBRANCH  15  16
ENDBRANCH   8  15
TORSDOF 5
ENDMDL
