MODEL 1
REMARK VINA RESULT:      -7.8      0.000      0.000
REMARK  5 active torsions:
REMARK  status: ('A' for Active; 'I' for Inactive)
REMARK    1  A    between atoms: N1_1  and  C1_2 
REMARK    2  A    between atoms: C14_19  and  C15_20 
REMARK    3  A    between atoms: C15_20  and  C16_21 
REMARK    4  A    between atoms: C17_22  and  C18_23 
REMARK    5  A    between atoms: C18_23  and  C19_24 
ROOT
HETATM    1  C1  UNL     1      24.474   1.970  52.405  1.00  0.00     0.058 C 
HETATM    2  C2  UNL     1      25.359   1.197  53.001  1.00  0.00     0.032 C 
HETATM    3  C3  UNL     1      26.300   1.821  53.963  1.00  0.00     0.059 C 
HETATM    4  C4  UNL     1      27.208   0.713  54.497  1.00  0.00     0.008 C 
HETATM    5  C5  UNL     1      27.978   0.163  53.300  1.00  0.00     0.020 C 
HETATM    6  C6  UNL     1      26.965  -0.665  52.525  1.00  0.00     0.123 C 
HETATM    7  N2  UNL     1      25.618  -0.199  52.898  1.00  0.00    -0.382 N 
HETATM    8  C7  UNL     1      24.525  -1.140  53.165  1.00  0.00     0.125 C 
HETATM    9  C8  UNL     1      23.500  -0.498  54.078  1.00  0.00     0.046 C 
HETATM   10  C9  UNL     1      22.288  -1.340  54.267  1.00  0.00     0.169 C 
HETATM   11  O1  UNL     1      21.191  -0.725  54.760  1.00  0.00    -0.388 OA
HETATM   12  C10 UNL     1      20.407   0.044  53.983  1.00  0.00     0.205 C 
HETATM   13  C11 UNL     1      21.104   1.158  53.275  1.00  0.00     0.185 C 
HETATM   14  C12 UNL     1      20.059   2.161  52.758  1.00  0.00     0.124 C 
HETATM   15  N3  UNL     1      20.320   3.349  52.249  1.00  0.00    -0.256 NA
HETATM   16  C13 UNL     1      21.538   4.130  52.163  1.00  0.00     0.227 C 
HETATM   17  N4  UNL     1      22.747   3.682  52.070  1.00  0.00    -0.263 NA
HETATM   18  C14 UNL     1      23.380   2.468  51.561  1.00  0.00     0.122 C 
HETATM   19  C20 UNL     1      22.292   1.473  51.261  1.00  0.00     0.208 C 
HETATM   20  O2  UNL     1      21.848   0.685  52.243  1.00  0.00    -0.376 OA
ENDROOT
BRANCH  18  21
HETATM   21  C15 UNL     1      23.955   2.952  50.202  1.00  0.00     0.069 C 
BRANCH  21  22
HETATM   22  C16 UNL     1      22.948   2.542  49.185  1.00  0.00    -0.028 C 
HETATM   23  C17 UNL     1      22.725   3.315  48.107  1.00  0.00    -0.029 C 
BRANCH  23  24
HETATM   24  C18 UNL     1      21.869   3.307  46.910  1.00  0.00     0.042 C 
BRANCH  24  25
HETATM   25  C19 UNL     1      21.931   4.617  46.149  1.00  0.00     0.118 C 
HETATM   26 CL1  UNL     1      22.742   5.849  47.119  1.00  0.00    -0.130 Cl
ENDBRANCH  24  25
ENDBRANCH  23  24
ENDBRANCH  21  22
ENDBRANCH  18  21
BRANCH   1  27
HETATM   27  N1  UNL     1      24.991   3.120  53.115  1.00  0.00    -0.399 N 
HETATM   28  H1  UNL     1      24.456   3.971  53.320  1.00  0.00     0.156 HD
HETATM   29  H2  UNL     1      25.420   3.920  53.632  1.00  0.00     0.156 HD
ENDBRANCH   1  27
TORSDOF 5
ENDMDL
MODEL 2
REMARK VINA RESULT:      -7.8      1.738      2.061
REMARK  5 active torsions:
REMARK  status: ('A' for Active; 'I' for Inactive)
REMARK    1  A    between atoms: N1_1  and  C1_2 
REMARK    2  A    between atoms: C14_19  and  C15_20 
REMARK    3  A    between atoms: C15_20  and  C16_21 
REMARK    4  A    between atoms: C17_22  and  C18_23 
REMARK    5  A    between atoms: C18_23  and  C19_24 
ROOT
HETATM    1  C1  UNL     1      24.748   1.883  52.433  1.00  0.00     0.058 C 
HETATM    2  C2  UNL     1      25.548   1.057  53.077  1.00  0.00     0.032 C 
HETATM    3  C3  UNL     1      26.496   1.629  54.064  1.00  0.00     0.059 C 
HETATM    4  C4  UNL     1      27.297   0.467  54.652  1.00  0.00     0.008 C 
HETATM    5  C5  UNL     1      28.069  -0.163  53.496  1.00  0.00     0.020 C 
HETATM    6  C6  UNL     1      27.027  -0.927  52.696  1.00  0.00     0.123 C 
HETATM    7  N2  UNL     1      25.705  -0.355  53.006  1.00  0.00    -0.382 N 
HETATM    8  C7  UNL     1      24.535  -1.207  53.246  1.00  0.00     0.125 C 
HETATM    9  C8  UNL     1      23.528  -0.473  54.106  1.00  0.00     0.046 C 
HETATM   10  C9  UNL     1      22.249  -1.218  54.260  1.00  0.00     0.169 C 
HETATM   11  O1  UNL     1      21.183  -0.513  54.700  1.00  0.00    -0.388 OA
HETATM   12  C10 UNL     1      20.489   0.296  53.879  1.00  0.00     0.205 C 
HETATM   13  C11 UNL     1      21.296   1.342  53.181  1.00  0.00     0.185 C 
HETATM   14  C12 UNL     1      20.349   2.408  52.606  1.00  0.00     0.124 C 
HETATM   15  N3  UNL     1      20.718   3.564  52.088  1.00  0.00    -0.256 NA
HETATM   16  C13 UNL     1      21.995   4.250  52.037  1.00  0.00     0.227 C 
HETATM   17  N4  UNL     1      23.169   3.712  52.000  1.00  0.00    -0.263 NA
HETATM   18  C14 UNL     1      23.727   2.444  51.537  1.00  0.00     0.122 C 
HETATM   19  C20 UNL     1      22.581   1.527  51.211  1.00  0.00     0.208 C 
HETATM   20  O2  UNL     1      22.041   0.794  52.187  1.00  0.00    -0.376 OA
ENDROOT
BRANCH  18  21
HETATM   21  C15 UNL     1      24.390   2.858  50.194  1.00  0.00     0.069 C 
BRANCH  21  22
HETATM   22  C16 UNL     1      24.699   4.306  50.344  1.00  0.00    -0.028 C 
HETATM   23  C17 UNL     1      25.271   4.981  49.331  1.00  0.00    -0.029 C 
BRANCH  23  24
HETATM   24  C18 UNL     1      25.734   6.349  49.047  1.00  0.00     0.042 C 
BRANCH  24  25
HETATM   25  C19 UNL     1      27.152   6.379  48.513  1.00  0.00     0.118 C 
HETATM   26 CL1  UNL     1      27.859   4.762  48.565  1.00  0.00    -0.130 Cl
ENDBRANCH  24  25
ENDBRANCH  23  24
ENDBRANCH  21  22
ENDBRANCH  18  21
BRANCH   1  27
HETATM   27  N1  UNL     1      25.323   3.004  53.143  1.00  0.00    -0.399 N 
HETATM   28  H1  UNL     1      26.112   2.942  53.796  1.00  0.00     0.156 HD
HETATM   29  H2  UNL     1      25.695   3.851  53.628  1.00  0.00     0.156 HD
ENDBRANCH   1  27
TORSDOF 5
ENDMDL
MODEL 3
REMARK VINA RESULT:      -7.1      2.119      4.044
REMARK  5 active torsions:
REMARK  status: ('A' for Active; 'I' for Inactive)
REMARK    1  A    between atoms: N1_1  and  C1_2 
REMARK    2  A    between atoms: C14_19  and  C15_20 
REMARK    3  A    between atoms: C15_20  and  C16_21 
REMARK    4  A    between atoms: C17_22  and  C18_23 
REMARK    5  A    between atoms: C18_23  and  C19_24 
ROOT
HETATM    1  C1  UNL     1      22.343   1.963  52.081  1.00  0.00     0.058 C 
HETATM    2  C2  UNL     1      23.204   2.890  51.711  1.00  0.00     0.032 C 
HETATM    3  C3  UNL     1      22.921   4.298  52.084  1.00  0.00     0.059 C 
HETATM    4  C4  UNL     1      24.062   5.153  51.534  1.00  0.00     0.008 C 
HETATM    5  C5  UNL     1      24.030   5.003  50.015  1.00  0.00     0.020 C 
HETATM    6  C6  UNL     1      24.578   3.611  49.746  1.00  0.00     0.123 C 
HETATM    7  N2  UNL     1      24.419   2.813  50.974  1.00  0.00    -0.382 N 
HETATM    8  C7  UNL     1      25.485   1.932  51.463  1.00  0.00     0.125 C 
HETATM    9  C8  UNL     1      25.345   1.731  52.958  1.00  0.00     0.046 C 
HETATM   10  C9  UNL     1      26.300   0.725  53.496  1.00  0.00     0.169 C 
HETATM   11  O1  UNL     1      26.029   0.222  54.721  1.00  0.00    -0.388 OA
HETATM   12  C10 UNL     1      25.093  -0.728  54.898  1.00  0.00     0.205 C 
HETATM   13  C11 UNL     1      23.732  -0.388  54.385  1.00  0.00     0.185 C 
HETATM   14  C12 UNL     1      22.707  -1.362  54.990  1.00  0.00     0.124 C 
HETATM   15  N3  UNL     1      21.396  -1.249  54.903  1.00  0.00    -0.256 NA
HETATM   16  C13 UNL     1      20.536  -0.189  54.413  1.00  0.00     0.227 C 
HETATM   17  N4  UNL     1      20.800   0.659  53.475  1.00  0.00    -0.263 NA
HETATM   18  C14 UNL     1      21.658   0.681  52.292  1.00  0.00     0.122 C 
HETATM   19  C20 UNL     1      22.551  -0.527  52.348  1.00  0.00     0.208 C 
HETATM   20  O2  UNL     1      23.696  -0.454  53.030  1.00  0.00    -0.376 OA
ENDROOT
BRANCH  18  21
HETATM   21  C15 UNL     1      20.631   0.449  51.149  1.00  0.00     0.069 C 
BRANCH  21  22
HETATM   22  C16 UNL     1      21.408   0.618  49.890  1.00  0.00    -0.028 C 
HETATM   23  C17 UNL     1      21.084   1.596  49.025  1.00  0.00    -0.029 C 
BRANCH  23  24
HETATM   24  C18 UNL     1      21.547   2.109  47.725  1.00  0.00     0.042 C 
BRANCH  24  25
HETATM   25  C19 UNL     1      21.448   3.618  47.633  1.00  0.00     0.118 C 
HETATM   26 CL1  UNL     1      20.674   4.270  49.079  1.00  0.00    -0.130 Cl
ENDBRANCH  24  25
ENDBRANCH  23  24
ENDBRANCH  21  22
ENDBRANCH  18  21
BRANCH   1  27
HETATM   27  N1  UNL     1      21.519   2.971  52.711  1.00  0.00    -0.399 N 
HETATM   28  H1  UNL     1      21.717   3.406  53.619  1.00  0.00     0.156 HD
HETATM   29  H2  UNL     1      20.885   3.695  53.118  1.00  0.00     0.156 HD
ENDBRANCH   1  27
TORSDOF 5
ENDMDL
MODEL 4
REMARK VINA RESULT:      -6.9      3.244      5.523
REMARK  5 active torsions:
REMARK  status: ('A' for Active; 'I' for Inactive)
REMARK    1  A    between atoms: N1_1  and  C1_2 
REMARK    2  A    between atoms: C14_19  and  C15_20 
REMARK    3  A    between atoms: C15_20  and  C16_21 
REMARK    4  A    between atoms: C17_22  and  C18_23 
REMARK    5  A    between atoms: C18_23  and  C19_24 
ROOT
HETATM    1  C1  UNL     1      22.760   1.746  52.267  1.00  0.00     0.058 C 
HETATM    2  C2  UNL     1      23.436   2.765  51.777  1.00  0.00     0.032 C 
HETATM    3  C3  UNL     1      22.949   4.135  52.071  1.00  0.00     0.059 C 
HETATM    4  C4  UNL     1      23.902   5.114  51.387  1.00  0.00     0.008 C 
HETATM    5  C5  UNL     1      23.810   4.841  49.888  1.00  0.00     0.020 C 
HETATM    6  C6  UNL     1      24.562   3.537  49.678  1.00  0.00     0.123 C 
HETATM    7  N2  UNL     1      24.604   2.823  50.966  1.00  0.00    -0.382 N 
HETATM    8  C7  UNL     1      25.825   2.163  51.441  1.00  0.00     0.125 C 
HETATM    9  C8  UNL     1      25.804   2.061  52.952  1.00  0.00     0.046 C 
HETATM   10  C9  UNL     1      26.939   1.265  53.492  1.00  0.00     0.169 C 
HETATM   11  O1  UNL     1      26.822   0.823  54.763  1.00  0.00    -0.388 OA
HETATM   12  C10 UNL     1      26.065  -0.246  55.069  1.00  0.00     0.205 C 
HETATM   13  C11 UNL     1      24.641  -0.167  54.628  1.00  0.00     0.185 C 
HETATM   14  C12 UNL     1      23.824  -1.241  55.366  1.00  0.00     0.124 C 
HETATM   15  N3  UNL     1      22.509  -1.344  55.362  1.00  0.00    -0.256 NA
HETATM   16  C13 UNL     1      21.461  -0.476  54.860  1.00  0.00     0.227 C 
HETATM   17  N4  UNL     1      21.531   0.328  53.849  1.00  0.00    -0.263 NA
HETATM   18  C14 UNL     1      22.305   0.392  52.612  1.00  0.00     0.122 C 
HETATM   19  C20 UNL     1      23.385  -0.651  52.690  1.00  0.00     0.208 C 
HETATM   20  O2  UNL     1      24.540  -0.345  53.286  1.00  0.00    -0.376 OA
ENDROOT
BRANCH  18  21
HETATM   21  C15 UNL     1      21.268  -0.089  51.560  1.00  0.00     0.069 C 
BRANCH  21  22
HETATM   22  C16 UNL     1      19.951   0.383  52.070  1.00  0.00    -0.028 C 
HETATM   23  C17 UNL     1      18.817  -0.207  51.653  1.00  0.00    -0.029 C 
BRANCH  23  24
HETATM   24  C18 UNL     1      17.367  -0.079  51.875  1.00  0.00     0.042 C 
BRANCH  24  25
HETATM   25  C19 UNL     1      16.758  -1.344  52.446  1.00  0.00     0.118 C 
HETATM   26 CL1  UNL     1      17.861  -2.082  53.610  1.00  0.00    -0.130 Cl
ENDBRANCH  24  25
ENDBRANCH  23  24
ENDBRANCH  21  22
ENDBRANCH  18  21
BRANCH   1  27
HETATM   27  N1  UNL     1      21.820   2.656  52.882  1.00  0.00    -0.399 N 
HETATM   28  H1  UNL     1      21.890   3.011  53.842  1.00  0.00     0.156 HD
HETATM   29  H2  UNL     1      21.107   3.314  53.272  1.00  0.00     0.156 HD
ENDBRANCH   1  27
TORSDOF 5
ENDMDL
MODEL 5
REMARK VINA RESULT:      -6.9      2.652      5.145
REMARK  5 active torsions:
REMARK  status: ('A' for Active; 'I' for Inactive)
REMARK    1  A    between atoms: N1_1  and  C1_2 
REMARK    2  A    between atoms: C14_19  and  C15_20 
REMARK    3  A    between atoms: C15_20  and  C16_21 
REMARK    4  A    between atoms: C17_22  and  C18_23 
REMARK    5  A    between atoms: C18_23  and  C19_24 
ROOT
HETATM    1  C1  UNL     1      22.917   2.652  50.840  1.00  0.00     0.058 C 
HETATM    2  C2  UNL     1      21.713   2.117  50.823  1.00  0.00     0.032 C 
HETATM    3  C3  UNL     1      21.204   1.578  49.538  1.00  0.00     0.059 C 
HETATM    4  C4  UNL     1      19.801   1.028  49.798  1.00  0.00     0.008 C 
HETATM    5  C5  UNL     1      18.943   2.209  50.242  1.00  0.00     0.020 C 
HETATM    6  C6  UNL     1      19.387   2.507  51.665  1.00  0.00     0.123 C 
HETATM    7  N2  UNL     1      20.738   1.948  51.846  1.00  0.00    -0.382 N 
HETATM    8  C7  UNL     1      21.113   1.217  53.062  1.00  0.00     0.125 C 
HETATM    9  C8  UNL     1      22.254   0.266  52.764  1.00  0.00     0.046 C 
HETATM   10  C9  UNL     1      22.787  -0.395  53.985  1.00  0.00     0.169 C 
HETATM   11  O1  UNL     1      24.004  -0.974  53.881  1.00  0.00    -0.388 OA
HETATM   12  C10 UNL     1      25.134  -0.245  53.911  1.00  0.00     0.205 C 
HETATM   13  C11 UNL     1      25.215   0.849  52.897  1.00  0.00     0.185 C 
HETATM   14  C12 UNL     1      26.673   1.326  52.785  1.00  0.00     0.124 C 
HETATM   15  N3  UNL     1      27.145   2.147  51.867  1.00  0.00    -0.256 NA
HETATM   16  C13 UNL     1      26.565   2.698  50.658  1.00  0.00     0.227 C 
HETATM   17  N4  UNL     1      25.319   2.965  50.441  1.00  0.00    -0.263 NA
HETATM   18  C14 UNL     1      24.161   3.308  51.263  1.00  0.00     0.122 C 
HETATM   19  C20 UNL     1      24.542   3.102  52.703  1.00  0.00     0.208 C 
HETATM   20  O2  UNL     1      24.410   1.886  53.239  1.00  0.00    -0.376 OA
ENDROOT
BRANCH  18  21
HETATM   21  C15 UNL     1      24.045   4.840  51.028  1.00  0.00     0.069 C 
BRANCH  21  22
HETATM   22  C16 UNL     1      24.624   5.069  49.676  1.00  0.00    -0.028 C 
HETATM   23  C17 UNL     1      25.318   6.194  49.423  1.00  0.00    -0.029 C 
BRANCH  23  24
HETATM   24  C18 UNL     1      26.031   6.813  48.294  1.00  0.00     0.042 C 
BRANCH  24  25
HETATM   25  C19 UNL     1      27.536   6.756  48.463  1.00  0.00     0.118 C 
HETATM   26 CL1  UNL     1      28.089   5.080  48.459  1.00  0.00    -0.130 Cl
ENDBRANCH  24  25
ENDBRANCH  23  24
ENDBRANCH  21  22
ENDBRANCH  18  21
BRANCH   1  27
HETATM   27  N1  UNL     1      23.067   2.376  49.428  1.00  0.00    -0.399 N 
HETATM   28  H1  UNL     1      22.315   2.045  48.813  1.00  0.00     0.156 HD
HETATM   29  H2  UNL     1      23.236   2.192  48.413  1.00  0.00     0.156 HD
ENDBRANCH   1  27
TORSDOF 5
ENDMDL
MODEL 6
REMARK VINA RESULT:      -6.6      2.230      5.099
REMARK  5 active torsions:
REMARK  status: ('A' for Active; 'I' for Inactive)
REMARK    1  A    between atoms: N1_1  and  C1_2 
REMARK    2  A    between atoms: C14_19  and  C15_20 
REMARK    3  A    between atoms: C15_20  and  C16_21 
REMARK    4  A    between atoms: C17_22  and  C18_23 
REMARK    5  A    between atoms: C18_23  and  C19_24 
ROOT
HETATM    1  C1  UNL     1      23.114   3.067  50.469  1.00  0.00     0.058 C 
HETATM    2  C2  UNL     1      21.887   2.724  50.135  1.00  0.00     0.032 C 
HETATM    3  C3  UNL     1      21.620   2.373  48.718  1.00  0.00     0.059 C 
HETATM    4  C4  UNL     1      20.136   2.024  48.608  1.00  0.00     0.008 C 
HETATM    5  C5  UNL     1      19.359   3.282  48.986  1.00  0.00     0.020 C 
HETATM    6  C6  UNL     1      19.502   3.394  50.496  1.00  0.00     0.123 C 
HETATM    7  N2  UNL     1      20.691   2.624  50.899  1.00  0.00    -0.382 N 
HETATM    8  C7  UNL     1      20.679   1.750  52.077  1.00  0.00     0.125 C 
HETATM    9  C8  UNL     1      21.724   0.663  51.927  1.00  0.00     0.046 C 
HETATM   10  C9  UNL     1      21.873  -0.167  53.153  1.00  0.00     0.169 C 
HETATM   11  O1  UNL     1      22.995  -0.914  53.249  1.00  0.00    -0.388 OA
HETATM   12  C10 UNL     1      24.173  -0.369  53.602  1.00  0.00     0.205 C 
HETATM   13  C11 UNL     1      24.626   0.776  52.758  1.00  0.00     0.185 C 
HETATM   14  C12 UNL     1      26.120   1.034  53.016  1.00  0.00     0.124 C 
HETATM   15  N3  UNL     1      26.892   1.844  52.318  1.00  0.00    -0.256 NA
HETATM   16  C13 UNL     1      26.681   2.572  51.082  1.00  0.00     0.227 C 
HETATM   17  N4  UNL     1      25.564   3.042  50.634  1.00  0.00    -0.263 NA
HETATM   18  C14 UNL     1      24.304   3.490  51.221  1.00  0.00     0.122 C 
HETATM   19  C20 UNL     1      24.315   3.114  52.677  1.00  0.00     0.208 C 
HETATM   20  O2  UNL     1      23.906   1.893  53.033  1.00  0.00    -0.376 OA
ENDROOT
BRANCH  18  21
HETATM   21  C15 UNL     1      24.445   5.035  51.139  1.00  0.00     0.069 C 
BRANCH  21  22
HETATM   22  C16 UNL     1      23.102   5.567  51.499  1.00  0.00    -0.028 C 
HETATM   23  C17 UNL     1      22.557   6.564  50.779  1.00  0.00    -0.029 C 
BRANCH  23  24
HETATM   24  C18 UNL     1      21.321   7.363  50.769  1.00  0.00     0.042 C 
BRANCH  24  25
HETATM   25  C19 UNL     1      20.417   7.013  49.605  1.00  0.00     0.118 C 
HETATM   26 CL1  UNL     1      21.332   6.170  48.352  1.00  0.00    -0.130 Cl
ENDBRANCH  24  25
ENDBRANCH  23  24
ENDBRANCH  21  22
ENDBRANCH  18  21
BRANCH   1  27
HETATM   27  N1  UNL     1      23.546   2.884  49.101  1.00  0.00    -0.399 N 
HETATM   28  H1  UNL     1      23.148   2.201  48.448  1.00  0.00     0.156 HD
HETATM   29  H2  UNL     1      23.901   2.798  48.122  1.00  0.00     0.156 HD
ENDBRANCH   1  27
TORSDOF 5
ENDMDL
MODEL 7
REMARK VINA RESULT:      -6.6     10.743     13.168
REMARK  5 active torsions:
REMARK  status: ('A' for Active; 'I' for Inactive)
REMARK    1  A    between atoms: N1_1  and  C1_2 
REMARK    2  A    between atoms: C14_19  and  C15_20 
REMARK    3  A    between atoms: C15_20  and  C16_21 
REMARK    4  A    between atoms: C17_22  and  C18_23 
REMARK    5  A    between atoms: C18_23  and  C19_24 
ROOT
HETATM    1  C1  UNL     1      32.938   7.280  47.237  1.00  0.00     0.058 C 
HETATM    2  C2  UNL     1      32.755   8.493  46.758  1.00  0.00     0.032 C 
HETATM    3  C3  UNL     1      33.489   9.615  47.392  1.00  0.00     0.059 C 
HETATM    4  C4  UNL     1      33.094  10.894  46.653  1.00  0.00     0.008 C 
HETATM    5  C5  UNL     1      31.592  11.074  46.860  1.00  0.00     0.020 C 
HETATM    6  C6  UNL     1      30.943  10.030  45.965  1.00  0.00     0.123 C 
HETATM    7  N2  UNL     1      31.939   8.978  45.697  1.00  0.00    -0.382 N 
HETATM    8  C7  UNL     1      32.116   8.409  44.356  1.00  0.00     0.125 C 
HETATM    9  C8  UNL     1      33.518   7.855  44.209  1.00  0.00     0.046 C 
HETATM   10  C9  UNL     1      33.718   7.125  42.928  1.00  0.00     0.169 C 
HETATM   11  O1  UNL     1      34.792   6.308  42.855  1.00  0.00    -0.388 OA
HETATM   12  C10 UNL     1      34.789   5.091  43.426  1.00  0.00     0.205 C 
HETATM   13  C11 UNL     1      34.474   5.070  44.886  1.00  0.00     0.185 C 
HETATM   14  C12 UNL     1      34.883   3.709  45.471  1.00  0.00     0.124 C 
HETATM   15  N3  UNL     1      34.920   3.403  46.754  1.00  0.00    -0.256 NA
HETATM   16  C13 UNL     1      34.773   4.204  47.954  1.00  0.00     0.227 C 
HETATM   17  N4  UNL     1      34.062   5.274  48.097  1.00  0.00    -0.263 NA
HETATM   18  C14 UNL     1      32.867   5.831  47.468  1.00  0.00     0.122 C 
HETATM   19  C20 UNL     1      32.554   4.998  46.255  1.00  0.00     0.208 C 
HETATM   20  O2  UNL     1      33.152   5.291  45.098  1.00  0.00    -0.376 OA
ENDROOT
BRANCH  18  21
HETATM   21  C15 UNL     1      31.776   5.530  48.533  1.00  0.00     0.069 C 
BRANCH  21  22
HETATM   22  C16 UNL     1      30.480   5.723  47.826  1.00  0.00    -0.028 C 
HETATM   23  C17 UNL     1      29.326   5.689  48.515  1.00  0.00    -0.029 C 
BRANCH  23  24
HETATM   24  C18 UNL     1      27.884   5.821  48.249  1.00  0.00     0.042 C 
BRANCH  24  25
HETATM   25  C19 UNL     1      27.070   4.740  48.931  1.00  0.00     0.118 C 
HETATM   26 CL1  UNL     1      25.368   5.202  48.990  1.00  0.00    -0.130 Cl
ENDBRANCH  24  25
ENDBRANCH  23  24
ENDBRANCH  21  22
ENDBRANCH  18  21
BRANCH   1  27
HETATM   27  N1  UNL     1      33.857   7.801  48.224  1.00  0.00    -0.399 N 
HETATM   28  H1  UNL     1      33.703   8.652  48.776  1.00  0.00     0.156 HD
HETATM   29  H2  UNL     1      34.560   8.130  48.924  1.00  0.00     0.156 HD
ENDBRANCH   1  27
TORSDOF 5
ENDMDL
MODEL 8
REMARK VINA RESULT:      -6.6      3.421      6.575
REMARK  5 active torsions:
REMARK  status: ('A' for Active; 'I' for Inactive)
REMARK    1  A    between atoms: N1_1  and  C1_2 
REMARK    2  A    between atoms: C14_19  and  C15_20 
REMARK    3  A    between atoms: C15_20  and  C16_21 
REMARK    4  A    between atoms: C17_22  and  C18_23 
REMARK    5  A    between atoms: C18_23  and  C19_24 
ROOT
HETATM    1  C1  UNL     1      22.130   3.369  51.268  1.00  0.00     0.058 C 
HETATM    2  C2  UNL     1      21.011   2.681  51.166  1.00  0.00     0.032 C 
HETATM    3  C3  UNL     1      19.876   3.056  52.045  1.00  0.00     0.059 C 
HETATM    4  C4  UNL     1      18.722   2.106  51.727  1.00  0.00     0.008 C 
HETATM    5  C5  UNL     1      19.203   0.699  52.073  1.00  0.00     0.020 C 
HETATM    6  C6  UNL     1      20.173   0.331  50.962  1.00  0.00     0.123 C 
HETATM    7  N2  UNL     1      20.650   1.579  50.342  1.00  0.00    -0.382 N 
HETATM    8  C7  UNL     1      20.768   1.719  48.887  1.00  0.00     0.125 C 
HETATM    9  C8  UNL     1      20.672   3.181  48.498  1.00  0.00     0.046 C 
HETATM   10  C9  UNL     1      20.938   3.411  47.052  1.00  0.00     0.169 C 
HETATM   11  O1  UNL     1      21.222   4.679  46.681  1.00  0.00    -0.388 OA
HETATM   12  C10 UNL     1      22.440   5.213  46.881  1.00  0.00     0.205 C 
HETATM   13  C11 UNL     1      22.929   5.179  48.292  1.00  0.00     0.185 C 
HETATM   14  C12 UNL     1      24.115   6.146  48.439  1.00  0.00     0.124 C 
HETATM   15  N3  UNL     1      24.676   6.507  49.577  1.00  0.00    -0.256 NA
HETATM   16  C13 UNL     1      24.308   6.286  50.962  1.00  0.00     0.227 C 
HETATM   17  N4  UNL     1      23.672   5.272  51.448  1.00  0.00    -0.263 NA
HETATM   18  C14 UNL     1      23.500   3.868  51.082  1.00  0.00     0.122 C 
HETATM   19  C20 UNL     1      24.074   3.677  49.705  1.00  0.00     0.208 C 
HETATM   20  O2  UNL     1      23.304   3.923  48.643  1.00  0.00    -0.376 OA
ENDROOT
BRANCH  18  21
HETATM   21  C15 UNL     1      24.450   3.157  52.085  1.00  0.00     0.069 C 
BRANCH  21  22
HETATM   22  C16 UNL     1      24.111   1.711  51.982  1.00  0.00    -0.028 C 
HETATM   23  C17 UNL     1      24.248   0.909  53.053  1.00  0.00    -0.029 C 
BRANCH  23  24
HETATM   24  C18 UNL     1      24.046  -0.508  53.396  1.00  0.00     0.042 C 
BRANCH  24  25
HETATM   25  C19 UNL     1      22.592  -0.923  53.297  1.00  0.00     0.118 C 
HETATM   26 CL1  UNL     1      21.845  -0.918  54.896  1.00  0.00    -0.130 Cl
ENDBRANCH  24  25
ENDBRANCH  23  24
ENDBRANCH  21  22
ENDBRANCH  18  21
BRANCH   1  27
HETATM   27  N1  UNL     1      21.539   4.191  52.301  1.00  0.00    -0.399 N 
HETATM   28  H1  UNL     1      21.320   5.189  52.203  1.00  0.00     0.156 HD
HETATM   29  H2  UNL     1      21.112   4.734  53.085  1.00  0.00     0.156 HD
ENDBRANCH   1  27
TORSDOF 5
ENDMDL
MODEL 9
REMARK VINA RESULT:      -6.5      9.854     12.328
REMARK  5 active torsions:
REMARK  status: ('A' for Active; 'I' for Inactive)
REMARK    1  A    between atoms: N1_1  and  C1_2 
REMARK    2  A    between atoms: C14_19  and  C15_20 
REMARK    3  A    between atoms: C15_20  and  C16_21 
REMARK    4  A    between atoms: C17_22  and  C18_23 
REMARK    5  A    between atoms: C18_23  and  C19_24 
ROOT
HETATM    1  C1  UNL     1      30.738   8.213  48.380  1.00  0.00     0.058 C 
HETATM    2  C2  UNL     1      30.381   9.478  48.297  1.00  0.00     0.032 C 
HETATM    3  C3  UNL     1      30.553  10.335  49.495  1.00  0.00     0.059 C 
HETATM    4  C4  UNL     1      30.061  11.735  49.129  1.00  0.00     0.008 C 
HETATM    5  C5  UNL     1      28.578  11.605  48.792  1.00  0.00     0.020 C 
HETATM    6  C6  UNL     1      28.541  10.937  47.427  1.00  0.00     0.123 C 
HETATM    7  N2  UNL     1      29.821  10.234  47.229  1.00  0.00    -0.382 N 
HETATM    8  C7  UNL     1      30.540  10.290  45.952  1.00  0.00     0.125 C 
HETATM    9  C8  UNL     1      32.018  10.044  46.179  1.00  0.00     0.046 C 
HETATM   10  C9  UNL     1      32.785   9.933  44.909  1.00  0.00     0.169 C 
HETATM   11  O1  UNL     1      34.013   9.375  44.987  1.00  0.00    -0.388 OA
HETATM   12  C10 UNL     1      34.174   8.042  45.077  1.00  0.00     0.205 C 
HETATM   13  C11 UNL     1      33.455   7.387  46.210  1.00  0.00     0.185 C 
HETATM   14  C12 UNL     1      34.028   5.976  46.423  1.00  0.00     0.124 C 
HETATM   15  N3  UNL     1      33.760   5.183  47.443  1.00  0.00    -0.256 NA
HETATM   16  C13 UNL     1      33.046   5.398  48.687  1.00  0.00     0.227 C 
HETATM   17  N4  UNL     1      32.060   6.208  48.891  1.00  0.00    -0.263 NA
HETATM   18  C14 UNL     1      31.003   6.800  48.074  1.00  0.00     0.122 C 
HETATM   19  C20 UNL     1      31.310   6.498  46.634  1.00  0.00     0.208 C 
HETATM   20  O2  UNL     1      32.122   7.316  45.960  1.00  0.00    -0.376 OA
ENDROOT
BRANCH  18  21
HETATM   21  C15 UNL     1      29.771   5.944  48.477  1.00  0.00     0.069 C 
BRANCH  21  22
HETATM   22  C16 UNL     1      28.622   6.554  47.753  1.00  0.00    -0.028 C 
HETATM   23  C17 UNL     1      27.449   6.738  48.385  1.00  0.00    -0.029 C 
BRANCH  23  24
HETATM   24  C18 UNL     1      26.111   7.274  48.082  1.00  0.00     0.042 C 
BRANCH  24  25
HETATM   25  C19 UNL     1      25.596   8.188  49.176  1.00  0.00     0.118 C 
HETATM   26 CL1  UNL     1      26.932   8.749  50.184  1.00  0.00    -0.130 Cl
ENDBRANCH  24  25
ENDBRANCH  23  24
ENDBRANCH  21  22
ENDBRANCH  18  21
BRANCH   1  27
HETATM   27  N1  UNL     1      31.139   8.410  49.756  1.00  0.00    -0.399 N 
HETATM   28  H1  UNL     1      30.493   8.562  50.538  1.00  0.00     0.156 HD
HETATM   29  H2  UNL     1      31.489   8.547  50.731  1.00  0.00     0.156 HD
ENDBRANCH   1  27
TORSDOF 5
ENDMDL
