MODEL 1
REMARK VINA RESULT:      -8.4      0.000      0.000
REMARK  5 active torsions:
REMARK  status: ('A' for Active; 'I' for Inactive)
REMARK       I    between atoms: C3_3  and  N1_5 
REMARK    1  A    between atoms: N1_5  and  C4_6 
REMARK    2  A    between atoms: C6_8  and  N2_9 
REMARK    3  A    between atoms: N2_9  and  C7_10 
REMARK    4  A    between atoms: C14_20  and  O2_21 
REMARK    5  A    between atoms: C19_26  and  N6_27 
ROOT
HETATM    1  C1  UNL     1      29.764  -0.550  53.827  1.00  0.00     0.037 C 
HETATM    2  C2  UNL     1      29.046   0.541  53.666  1.00  0.00     0.048 C 
HETATM    3  C3  UNL     1      28.158   1.677  53.319  1.00  0.00     0.241 C 
HETATM    4  O1  UNL     1      27.994   2.784  53.901  1.00  0.00    -0.269 OA
HETATM    5  N1  UNL     1      27.350   1.518  52.148  1.00  0.00    -0.325 N 
HETATM    6  H4  UNL     1      27.470   0.571  51.676  1.00  0.00     0.169 HD
ENDROOT
BRANCH   5   7
HETATM    7  C4  UNL     1      26.412   2.393  51.544  1.00  0.00     0.060 A 
HETATM    8  C5  UNL     1      26.753   3.209  50.533  1.00  0.00     0.061 A 
HETATM    9  C6  UNL     1      25.589   4.017  50.092  1.00  0.00     0.083 A 
HETATM   10  C14 UNL     1      24.582   3.618  50.890  1.00  0.00     0.118 A 
HETATM   11  C16 UNL     1      24.995   2.538  51.861  1.00  0.00     0.254 A 
HETATM   12  C17 UNL     1      24.611   2.844  53.249  1.00  0.00     0.060 C 
HETATM   13  N7  UNL     1      24.217   1.358  51.523  1.00  0.00     0.140 N 
HETATM   14  C18 UNL     1      23.152   2.378  53.295  1.00  0.00     0.072 C 
HETATM   15  C19 UNL     1      22.883   1.753  51.967  1.00  0.00     0.457 C 
HETATM   16  C22 UNL     1      24.587   0.206  52.284  1.00  0.00     0.315 C 
BRANCH   9  17
HETATM   17  N2  UNL     1      25.566   4.985  49.047  1.00  0.00    -0.184 N 
HETATM   18  H6  UNL     1      24.995   4.737  48.217  1.00  0.00     0.184 HD
BRANCH  17  19
HETATM   19  C7  UNL     1      26.294   6.193  49.182  1.00  0.00     0.744 A 
HETATM   20  N3  UNL     1      25.777   7.194  49.960  1.00  0.00    -0.071 NA
HETATM   21  C8  UNL     1      26.511   8.323  50.062  1.00  0.00     0.168 A 
HETATM   22  C9  UNL     1      27.725   8.409  49.387  1.00  0.00     0.077 A 
HETATM   23  C10 UNL     1      28.544   9.503  49.429  1.00  0.00     0.035 A 
HETATM   24  N4  UNL     1      28.204   7.431  48.644  1.00  0.00    -0.222 N 
HETATM   25  C11 UNL     1      29.616   9.103  48.615  1.00  0.00     0.029 A 
HETATM   26  C12 UNL     1      29.406   7.817  48.127  1.00  0.00     0.033 A 
HETATM   27  C13 UNL     1      30.299   7.005  47.226  1.00  0.00     0.070 C 
HETATM   28  N5  UNL     1      27.493   6.294  48.524  1.00  0.00     0.026 NA
ENDBRANCH  17  19
ENDBRANCH   9  17
BRANCH  10  29
HETATM   29  O2  UNL     1      23.346   4.253  50.681  1.00  0.00    -0.355 OA
HETATM   30  C15 UNL     1      22.979   5.463  51.351  1.00  0.00     0.209 C 
ENDBRANCH  10  29
BRANCH  15  31
HETATM   31  N6  UNL     1      22.146   0.497  52.087  1.00  0.00     0.113 N 
HETATM   32  C20 UNL     1      21.303   0.465  50.881  1.00  0.00     0.312 C 
HETATM   33  C21 UNL     1      21.275   0.479  53.232  1.00  0.00     0.312 C 
ENDBRANCH  15  31
ENDBRANCH   5   7
TORSDOF 5
ENDMDL
MODEL 2
REMARK VINA RESULT:      -8.1      2.505      6.797
REMARK  5 active torsions:
REMARK  status: ('A' for Active; 'I' for Inactive)
REMARK       I    between atoms: C3_3  and  N1_5 
REMARK    1  A    between atoms: N1_5  and  C4_6 
REMARK    2  A    between atoms: C6_8  and  N2_9 
REMARK    3  A    between atoms: N2_9  and  C7_10 
REMARK    4  A    between atoms: C14_20  and  O2_21 
REMARK    5  A    between atoms: C19_26  and  N6_27 
ROOT
HETATM    1  C1  UNL     1      26.123   7.204  48.280  1.00  0.00     0.037 C 
HETATM    2  C2  UNL     1      26.104   5.971  48.740  1.00  0.00     0.048 C 
HETATM    3  C3  UNL     1      25.895   4.626  49.330  1.00  0.00     0.241 C 
HETATM    4  O1  UNL     1      26.652   3.618  49.335  1.00  0.00    -0.269 OA
HETATM    5  N1  UNL     1      24.649   4.414  50.002  1.00  0.00    -0.325 N 
HETATM    6  H4  UNL     1      24.001   5.258  49.970  1.00  0.00     0.169 HD
ENDROOT
BRANCH   5   7
HETATM    7  C4  UNL     1      24.138   3.270  50.665  1.00  0.00     0.060 A 
HETATM    8  C5  UNL     1      24.803   2.677  51.671  1.00  0.00     0.061 A 
HETATM    9  C6  UNL     1      24.051   1.504  52.182  1.00  0.00     0.083 A 
HETATM   10  C14 UNL     1      22.938   1.466  51.429  1.00  0.00     0.118 A 
HETATM   11  C16 UNL     1      22.870   2.589  50.422  1.00  0.00     0.254 A 
HETATM   12  C17 UNL     1      22.575   2.114  49.060  1.00  0.00     0.060 C 
HETATM   13  N7  UNL     1      21.717   3.398  50.780  1.00  0.00     0.140 N 
HETATM   14  C18 UNL     1      21.048   1.992  49.080  1.00  0.00     0.072 C 
HETATM   15  C19 UNL     1      20.616   2.514  50.410  1.00  0.00     0.457 C 
HETATM   16  C22 UNL     1      21.592   4.578  49.984  1.00  0.00     0.315 C 
BRANCH   9  17
HETATM   17  N2  UNL     1      24.440   0.635  53.241  1.00  0.00    -0.184 N 
HETATM   18  H6  UNL     1      23.741   0.507  53.997  1.00  0.00     0.184 HD
BRANCH  17  19
HETATM   19  C7  UNL     1      25.710   0.008  53.217  1.00  0.00     0.744 A 
HETATM   20  N3  UNL     1      25.808  -1.273  52.745  1.00  0.00    -0.071 NA
HETATM   21  C8  UNL     1      27.041  -1.823  52.736  1.00  0.00     0.168 A 
HETATM   22  C9  UNL     1      28.123  -1.079  53.197  1.00  0.00     0.077 A 
HETATM   23  C10 UNL     1      29.409  -1.541  53.225  1.00  0.00     0.035 A 
HETATM   24  N4  UNL     1      28.005   0.155  53.646  1.00  0.00    -0.222 N 
HETATM   25  C11 UNL     1      30.108  -0.442  53.751  1.00  0.00     0.029 A 
HETATM   26  C12 UNL     1      29.237   0.611  54.013  1.00  0.00     0.033 A 
HETATM   27  C13 UNL     1      29.562   1.971  54.576  1.00  0.00     0.070 C 
HETATM   28  N5  UNL     1      26.788   0.729  53.667  1.00  0.00     0.026 NA
ENDBRANCH  17  19
ENDBRANCH   9  17
BRANCH  10  29
HETATM   29  O2  UNL     1      22.045   0.418  51.709  1.00  0.00    -0.355 OA
HETATM   30  C15 UNL     1      21.211   0.406  52.871  1.00  0.00     0.209 C 
ENDBRANCH  10  29
BRANCH  15  31
HETATM   31  N6  UNL     1      19.454   3.392  50.307  1.00  0.00     0.113 N 
HETATM   32  C20 UNL     1      18.711   3.144  51.553  1.00  0.00     0.312 C 
HETATM   33  C21 UNL     1      18.596   3.041  49.207  1.00  0.00     0.312 C 
ENDBRANCH  15  31
ENDBRANCH   5   7
TORSDOF 5
ENDMDL
MODEL 3
REMARK VINA RESULT:      -7.8      1.781      2.071
REMARK  5 active torsions:
REMARK  status: ('A' for Active; 'I' for Inactive)
REMARK       I    between atoms: C3_3  and  N1_5 
REMARK    1  A    between atoms: N1_5  and  C4_6 
REMARK    2  A    between atoms: C6_8  and  N2_9 
REMARK    3  A    between atoms: N2_9  and  C7_10 
REMARK    4  A    between atoms: C14_20  and  O2_21 
REMARK    5  A    between atoms: C19_26  and  N6_27 
ROOT
HETATM    1  C1  UNL     1      27.310  -1.222  52.789  1.00  0.00     0.037 C 
HETATM    2  C2  UNL     1      27.290   0.073  52.552  1.00  0.00     0.048 C 
HETATM    3  C3  UNL     1      27.105   1.492  52.165  1.00  0.00     0.241 C 
HETATM    4  O1  UNL     1      27.749   2.518  52.517  1.00  0.00    -0.269 OA
HETATM    5  N1  UNL     1      26.039   1.768  51.250  1.00  0.00    -0.325 N 
HETATM    6  H4  UNL     1      25.481   0.904  50.978  1.00  0.00     0.169 HD
ENDROOT
BRANCH   5   7
HETATM    7  C4  UNL     1      25.598   2.991  50.683  1.00  0.00     0.060 A 
HETATM    8  C5  UNL     1      26.302   3.625  49.732  1.00  0.00     0.061 A 
HETATM    9  C6  UNL     1      25.621   4.878  49.318  1.00  0.00     0.083 A 
HETATM   10  C14 UNL     1      24.507   4.917  50.071  1.00  0.00     0.118 A 
HETATM   11  C16 UNL     1      24.369   3.720  50.981  1.00  0.00     0.254 A 
HETATM   12  C17 UNL     1      24.094   4.096  52.376  1.00  0.00     0.060 C 
HETATM   13  N7  UNL     1      23.174   3.011  50.554  1.00  0.00     0.140 N 
HETATM   14  C18 UNL     1      22.576   4.306  52.365  1.00  0.00     0.072 C 
HETATM   15  C19 UNL     1      22.123   3.923  50.995  1.00  0.00     0.457 C 
HETATM   16  C22 UNL     1      22.977   1.778  51.249  1.00  0.00     0.315 C 
BRANCH   9  17
HETATM   17  N2  UNL     1      26.065   5.808  48.335  1.00  0.00    -0.184 N 
HETATM   18  H6  UNL     1      25.472   5.883  47.487  1.00  0.00     0.184 HD
BRANCH  17  19
HETATM   19  C7  UNL     1      27.247   6.559  48.550  1.00  0.00     0.744 A 
HETATM   20  N3  UNL     1      27.143   7.826  49.060  1.00  0.00    -0.071 NA
HETATM   21  C8  UNL     1      28.299   8.498  49.253  1.00  0.00     0.168 A 
HETATM   22  C9  UNL     1      29.505   7.885  48.931  1.00  0.00     0.077 A 
HETATM   23  C10 UNL     1      30.727   8.476  49.092  1.00  0.00     0.035 A 
HETATM   24  N4  UNL     1      29.581   6.663  48.441  1.00  0.00    -0.222 N 
HETATM   25  C11 UNL     1      31.603   7.475  48.643  1.00  0.00     0.029 A 
HETATM   26  C12 UNL     1      30.893   6.349  48.239  1.00  0.00     0.033 A 
HETATM   27  C13 UNL     1      31.434   5.051  47.697  1.00  0.00     0.070 C 
HETATM   28  N5  UNL     1      28.446   5.969  48.239  1.00  0.00     0.026 NA
ENDBRANCH  17  19
ENDBRANCH   9  17
BRANCH  10  29
HETATM   29  O2  UNL     1      23.676   6.034  49.877  1.00  0.00    -0.355 OA
HETATM   30  C15 UNL     1      23.820   7.241  50.631  1.00  0.00     0.209 C 
ENDBRANCH  10  29
BRANCH  15  31
HETATM   31  N6  UNL     1      20.912   3.106  51.023  1.00  0.00     0.113 N 
HETATM   32  C20 UNL     1      20.240   3.426  49.753  1.00  0.00     0.312 C 
HETATM   33  C21 UNL     1      20.025   3.475  52.094  1.00  0.00     0.312 C 
ENDBRANCH  15  31
ENDBRANCH   5   7
TORSDOF 5
ENDMDL
MODEL 4
REMARK VINA RESULT:      -7.7      2.817      8.301
REMARK  5 active torsions:
REMARK  status: ('A' for Active; 'I' for Inactive)
REMARK       I    between atoms: C3_3  and  N1_5 
REMARK    1  A    between atoms: N1_5  and  C4_6 
REMARK    2  A    between atoms: C6_8  and  N2_9 
REMARK    3  A    between atoms: N2_9  and  C7_10 
REMARK    4  A    between atoms: C14_20  and  O2_21 
REMARK    5  A    between atoms: C19_26  and  N6_27 
ROOT
HETATM    1  C1  UNL     1      26.781   6.806  48.759  1.00  0.00     0.037 C 
HETATM    2  C2  UNL     1      25.853   6.220  49.485  1.00  0.00     0.048 C 
HETATM    3  C3  UNL     1      24.874   5.383  50.219  1.00  0.00     0.241 C 
HETATM    4  O1  UNL     1      23.988   5.716  51.053  1.00  0.00    -0.269 OA
HETATM    5  N1  UNL     1      24.920   3.976  49.961  1.00  0.00    -0.325 N 
HETATM    6  H4  UNL     1      25.687   3.695  49.279  1.00  0.00     0.169 HD
ENDROOT
BRANCH   5   7
HETATM    7  C4  UNL     1      24.140   2.912  50.481  1.00  0.00     0.060 A 
HETATM    8  C5  UNL     1      23.044   2.461  49.848  1.00  0.00     0.061 A 
HETATM    9  C6  UNL     1      22.416   1.351  50.608  1.00  0.00     0.083 A 
HETATM   10  C14 UNL     1      23.204   1.195  51.686  1.00  0.00     0.118 A 
HETATM   11  C16 UNL     1      24.380   2.141  51.697  1.00  0.00     0.254 A 
HETATM   12  C17 UNL     1      24.518   2.862  52.973  1.00  0.00     0.060 C 
HETATM   13  N7  UNL     1      25.575   1.318  51.616  1.00  0.00     0.140 N 
HETATM   14  C18 UNL     1      25.278   1.852  53.839  1.00  0.00     0.072 C 
HETATM   15  C19 UNL     1      25.594   0.703  52.940  1.00  0.00     0.457 C 
HETATM   16  C22 UNL     1      26.775   2.083  51.494  1.00  0.00     0.315 C 
BRANCH   9  17
HETATM   17  N2  UNL     1      21.245   0.624  50.248  1.00  0.00    -0.184 N 
HETATM   18  H6  UNL     1      21.407  -0.266  49.741  1.00  0.00     0.184 HD
BRANCH  17  19
HETATM   19  C7  UNL     1      19.964   1.129  50.584  1.00  0.00     0.744 A 
HETATM   20  N3  UNL     1      19.687   2.447  50.340  1.00  0.00    -0.071 NA
HETATM   21  C8  UNL     1      18.451   2.877  50.672  1.00  0.00     0.168 A 
HETATM   22  C9  UNL     1      17.545   1.982  51.232  1.00  0.00     0.077 A 
HETATM   23  C10 UNL     1      16.271   2.316  51.598  1.00  0.00     0.035 A 
HETATM   24  N4  UNL     1      17.834   0.715  51.457  1.00  0.00    -0.222 N 
HETATM   25  C11 UNL     1      15.773   1.097  52.089  1.00  0.00     0.029 A 
HETATM   26  C12 UNL     1      16.743   0.103  52.002  1.00  0.00     0.033 A 
HETATM   27  C13 UNL     1      16.634  -1.343  52.410  1.00  0.00     0.070 C 
HETATM   28  N5  UNL     1      19.058   0.258  51.137  1.00  0.00     0.026 NA
ENDBRANCH  17  19
ENDBRANCH   9  17
BRANCH  10  29
HETATM   29  O2  UNL     1      22.812   0.194  52.591  1.00  0.00    -0.355 OA
HETATM   30  C15 UNL     1      21.886   0.436  53.654  1.00  0.00     0.209 C 
ENDBRANCH  10  29
BRANCH  15  31
HETATM   31  N6  UNL     1      26.965   0.230  53.110  1.00  0.00     0.113 N 
HETATM   32  C20 UNL     1      26.900  -1.191  52.735  1.00  0.00     0.312 C 
HETATM   33  C21 UNL     1      27.406   0.304  54.478  1.00  0.00     0.312 C 
ENDBRANCH  15  31
ENDBRANCH   5   7
TORSDOF 5
ENDMDL
MODEL 5
REMARK VINA RESULT:      -7.3      1.778      2.194
REMARK  5 active torsions:
REMARK  status: ('A' for Active; 'I' for Inactive)
REMARK       I    between atoms: C3_3  and  N1_5 
REMARK    1  A    between atoms: N1_5  and  C4_6 
REMARK    2  A    between atoms: C6_8  and  N2_9 
REMARK    3  A    between atoms: N2_9  and  C7_10 
REMARK    4  A    between atoms: C14_20  and  O2_21 
REMARK    5  A    between atoms: C19_26  and  N6_27 
ROOT
HETATM    1  C1  UNL     1      26.653  -1.152  52.733  1.00  0.00     0.037 C 
HETATM    2  C2  UNL     1      26.225   0.091  52.684  1.00  0.00     0.048 C 
HETATM    3  C3  UNL     1      25.658   1.442  52.448  1.00  0.00     0.241 C 
HETATM    4  O1  UNL     1      25.712   2.479  53.163  1.00  0.00    -0.269 OA
HETATM    5  N1  UNL     1      24.934   1.622  51.227  1.00  0.00    -0.325 N 
HETATM    6  H4  UNL     1      24.867   0.737  50.639  1.00  0.00     0.169 HD
ENDROOT
BRANCH   5   7
HETATM    7  C4  UNL     1      24.279   2.764  50.698  1.00  0.00     0.060 A 
HETATM    8  C5  UNL     1      24.890   3.598  49.842  1.00  0.00     0.061 A 
HETATM    9  C6  UNL     1      23.985   4.708  49.450  1.00  0.00     0.083 A 
HETATM   10  C14 UNL     1      22.843   4.458  50.115  1.00  0.00     0.118 A 
HETATM   11  C16 UNL     1      22.907   3.197  50.941  1.00  0.00     0.254 A 
HETATM   12  C17 UNL     1      22.470   3.405  52.331  1.00  0.00     0.060 C 
HETATM   13  N7  UNL     1      21.920   2.287  50.385  1.00  0.00     0.140 N 
HETATM   14  C18 UNL     1      20.945   3.294  52.215  1.00  0.00     0.072 C 
HETATM   15  C19 UNL     1      20.673   2.924  50.795  1.00  0.00     0.457 C 
HETATM   16  C22 UNL     1      21.947   0.993  50.990  1.00  0.00     0.315 C 
BRANCH   9  17
HETATM   17  N2  UNL     1      24.281   5.779  48.559  1.00  0.00    -0.184 N 
HETATM   18  H6  UNL     1      23.754   5.779  47.665  1.00  0.00     0.184 HD
BRANCH  17  19
HETATM   19  C7  UNL     1      25.242   6.757  48.918  1.00  0.00     0.744 A 
HETATM   20  N3  UNL     1      24.867   7.781  49.745  1.00  0.00    -0.071 NA
HETATM   21  C8  UNL     1      25.821   8.683  50.062  1.00  0.00     0.168 A 
HETATM   22  C9  UNL     1      27.103   8.530  49.545  1.00  0.00     0.077 A 
HETATM   23  C10 UNL     1      28.138   9.383  49.809  1.00  0.00     0.035 A 
HETATM   24  N4  UNL     1      27.441   7.533  48.751  1.00  0.00    -0.222 N 
HETATM   25  C11 UNL     1      29.191   8.806  49.081  1.00  0.00     0.029 A 
HETATM   26  C12 UNL     1      28.760   7.658  48.424  1.00  0.00     0.033 A 
HETATM   27  C13 UNL     1      29.559   6.735  47.540  1.00  0.00     0.070 C 
HETATM   28  N5  UNL     1      26.512   6.620  48.417  1.00  0.00     0.026 NA
ENDBRANCH  17  19
ENDBRANCH   9  17
BRANCH  10  29
HETATM   29  O2  UNL     1      21.807   5.389  49.922  1.00  0.00    -0.355 OA
HETATM   30  C15 UNL     1      21.643   6.542  50.752  1.00  0.00     0.209 C 
ENDBRANCH  10  29
BRANCH  15  31
HETATM   31  N6  UNL     1      19.665   1.874  50.682  1.00  0.00     0.113 N 
HETATM   32  C20 UNL     1      19.060   2.103  49.360  1.00  0.00     0.312 C 
HETATM   33  C21 UNL     1      18.625   2.002  51.668  1.00  0.00     0.312 C 
ENDBRANCH  15  31
ENDBRANCH   5   7
TORSDOF 5
ENDMDL
MODEL 6
REMARK VINA RESULT:      -7.2      4.681      9.339
REMARK  5 active torsions:
REMARK  status: ('A' for Active; 'I' for Inactive)
REMARK       I    between atoms: C3_3  and  N1_5 
REMARK    1  A    between atoms: N1_5  and  C4_6 
REMARK    2  A    between atoms: C6_8  and  N2_9 
REMARK    3  A    between atoms: N2_9  and  C7_10 
REMARK    4  A    between atoms: C14_20  and  O2_21 
REMARK    5  A    between atoms: C19_26  and  N6_27 
ROOT
HETATM    1  C1  UNL     1      25.441   4.783  49.360  1.00  0.00     0.037 C 
HETATM    2  C2  UNL     1      26.673   5.042  48.975  1.00  0.00     0.048 C 
HETATM    3  C3  UNL     1      28.026   5.526  48.607  1.00  0.00     0.241 C 
HETATM    4  O1  UNL     1      28.995   4.906  48.090  1.00  0.00    -0.269 OA
HETATM    5  N1  UNL     1      28.300   6.906  48.869  1.00  0.00    -0.325 N 
HETATM    6  H4  UNL     1      27.490   7.419  49.332  1.00  0.00     0.169 HD
ENDROOT
BRANCH   5   7
HETATM    7  C4  UNL     1      29.468   7.678  48.642  1.00  0.00     0.060 A 
HETATM    8  C5  UNL     1      30.699   7.161  48.788  1.00  0.00     0.061 A 
HETATM    9  C6  UNL     1      31.738   8.179  48.493  1.00  0.00     0.083 A 
HETATM   10  C14 UNL     1      31.041   9.284  48.171  1.00  0.00     0.118 A 
HETATM   11  C16 UNL     1      29.548   9.068  48.205  1.00  0.00     0.254 A 
HETATM   12  C17 UNL     1      28.843  10.095  48.990  1.00  0.00     0.060 C 
HETATM   13  N7  UNL     1      29.071   9.261  46.846  1.00  0.00     0.140 N 
HETATM   14  C18 UNL     1      28.691  11.234  47.977  1.00  0.00     0.072 C 
HETATM   15  C19 UNL     1      29.224  10.705  46.687  1.00  0.00     0.457 C 
HETATM   16  C22 UNL     1      27.680   8.969  46.694  1.00  0.00     0.315 C 
BRANCH   9  17
HETATM   17  N2  UNL     1      33.150   7.999  48.540  1.00  0.00    -0.184 N 
HETATM   18  H6  UNL     1      33.691   8.790  48.938  1.00  0.00     0.184 HD
BRANCH  17  19
HETATM   19  C7  UNL     1      33.729   6.798  48.060  1.00  0.00     0.744 A 
HETATM   20  N3  UNL     1      34.369   5.972  48.945  1.00  0.00    -0.071 NA
HETATM   21  C8  UNL     1      34.899   4.837  48.440  1.00  0.00     0.168 A 
HETATM   22  C9  UNL     1      34.771   4.572  47.080  1.00  0.00     0.077 A 
HETATM   23  C10 UNL     1      35.266   3.452  46.472  1.00  0.00     0.035 A 
HETATM   24  N4  UNL     1      34.149   5.383  46.246  1.00  0.00    -0.222 N 
HETATM   25  C11 UNL     1      34.881   3.644  45.135  1.00  0.00     0.029 A 
HETATM   26  C12 UNL     1      34.187   4.842  44.994  1.00  0.00     0.033 A 
HETATM   27  C13 UNL     1      33.595   5.433  43.741  1.00  0.00     0.070 C 
HETATM   28  N5  UNL     1      33.611   6.521  46.721  1.00  0.00     0.026 NA
ENDBRANCH  17  19
ENDBRANCH   9  17
BRANCH  10  29
HETATM   29  O2  UNL     1      31.807  10.420  47.856  1.00  0.00    -0.355 OA
HETATM   30  C15 UNL     1      32.569  10.525  46.651  1.00  0.00     0.209 C 
ENDBRANCH  10  29
BRANCH  15  31
HETATM   31  N6  UNL     1      28.367  11.045  45.554  1.00  0.00     0.113 N 
HETATM   32  C20 UNL     1      29.299  11.135  44.419  1.00  0.00     0.312 C 
HETATM   33  C21 UNL     1      27.738  12.330  45.708  1.00  0.00     0.312 C 
ENDBRANCH  15  31
ENDBRANCH   5   7
TORSDOF 5
ENDMDL
MODEL 7
REMARK VINA RESULT:      -7.2      2.989      7.873
REMARK  5 active torsions:
REMARK  status: ('A' for Active; 'I' for Inactive)
REMARK       I    between atoms: C3_3  and  N1_5 
REMARK    1  A    between atoms: N1_5  and  C4_6 
REMARK    2  A    between atoms: C6_8  and  N2_9 
REMARK    3  A    between atoms: N2_9  and  C7_10 
REMARK    4  A    between atoms: C14_20  and  O2_21 
REMARK    5  A    between atoms: C19_26  and  N6_27 
ROOT
HETATM    1  C1  UNL     1      29.267   5.657  48.158  1.00  0.00     0.037 C 
HETATM    2  C2  UNL     1      28.132   5.127  48.564  1.00  0.00     0.048 C 
HETATM    3  C3  UNL     1      26.782   4.723  49.027  1.00  0.00     0.241 C 
HETATM    4  O1  UNL     1      26.319   3.575  49.266  1.00  0.00    -0.269 OA
HETATM    5  N1  UNL     1      25.841   5.780  49.242  1.00  0.00    -0.325 N 
HETATM    6  H4  UNL     1      26.227   6.744  49.011  1.00  0.00     0.169 HD
ENDROOT
BRANCH   5   7
HETATM    7  C4  UNL     1      24.492   5.744  49.677  1.00  0.00     0.060 A 
HETATM    8  C5  UNL     1      24.151   5.281  50.891  1.00  0.00     0.061 A 
HETATM    9  C6  UNL     1      22.682   5.351  51.089  1.00  0.00     0.083 A 
HETATM   10  C14 UNL     1      22.214   5.876  49.942  1.00  0.00     0.118 A 
HETATM   11  C16 UNL     1      23.309   6.201  48.955  1.00  0.00     0.254 A 
HETATM   12  C17 UNL     1      23.047   5.652  47.615  1.00  0.00     0.060 C 
HETATM   13  N7  UNL     1      23.284   7.642  48.767  1.00  0.00     0.140 N 
HETATM   14  C18 UNL     1      22.129   6.715  47.000  1.00  0.00     0.072 C 
HETATM   15  C19 UNL     1      22.049   7.814  48.007  1.00  0.00     0.457 C 
HETATM   16  C22 UNL     1      24.351   8.118  47.945  1.00  0.00     0.315 C 
BRANCH   9  17
HETATM   17  N2  UNL     1      21.955   4.954  52.248  1.00  0.00    -0.184 N 
HETATM   18  H6  UNL     1      21.675   5.721  52.888  1.00  0.00     0.184 HD
BRANCH  17  19
HETATM   19  C7  UNL     1      21.659   3.586  52.467  1.00  0.00     0.744 A 
HETATM   20  N3  UNL     1      20.349   3.191  52.515  1.00  0.00    -0.071 NA
HETATM   21  C8  UNL     1      20.119   1.876  52.719  1.00  0.00     0.168 A 
HETATM   22  C9  UNL     1      21.198   1.011  52.867  1.00  0.00     0.077 A 
HETATM   23  C10 UNL     1      21.074  -0.334  53.072  1.00  0.00     0.035 A 
HETATM   24  N4  UNL     1      22.453   1.414  52.816  1.00  0.00    -0.222 N 
HETATM   25  C11 UNL     1      22.414  -0.750  53.146  1.00  0.00     0.029 A 
HETATM   26  C12 UNL     1      23.271   0.335  52.987  1.00  0.00     0.033 A 
HETATM   27  C13 UNL     1      24.777   0.341  52.994  1.00  0.00     0.070 C 
HETATM   28  N5  UNL     1      22.712   2.719  52.614  1.00  0.00     0.026 NA
ENDBRANCH  17  19
ENDBRANCH   9  17
BRANCH  10  29
HETATM   29  O2  UNL     1      20.820   6.038  49.867  1.00  0.00    -0.355 OA
HETATM   30  C15 UNL     1      19.949   5.001  49.407  1.00  0.00     0.209 C 
ENDBRANCH  10  29
BRANCH  15  31
HETATM   31  N6  UNL     1      22.172   9.134  47.395  1.00  0.00     0.113 N 
HETATM   32  C20 UNL     1      21.440  10.020  48.313  1.00  0.00     0.312 C 
HETATM   33  C21 UNL     1      21.528   9.205  46.110  1.00  0.00     0.312 C 
ENDBRANCH  15  31
ENDBRANCH   5   7
TORSDOF 5
ENDMDL
MODEL 8
REMARK VINA RESULT:      -7.1      2.699      6.914
REMARK  5 active torsions:
REMARK  status: ('A' for Active; 'I' for Inactive)
REMARK       I    between atoms: C3_3  and  N1_5 
REMARK    1  A    between atoms: N1_5  and  C4_6 
REMARK    2  A    between atoms: C6_8  and  N2_9 
REMARK    3  A    between atoms: N2_9  and  C7_10 
REMARK    4  A    between atoms: C14_20  and  O2_21 
REMARK    5  A    between atoms: C19_26  and  N6_27 
ROOT
HETATM    1  C1  UNL     1      27.257   8.155  47.333  1.00  0.00     0.037 C 
HETATM    2  C2  UNL     1      26.945   7.018  47.918  1.00  0.00     0.048 C 
HETATM    3  C3  UNL     1      26.409   5.821  48.610  1.00  0.00     0.241 C 
HETATM    4  O1  UNL     1      26.958   4.712  48.853  1.00  0.00    -0.269 OA
HETATM    5  N1  UNL     1      25.062   5.913  49.086  1.00  0.00    -0.325 N 
HETATM    6  H4  UNL     1      24.593   6.839  48.854  1.00  0.00     0.169 HD
ENDROOT
BRANCH   5   7
HETATM    7  C4  UNL     1      24.259   4.972  49.779  1.00  0.00     0.060 A 
HETATM    8  C5  UNL     1      24.598   4.507  50.992  1.00  0.00     0.061 A 
HETATM    9  C6  UNL     1      23.591   3.535  51.486  1.00  0.00     0.083 A 
HETATM   10  C14 UNL     1      22.671   3.479  50.506  1.00  0.00     0.118 A 
HETATM   11  C16 UNL     1      22.987   4.398  49.350  1.00  0.00     0.254 A 
HETATM   12  C17 UNL     1      22.925   3.715  48.048  1.00  0.00     0.060 C 
HETATM   13  N7  UNL     1      21.915   5.378  49.296  1.00  0.00     0.140 N 
HETATM   14  C18 UNL     1      21.428   3.763  47.724  1.00  0.00     0.072 C 
HETATM   15  C19 UNL     1      20.802   4.564  48.817  1.00  0.00     0.457 C 
HETATM   16  C22 UNL     1      22.137   6.398  48.320  1.00  0.00     0.315 C 
BRANCH   9  17
HETATM   17  N2  UNL     1      23.611   2.839  52.729  1.00  0.00    -0.184 N 
HETATM   18  H6  UNL     1      22.918   3.156  53.433  1.00  0.00     0.184 HD
BRANCH  17  19
HETATM   19  C7  UNL     1      24.538   1.789  52.940  1.00  0.00     0.744 A 
HETATM   20  N3  UNL     1      24.092   0.495  52.899  1.00  0.00    -0.071 NA
HETATM   21  C8  UNL     1      25.016  -0.470  53.100  1.00  0.00     0.168 A 
HETATM   22  C9  UNL     1      26.339  -0.110  53.333  1.00  0.00     0.077 A 
HETATM   23  C10 UNL     1      27.348  -1.007  53.543  1.00  0.00     0.035 A 
HETATM   24  N4  UNL     1      26.745   1.145  53.367  1.00  0.00    -0.222 N 
HETATM   25  C11 UNL     1      28.461  -0.168  53.715  1.00  0.00     0.029 A 
HETATM   26  C12 UNL     1      28.088   1.167  53.607  1.00  0.00     0.033 A 
HETATM   27  C13 UNL     1      28.960   2.391  53.721  1.00  0.00     0.070 C 
HETATM   28  N5  UNL     1      25.847   2.128  53.170  1.00  0.00     0.026 NA
ENDBRANCH  17  19
ENDBRANCH   9  17
BRANCH  10  29
HETATM   29  O2  UNL     1      21.595   2.602  50.726  1.00  0.00    -0.355 OA
HETATM   30  C15 UNL     1      21.644   1.218  50.369  1.00  0.00     0.209 C 
ENDBRANCH  10  29
BRANCH  15  31
HETATM   31  N6  UNL     1      19.830   5.528  48.307  1.00  0.00     0.113 N 
HETATM   32  C20 UNL     1      18.843   5.644  49.393  1.00  0.00     0.312 C 
HETATM   33  C21 UNL     1      19.142   5.049  47.138  1.00  0.00     0.312 C 
ENDBRANCH  15  31
ENDBRANCH   5   7
TORSDOF 5
ENDMDL
MODEL 9
REMARK VINA RESULT:      -7.1      4.357      9.319
REMARK  5 active torsions:
REMARK  status: ('A' for Active; 'I' for Inactive)
REMARK       I    between atoms: C3_3  and  N1_5 
REMARK    1  A    between atoms: N1_5  and  C4_6 
REMARK    2  A    between atoms: C6_8  and  N2_9 
REMARK    3  A    between atoms: N2_9  and  C7_10 
REMARK    4  A    between atoms: C14_20  and  O2_21 
REMARK    5  A    between atoms: C19_26  and  N6_27 
ROOT
HETATM    1  C1  UNL     1      23.112  -1.279  55.348  1.00  0.00     0.037 C 
HETATM    2  C2  UNL     1      22.542  -0.853  54.241  1.00  0.00     0.048 C 
HETATM    3  C3  UNL     1      21.914  -0.184  53.076  1.00  0.00     0.241 C 
HETATM    4  O1  UNL     1      21.485  -0.673  51.995  1.00  0.00    -0.269 OA
HETATM    5  N1  UNL     1      21.758   1.236  53.166  1.00  0.00    -0.325 N 
HETATM    6  H4  UNL     1      22.147   1.648  54.066  1.00  0.00     0.169 HD
ENDROOT
BRANCH   5   7
HETATM    7  C4  UNL     1      21.206   2.167  52.250  1.00  0.00     0.060 A 
HETATM    8  C5  UNL     1      19.919   2.546  52.314  1.00  0.00     0.061 A 
HETATM    9  C6  UNL     1      19.601   3.521  51.241  1.00  0.00     0.083 A 
HETATM   10  C14 UNL     1      20.761   3.677  50.577  1.00  0.00     0.118 A 
HETATM   11  C16 UNL     1      21.889   2.863  51.164  1.00  0.00     0.254 A 
HETATM   12  C17 UNL     1      22.600   2.065  50.153  1.00  0.00     0.060 C 
HETATM   13  N7  UNL     1      22.881   3.814  51.639  1.00  0.00     0.140 N 
HETATM   14  C18 UNL     1      23.589   3.081  49.570  1.00  0.00     0.072 C 
HETATM   15  C19 UNL     1      23.419   4.323  50.381  1.00  0.00     0.457 C 
HETATM   16  C22 UNL     1      23.962   3.192  52.336  1.00  0.00     0.315 C 
BRANCH   9  17
HETATM   17  N2  UNL     1      18.344   4.144  50.996  1.00  0.00    -0.184 N 
HETATM   18  H6  UNL     1      18.370   4.985  50.388  1.00  0.00     0.184 HD
BRANCH  17  19
HETATM   19  C7  UNL     1      17.163   3.610  51.568  1.00  0.00     0.744 A 
HETATM   20  N3  UNL     1      16.408   4.405  52.389  1.00  0.00    -0.071 NA
HETATM   21  C8  UNL     1      15.288   3.852  52.904  1.00  0.00     0.168 A 
HETATM   22  C9  UNL     1      14.968   2.536  52.584  1.00  0.00     0.077 A 
HETATM   23  C10 UNL     1      13.858   1.888  53.048  1.00  0.00     0.035 A 
HETATM   24  N4  UNL     1      15.711   1.790  51.789  1.00  0.00    -0.222 N 
HETATM   25  C11 UNL     1      13.980   0.623  52.448  1.00  0.00     0.029 A 
HETATM   26  C12 UNL     1      15.129   0.562  51.667  1.00  0.00     0.033 A 
HETATM   27  C13 UNL     1      15.640  -0.597  50.850  1.00  0.00     0.070 C 
HETATM   28  N5  UNL     1      16.832   2.314  51.261  1.00  0.00     0.026 NA
ENDBRANCH  17  19
ENDBRANCH   9  17
BRANCH  10  29
HETATM   29  O2  UNL     1      20.725   4.558  49.482  1.00  0.00    -0.355 OA
HETATM   30  C15 UNL     1      20.361   4.135  48.165  1.00  0.00     0.209 C 
ENDBRANCH  10  29
BRANCH  15  31
HETATM   31  N6  UNL     1      24.700   4.925  50.744  1.00  0.00     0.113 N 
HETATM   32  C20 UNL     1      24.410   6.366  50.804  1.00  0.00     0.312 C 
HETATM   33  C21 UNL     1      25.707   4.722  49.736  1.00  0.00     0.312 C 
ENDBRANCH  15  31
ENDBRANCH   5   7
TORSDOF 5
ENDMDL
