MODEL 1
REMARK VINA RESULT:      -8.3      0.000      0.000
REMARK  3 active torsions:
REMARK  status: ('A' for Active; 'I' for Inactive)
REMARK    1  A    between atoms: C2_2  and  C3_3 
REMARK       I    between atoms: C3_3  and  N1_5 
REMARK    2  A    between atoms: N1_5  and  C4_6 
REMARK    3  A    between atoms: C9_13  and  N4_14 
ROOT
HETATM    1  C4  UNL     1      26.156   0.168  52.625  1.00  0.00     0.035 A 
HETATM    2  C5  UNL     1      25.134  -0.471  53.330  1.00  0.00     0.032 A 
HETATM    3  C6  UNL     1      23.837   0.010  53.306  1.00  0.00     0.035 A 
HETATM    4  C7  UNL     1      23.485   1.153  52.582  1.00  0.00     0.072 A 
HETATM    5  N2  UNL     1      22.263   1.672  52.518  1.00  0.00    -0.241 NA
HETATM    6  C8  UNL     1      22.052   2.782  51.789  1.00  0.00     0.236 A 
HETATM    7  N3  UNL     1      23.075   3.381  51.112  1.00  0.00    -0.223 NA
HETATM    8  C9  UNL     1      24.341   2.875  51.154  1.00  0.00     0.144 A 
HETATM    9  C15 UNL     1      24.532   1.741  51.907  1.00  0.00     0.041 A 
HETATM   10  C16 UNL     1      25.828   1.295  51.906  1.00  0.00     0.047 A 
ENDROOT
BRANCH   8  11
HETATM   11  N4  UNL     1      25.238   3.638  50.363  1.00  0.00    -0.336 N 
HETATM   12  C10 UNL     1      24.829   5.022  50.424  1.00  0.00     0.112 A 
HETATM   13  C11 UNL     1      25.465   6.025  49.803  1.00  0.00     0.026 A 
HETATM   14 BR1  UNL     1      24.961   7.874  49.855  1.00  0.00    -0.050 Br
HETATM   15  C12 UNL     1      26.662   5.729  48.988  1.00  0.00     0.018 A 
HETATM   16  C13 UNL     1      27.004   4.466  48.946  1.00  0.00    -0.005 A 
HETATM   17  C14 UNL     1      26.394   3.283  49.578  1.00  0.00     0.157 A 
ENDBRANCH   8  11
BRANCH   1  18
HETATM   18  N1  UNL     1      27.438  -0.412  52.723  1.00  0.00    -0.327 N 
HETATM   19  C3  UNL     1      28.319   0.036  53.749  1.00  0.00     0.221 C 
HETATM   20  O1  UNL     1      28.010   0.937  54.586  1.00  0.00    -0.273 OA
HETATM   21  H6  UNL     1      27.781  -1.166  52.075  1.00  0.00     0.169 HD
BRANCH  19  22
HETATM   22  C2  UNL     1      29.685  -0.549  53.892  1.00  0.00     0.098 C 
HETATM   23  C1  UNL     1      29.603  -1.977  53.352  1.00  0.00     0.014 C 
ENDBRANCH  19  22
ENDBRANCH   1  18
TORSDOF 3
ENDMDL
MODEL 2
REMARK VINA RESULT:      -8.2      2.203      2.868
REMARK  3 active torsions:
REMARK  status: ('A' for Active; 'I' for Inactive)
REMARK    1  A    between atoms: C2_2  and  C3_3 
REMARK       I    between atoms: C3_3  and  N1_5 
REMARK    2  A    between atoms: N1_5  and  C4_6 
REMARK    3  A    between atoms: C9_13  and  N4_14 
ROOT
HETATM    1  C4  UNL     1      25.045  -0.567  54.051  1.00  0.00     0.035 A 
HETATM    2  C5  UNL     1      24.257  -1.324  54.920  1.00  0.00     0.032 A 
HETATM    3  C6  UNL     1      22.889  -1.131  55.000  1.00  0.00     0.035 A 
HETATM    4  C7  UNL     1      22.230  -0.176  54.221  1.00  0.00     0.072 A 
HETATM    5  N2  UNL     1      20.923   0.065  54.250  1.00  0.00    -0.241 NA
HETATM    6  C8  UNL     1      20.407   1.018  53.453  1.00  0.00     0.236 A 
HETATM    7  N3  UNL     1      21.208   1.739  52.614  1.00  0.00    -0.223 NA
HETATM    8  C9  UNL     1      22.552   1.518  52.559  1.00  0.00     0.144 A 
HETATM    9  C15 UNL     1      23.056   0.540  53.383  1.00  0.00     0.041 A 
HETATM   10  C16 UNL     1      24.412   0.379  53.275  1.00  0.00     0.047 A 
ENDROOT
BRANCH   8  11
HETATM   11  N4  UNL     1      23.184   2.360  51.607  1.00  0.00    -0.336 N 
HETATM   12  C10 UNL     1      22.636   2.057  50.305  1.00  0.00     0.112 A 
HETATM   13  C11 UNL     1      22.996   2.678  49.172  1.00  0.00     0.026 A 
HETATM   14 BR1  UNL     1      22.298   2.313  47.424  1.00  0.00    -0.050 Br
HETATM   15  C12 UNL     1      24.022   3.741  49.223  1.00  0.00     0.018 A 
HETATM   16  C13 UNL     1      24.504   3.988  50.415  1.00  0.00    -0.005 A 
HETATM   17  C14 UNL     1      24.194   3.381  51.723  1.00  0.00     0.157 A 
ENDBRANCH   8  11
BRANCH   1  18
HETATM   18  N1  UNL     1      26.427  -0.851  54.055  1.00  0.00    -0.327 N 
HETATM   19  C3  UNL     1      27.331   0.138  54.538  1.00  0.00     0.221 C 
HETATM   20  O1  UNL     1      26.956   1.272  54.967  1.00  0.00    -0.273 OA
HETATM   21  H6  UNL     1      26.829  -1.762  53.719  1.00  0.00     0.169 HD
BRANCH  19  22
HETATM   22  C2  UNL     1      28.801  -0.117  54.562  1.00  0.00     0.098 C 
HETATM   23  C1  UNL     1      29.085  -1.119  53.442  1.00  0.00     0.014 C 
ENDBRANCH  19  22
ENDBRANCH   1  18
TORSDOF 3
ENDMDL
MODEL 3
REMARK VINA RESULT:      -8.0      2.962      5.260
REMARK  3 active torsions:
REMARK  status: ('A' for Active; 'I' for Inactive)
REMARK    1  A    between atoms: C2_2  and  C3_3 
REMARK       I    between atoms: C3_3  and  N1_5 
REMARK    2  A    between atoms: N1_5  and  C4_6 
REMARK    3  A    between atoms: C9_13  and  N4_14 
ROOT
HETATM    1  C4  UNL     1      26.330   1.052  52.052  1.00  0.00     0.035 A 
HETATM    2  C5  UNL     1      26.672   2.109  51.206  1.00  0.00     0.032 A 
HETATM    3  C6  UNL     1      25.703   2.926  50.652  1.00  0.00     0.035 A 
HETATM    4  C7  UNL     1      24.342   2.736  50.905  1.00  0.00     0.072 A 
HETATM    5  N2  UNL     1      23.359   3.478  50.403  1.00  0.00    -0.241 NA
HETATM    6  C8  UNL     1      22.084   3.191  50.719  1.00  0.00     0.236 A 
HETATM    7  N3  UNL     1      21.786   2.149  51.550  1.00  0.00    -0.223 NA
HETATM    8  C9  UNL     1      22.768   1.367  52.083  1.00  0.00     0.144 A 
HETATM    9  C15 UNL     1      24.063   1.681  51.745  1.00  0.00     0.041 A 
HETATM   10  C16 UNL     1      24.993   0.850  52.313  1.00  0.00     0.047 A 
ENDROOT
BRANCH   8  11
HETATM   11  N4  UNL     1      22.237   0.363  52.932  1.00  0.00    -0.336 N 
HETATM   12  C10 UNL     1      20.832   0.214  52.631  1.00  0.00     0.112 A 
HETATM   13  C11 UNL     1      20.019  -0.663  53.238  1.00  0.00     0.026 A 
HETATM   14 BR1  UNL     1      18.151  -0.897  52.873  1.00  0.00    -0.050 Br
HETATM   15  C12 UNL     1      20.563  -1.545  54.291  1.00  0.00     0.018 A 
HETATM   16  C13 UNL     1      21.836  -1.383  54.546  1.00  0.00    -0.005 A 
HETATM   17  C14 UNL     1      22.826  -0.463  53.956  1.00  0.00     0.157 A 
ENDBRANCH   8  11
BRANCH   1  18
HETATM   18  N1  UNL     1      27.401   0.287  52.559  1.00  0.00    -0.327 N 
HETATM   19  C3  UNL     1      27.942   0.622  53.833  1.00  0.00     0.221 C 
HETATM   20  O1  UNL     1      27.508   1.580  54.543  1.00  0.00    -0.273 OA
HETATM   21  H6  UNL     1      27.826  -0.524  52.042  1.00  0.00     0.169 HD
BRANCH  19  22
HETATM   22  C2  UNL     1      29.077  -0.158  54.411  1.00  0.00     0.098 C 
HETATM   23  C1  UNL     1      29.462  -1.202  53.362  1.00  0.00     0.014 C 
ENDBRANCH  19  22
ENDBRANCH   1  18
TORSDOF 3
ENDMDL
MODEL 4
REMARK VINA RESULT:      -7.9      3.397      6.132
REMARK  3 active torsions:
REMARK  status: ('A' for Active; 'I' for Inactive)
REMARK    1  A    between atoms: C2_2  and  C3_3 
REMARK       I    between atoms: C3_3  and  N1_5 
REMARK    2  A    between atoms: N1_5  and  C4_6 
REMARK    3  A    between atoms: C9_13  and  N4_14 
ROOT
HETATM    1  C4  UNL     1      22.945   1.300  51.189  1.00  0.00     0.035 A 
HETATM    2  C5  UNL     1      21.723   0.682  51.464  1.00  0.00     0.032 A 
HETATM    3  C6  UNL     1      21.567  -0.136  52.569  1.00  0.00     0.035 A 
HETATM    4  C7  UNL     1      22.615  -0.387  53.458  1.00  0.00     0.072 A 
HETATM    5  N2  UNL     1      22.537  -1.164  54.534  1.00  0.00    -0.241 NA
HETATM    6  C8  UNL     1      23.621  -1.330  55.312  1.00  0.00     0.236 A 
HETATM    7  N3  UNL     1      24.800  -0.710  55.013  1.00  0.00    -0.223 NA
HETATM    8  C9  UNL     1      24.916   0.094  53.918  1.00  0.00     0.144 A 
HETATM    9  C15 UNL     1      23.795   0.248  53.138  1.00  0.00     0.041 A 
HETATM   10  C16 UNL     1      23.989   1.065  52.055  1.00  0.00     0.047 A 
ENDROOT
BRANCH   8  11
HETATM   11  N4  UNL     1      26.216   0.652  53.812  1.00  0.00    -0.336 N 
HETATM   12  C10 UNL     1      27.166  -0.432  53.717  1.00  0.00     0.112 A 
HETATM   13  C11 UNL     1      28.491  -0.266  53.589  1.00  0.00     0.026 A 
HETATM   14 BR1  UNL     1      29.788  -1.671  53.458  1.00  0.00    -0.050 Br
HETATM   15  C12 UNL     1      29.048   1.102  53.544  1.00  0.00     0.018 A 
HETATM   16  C13 UNL     1      28.164   2.063  53.639  1.00  0.00    -0.005 A 
HETATM   17  C14 UNL     1      26.698   2.011  53.783  1.00  0.00     0.157 A 
ENDBRANCH   8  11
BRANCH   1  18
HETATM   18  N1  UNL     1      22.987   2.112  50.036  1.00  0.00    -0.327 N 
HETATM   19  C3  UNL     1      22.822   3.520  50.181  1.00  0.00     0.221 C 
HETATM   20  O1  UNL     1      22.638   4.087  51.301  1.00  0.00    -0.273 OA
HETATM   21  H6  UNL     1      23.135   1.732  49.068  1.00  0.00     0.169 HD
BRANCH  19  22
HETATM   22  C2  UNL     1      22.859   4.420  48.990  1.00  0.00     0.098 C 
HETATM   23  C1  UNL     1      24.258   5.037  48.958  1.00  0.00     0.014 C 
ENDBRANCH  19  22
ENDBRANCH   1  18
TORSDOF 3
ENDMDL
MODEL 5
REMARK VINA RESULT:      -7.3      1.824      2.480
REMARK  3 active torsions:
REMARK  status: ('A' for Active; 'I' for Inactive)
REMARK    1  A    between atoms: C2_2  and  C3_3 
REMARK       I    between atoms: C3_3  and  N1_5 
REMARK    2  A    between atoms: N1_5  and  C4_6 
REMARK    3  A    between atoms: C9_13  and  N4_14 
ROOT
HETATM    1  C4  UNL     1      24.727   0.419  53.442  1.00  0.00     0.035 A 
HETATM    2  C5  UNL     1      23.913  -0.702  53.621  1.00  0.00     0.032 A 
HETATM    3  C6  UNL     1      22.595  -0.704  53.202  1.00  0.00     0.035 A 
HETATM    4  C7  UNL     1      22.013   0.406  52.585  1.00  0.00     0.072 A 
HETATM    5  N2  UNL     1      20.753   0.474  52.163  1.00  0.00    -0.241 NA
HETATM    6  C8  UNL     1      20.308   1.604  51.586  1.00  0.00     0.236 A 
HETATM    7  N3  UNL     1      21.132   2.681  51.427  1.00  0.00    -0.223 NA
HETATM    8  C9  UNL     1      22.429   2.646  51.847  1.00  0.00     0.144 A 
HETATM    9  C15 UNL     1      22.861   1.480  52.434  1.00  0.00     0.041 A 
HETATM   10  C16 UNL     1      24.170   1.522  52.834  1.00  0.00     0.047 A 
ENDROOT
BRANCH   8  11
HETATM   11  N4  UNL     1      23.106   3.860  51.562  1.00  0.00    -0.336 N 
HETATM   12  C10 UNL     1      24.276   3.548  50.774  1.00  0.00     0.112 A 
HETATM   13  C11 UNL     1      25.142   4.464  50.314  1.00  0.00     0.026 A 
HETATM   14 BR1  UNL     1      26.706   4.100  49.267  1.00  0.00    -0.050 Br
HETATM   15  C12 UNL     1      24.915   5.892  50.619  1.00  0.00     0.018 A 
HETATM   16  C13 UNL     1      23.851   6.142  51.339  1.00  0.00    -0.005 A 
HETATM   17  C14 UNL     1      22.834   5.234  51.900  1.00  0.00     0.157 A 
ENDBRANCH   8  11
BRANCH   1  18
HETATM   18  N1  UNL     1      26.054   0.306  53.907  1.00  0.00    -0.327 N 
HETATM   19  C3  UNL     1      27.057  -0.170  53.016  1.00  0.00     0.221 C 
HETATM   20  O1  UNL     1      26.820  -0.501  51.814  1.00  0.00    -0.273 OA
HETATM   21  H6  UNL     1      26.345   0.557  54.886  1.00  0.00     0.169 HD
BRANCH  19  22
HETATM   22  C2  UNL     1      28.475  -0.306  53.463  1.00  0.00     0.098 C 
HETATM   23  C1  UNL     1      28.536   0.254  54.884  1.00  0.00     0.014 C 
ENDBRANCH  19  22
ENDBRANCH   1  18
TORSDOF 3
ENDMDL
MODEL 6
REMARK VINA RESULT:      -7.3      2.792      5.307
REMARK  3 active torsions:
REMARK  status: ('A' for Active; 'I' for Inactive)
REMARK    1  A    between atoms: C2_2  and  C3_3 
REMARK       I    between atoms: C3_3  and  N1_5 
REMARK    2  A    between atoms: N1_5  and  C4_6 
REMARK    3  A    between atoms: C9_13  and  N4_14 
ROOT
HETATM    1  C4  UNL     1      22.263  -0.323  52.908  1.00  0.00     0.035 A 
HETATM    2  C5  UNL     1      22.307  -1.171  54.016  1.00  0.00     0.032 A 
HETATM    3  C6  UNL     1      23.439  -1.259  54.806  1.00  0.00     0.035 A 
HETATM    4  C7  UNL     1      24.590  -0.512  54.537  1.00  0.00     0.072 A 
HETATM    5  N2  UNL     1      25.712  -0.552  55.249  1.00  0.00    -0.241 NA
HETATM    6  C8  UNL     1      26.755   0.214  54.885  1.00  0.00     0.236 A 
HETATM    7  N3  UNL     1      26.677   1.033  53.794  1.00  0.00    -0.223 NA
HETATM    8  C9  UNL     1      25.542   1.098  53.041  1.00  0.00     0.144 A 
HETATM    9  C15 UNL     1      24.489   0.306  53.434  1.00  0.00     0.041 A 
HETATM   10  C16 UNL     1      23.387   0.422  52.628  1.00  0.00     0.047 A 
ENDROOT
BRANCH   8  11
HETATM   11  N4  UNL     1      25.671   2.026  51.976  1.00  0.00    -0.336 N 
HETATM   12  C10 UNL     1      24.653   3.038  52.133  1.00  0.00     0.112 A 
HETATM   13  C11 UNL     1      24.494   4.083  51.307  1.00  0.00     0.026 A 
HETATM   14 BR1  UNL     1      23.161   5.450  51.475  1.00  0.00    -0.050 Br
HETATM   15  C12 UNL     1      25.399   4.235  50.149  1.00  0.00     0.018 A 
HETATM   16  C13 UNL     1      26.307   3.299  50.030  1.00  0.00    -0.005 A 
HETATM   17  C14 UNL     1      26.581   2.113  50.861  1.00  0.00     0.157 A 
ENDBRANCH   8  11
BRANCH   1  18
HETATM   18  N1  UNL     1      21.056  -0.315  52.177  1.00  0.00    -0.327 N 
HETATM   19  C3  UNL     1      20.126   0.741  52.398  1.00  0.00     0.221 C 
HETATM   20  O1  UNL     1      20.326   1.683  53.224  1.00  0.00    -0.273 OA
HETATM   21  H6  UNL     1      20.804  -1.052  51.472  1.00  0.00     0.169 HD
BRANCH  19  22
HETATM   22  C2  UNL     1      18.836   0.793  51.649  1.00  0.00     0.098 C 
HETATM   23  C1  UNL     1      18.093  -0.503  51.978  1.00  0.00     0.014 C 
ENDBRANCH  19  22
ENDBRANCH   1  18
TORSDOF 3
ENDMDL
MODEL 7
REMARK VINA RESULT:      -7.2      3.258      4.047
REMARK  3 active torsions:
REMARK  status: ('A' for Active; 'I' for Inactive)
REMARK    1  A    between atoms: C2_2  and  C3_3 
REMARK       I    between atoms: C3_3  and  N1_5 
REMARK    2  A    between atoms: N1_5  and  C4_6 
REMARK    3  A    between atoms: C9_13  and  N4_14 
ROOT
HETATM    1  C4  UNL     1      23.495  -0.184  53.400  1.00  0.00     0.035 A 
HETATM    2  C5  UNL     1      22.871  -0.867  54.446  1.00  0.00     0.032 A 
HETATM    3  C6  UNL     1      21.501  -1.059  54.459  1.00  0.00     0.035 A 
HETATM    4  C7  UNL     1      20.677  -0.582  53.436  1.00  0.00     0.072 A 
HETATM    5  N2  UNL     1      19.356  -0.726  53.388  1.00  0.00    -0.241 NA
HETATM    6  C8  UNL     1      18.671  -0.215  52.350  1.00  0.00     0.236 A 
HETATM    7  N3  UNL     1      19.315   0.448  51.344  1.00  0.00    -0.223 NA
HETATM    8  C9  UNL     1      20.668   0.613  51.361  1.00  0.00     0.144 A 
HETATM    9  C15 UNL     1      21.346   0.083  52.433  1.00  0.00     0.041 A 
HETATM   10  C16 UNL     1      22.699   0.293  52.383  1.00  0.00     0.047 A 
ENDROOT
BRANCH   8  11
HETATM   11  N4  UNL     1      21.126   1.307  50.211  1.00  0.00    -0.336 N 
HETATM   12  C10 UNL     1      21.071   2.723  50.487  1.00  0.00     0.112 A 
HETATM   13  C11 UNL     1      21.448   3.676  49.622  1.00  0.00     0.026 A 
HETATM   14 BR1  UNL     1      21.394   5.566  49.943  1.00  0.00    -0.050 Br
HETATM   15  C12 UNL     1      21.951   3.285  48.288  1.00  0.00     0.018 A 
HETATM   16  C13 UNL     1      21.983   1.996  48.066  1.00  0.00    -0.005 A 
HETATM   17  C14 UNL     1      21.601   0.861  48.925  1.00  0.00     0.157 A 
ENDBRANCH   8  11
BRANCH   1  18
HETATM   18  N1  UNL     1      24.896  -0.049  53.492  1.00  0.00    -0.327 N 
HETATM   19  C3  UNL     1      25.460   1.258  53.546  1.00  0.00     0.221 C 
HETATM   20  O1  UNL     1      24.762   2.317  53.514  1.00  0.00    -0.273 OA
HETATM   21  H6  UNL     1      25.554  -0.869  53.525  1.00  0.00     0.169 HD
BRANCH  19  22
HETATM   22  C2  UNL     1      26.937   1.451  53.644  1.00  0.00     0.098 C 
HETATM   23  C1  UNL     1      27.457   0.345  54.563  1.00  0.00     0.014 C 
ENDBRANCH  19  22
ENDBRANCH   1  18
TORSDOF 3
ENDMDL
MODEL 8
REMARK VINA RESULT:      -7.2      2.799      5.154
REMARK  3 active torsions:
REMARK  status: ('A' for Active; 'I' for Inactive)
REMARK    1  A    between atoms: C2_2  and  C3_3 
REMARK       I    between atoms: C3_3  and  N1_5 
REMARK    2  A    between atoms: N1_5  and  C4_6 
REMARK    3  A    between atoms: C9_13  and  N4_14 
ROOT
HETATM    1  C4  UNL     1      22.362   0.170  52.280  1.00  0.00     0.035 A 
HETATM    2  C5  UNL     1      22.789  -0.718  53.270  1.00  0.00     0.032 A 
HETATM    3  C6  UNL     1      24.042  -0.601  53.845  1.00  0.00     0.035 A 
HETATM    4  C7  UNL     1      24.939   0.402  53.467  1.00  0.00     0.072 A 
HETATM    5  N2  UNL     1      26.157   0.569  53.973  1.00  0.00    -0.241 NA
HETATM    6  C8  UNL     1      26.930   1.572  53.522  1.00  0.00     0.236 A 
HETATM    7  N3  UNL     1      26.480   2.422  52.552  1.00  0.00    -0.223 NA
HETATM    8  C9  UNL     1      25.236   2.281  52.012  1.00  0.00     0.144 A 
HETATM    9  C15 UNL     1      24.465   1.247  52.489  1.00  0.00     0.041 A 
HETATM   10  C16 UNL     1      23.232   1.165  51.896  1.00  0.00     0.047 A 
ENDROOT
BRANCH   8  11
HETATM   11  N4  UNL     1      24.967   3.282  51.043  1.00  0.00    -0.336 N 
HETATM   12  C10 UNL     1      26.213   3.638  50.405  1.00  0.00     0.112 A 
HETATM   13  C11 UNL     1      26.326   4.547  49.425  1.00  0.00     0.026 A 
HETATM   14 BR1  UNL     1      27.955   5.052  48.548  1.00  0.00    -0.050 Br
HETATM   15  C12 UNL     1      25.118   5.252  48.949  1.00  0.00     0.018 A 
HETATM   16  C13 UNL     1      24.006   4.913  49.551  1.00  0.00    -0.005 A 
HETATM   17  C14 UNL     1      23.753   3.940  50.629  1.00  0.00     0.157 A 
ENDBRANCH   8  11
BRANCH   1  18
HETATM   18  N1  UNL     1      21.065  -0.045  51.768  1.00  0.00    -0.327 N 
HETATM   19  C3  UNL     1      19.983   0.718  52.291  1.00  0.00     0.221 C 
HETATM   20  O1  UNL     1      20.124   1.590  53.203  1.00  0.00    -0.273 OA
HETATM   21  H6  UNL     1      20.853  -0.744  51.012  1.00  0.00     0.169 HD
BRANCH  19  22
HETATM   22  C2  UNL     1      18.594   0.526  51.781  1.00  0.00     0.098 C 
HETATM   23  C1  UNL     1      18.047  -0.722  52.475  1.00  0.00     0.014 C 
ENDBRANCH  19  22
ENDBRANCH   1  18
TORSDOF 3
ENDMDL
MODEL 9
REMARK VINA RESULT:      -6.8      2.722      4.870
REMARK  3 active torsions:
REMARK  status: ('A' for Active; 'I' for Inactive)
REMARK    1  A    between atoms: C2_2  and  C3_3 
REMARK       I    between atoms: C3_3  and  N1_5 
REMARK    2  A    between atoms: N1_5  and  C4_6 
REMARK    3  A    between atoms: C9_13  and  N4_14 
ROOT
HETATM    1  C4  UNL     1      24.850   0.413  52.693  1.00  0.00     0.035 A 
HETATM    2  C5  UNL     1      26.232   0.317  52.518  1.00  0.00     0.032 A 
HETATM    3  C6  UNL     1      26.924   1.243  51.758  1.00  0.00     0.035 A 
HETATM    4  C7  UNL     1      26.282   2.313  51.129  1.00  0.00     0.072 A 
HETATM    5  N2  UNL     1      26.882   3.234  50.381  1.00  0.00    -0.241 NA
HETATM    6  C8  UNL     1      26.152   4.214  49.824  1.00  0.00     0.236 A 
HETATM    7  N3  UNL     1      24.801   4.278  50.016  1.00  0.00    -0.223 NA
HETATM    8  C9  UNL     1      24.152   3.351  50.777  1.00  0.00     0.144 A 
HETATM    9  C15 UNL     1      24.921   2.358  51.336  1.00  0.00     0.041 A 
HETATM   10  C16 UNL     1      24.200   1.462  52.081  1.00  0.00     0.047 A 
ENDROOT
BRANCH   8  11
HETATM   11  N4  UNL     1      22.762   3.621  50.862  1.00  0.00    -0.336 N 
HETATM   12  C10 UNL     1      22.163   3.309  49.586  1.00  0.00     0.112 A 
HETATM   13  C11 UNL     1      20.855   3.432  49.315  1.00  0.00     0.026 A 
HETATM   14 BR1  UNL     1      20.015   3.030  47.639  1.00  0.00    -0.050 Br
HETATM   15  C12 UNL     1      19.941   3.922  50.368  1.00  0.00     0.018 A 
HETATM   16  C13 UNL     1      20.514   4.203  51.511  1.00  0.00    -0.005 A 
HETATM   17  C14 UNL     1      21.925   4.111  51.928  1.00  0.00     0.157 A 
ENDBRANCH   8  11
BRANCH   1  18
HETATM   18  N1  UNL     1      24.251  -0.586  53.489  1.00  0.00    -0.327 N 
HETATM   19  C3  UNL     1      22.919  -0.390  53.953  1.00  0.00     0.221 C 
HETATM   20  O1  UNL     1      22.235   0.645  53.686  1.00  0.00    -0.273 OA
HETATM   21  H6  UNL     1      24.740  -1.476  53.760  1.00  0.00     0.169 HD
BRANCH  19  22
HETATM   22  C2  UNL     1      22.244  -1.419  54.797  1.00  0.00     0.098 C 
HETATM   23  C1  UNL     1      20.827  -1.572  54.242  1.00  0.00     0.014 C 
ENDBRANCH  19  22
ENDBRANCH   1  18
TORSDOF 3
ENDMDL
