MODEL 1
REMARK VINA RESULT:      -7.6      0.000      0.000
REMARK  6 active torsions:
REMARK  status: ('A' for Active; 'I' for Inactive)
REMARK    1  A    between atoms: S1_2  and  C2_3 
REMARK    2  A    between atoms: C2_3  and  C3_4 
REMARK    3  A    between atoms: C5_6  and  C6_7 
REMARK    4  A    between atoms: C16_18  and  C17_19 
REMARK    5  A    between atoms: C17_19  and  S2_20 
REMARK    6  A    between atoms: C19_22  and  O1_23 
ROOT
HETATM    1  C3  UNL     1      23.787  -0.328  53.873  1.00  0.00    -0.014 A 
HETATM    2  C4  UNL     1      23.661   0.598  52.895  1.00  0.00     0.022 A 
HETATM    3  C5  UNL     1      24.780   1.377  52.561  1.00  0.00    -0.034 A 
HETATM    4  C15 UNL     1      25.924   1.111  53.283  1.00  0.00     0.022 A 
HETATM    5  C16 UNL     1      26.081   0.168  54.289  1.00  0.00    -0.014 A 
HETATM    6  C19 UNL     1      24.960  -0.571  54.583  1.00  0.00     0.079 A 
ENDROOT
BRANCH   3   7
HETATM    7  C6  UNL     1      24.661   2.375  51.512  1.00  0.00     0.021 C 
HETATM    8  C7  UNL     1      24.169   3.584  51.711  1.00  0.00    -0.027 C 
HETATM    9  C8  UNL     1      23.640   4.269  52.897  1.00  0.00     0.159 C 
HETATM   10  C14 UNL     1      24.043   4.590  50.637  1.00  0.00    -0.002 A 
HETATM   11  N1  UNL     1      23.938   5.679  52.597  1.00  0.00    -0.385 N 
HETATM   12  C9  UNL     1      23.904   5.851  51.200  1.00  0.00     0.039 A 
HETATM   13  H10 UNL     1      24.145   6.441  53.305  1.00  0.00     0.160 HD
HETATM   14  C10 UNL     1      23.766   6.983  50.426  1.00  0.00     0.030 A 
HETATM   15  C11 UNL     1      23.775   6.786  49.040  1.00  0.00     0.002 A 
HETATM   16  C12 UNL     1      23.909   5.568  48.426  1.00  0.00     0.001 A 
HETATM   17  C13 UNL     1      24.042   4.490  49.261  1.00  0.00     0.014 A 
ENDBRANCH   3   7
BRANCH   1  18
HETATM   18  C2  UNL     1      22.576  -1.135  54.185  1.00  0.00     0.114 C 
BRANCH  18  19
HETATM   19  S1  UNL     1      21.153  -0.130  54.605  1.00  0.00    -0.169 SA
HETATM   20  C1  UNL     1      19.844  -0.477  53.390  1.00  0.00     0.090 C 
ENDBRANCH  18  19
ENDBRANCH   1  18
BRANCH   5  21
HETATM   21  C17 UNL     1      27.413   0.093  54.907  1.00  0.00     0.114 C 
BRANCH  21  22
HETATM   22  S2  UNL     1      28.725   0.533  53.786  1.00  0.00    -0.169 SA
HETATM   23  C18 UNL     1      29.901  -0.805  53.568  1.00  0.00     0.090 C 
ENDBRANCH  21  22
ENDBRANCH   5  21
BRANCH   6  24
HETATM   24  O1  UNL     1      25.065  -1.525  55.578  1.00  0.00    -0.360 OA
HETATM   25  H21 UNL     1      24.225  -1.773  56.109  1.00  0.00     0.217 HD
ENDBRANCH   6  24
TORSDOF 6
ENDMDL
MODEL 2
REMARK VINA RESULT:      -7.6      0.129      4.111
REMARK  6 active torsions:
REMARK  status: ('A' for Active; 'I' for Inactive)
REMARK    1  A    between atoms: S1_2  and  C2_3 
REMARK    2  A    between atoms: C2_3  and  C3_4 
REMARK    3  A    between atoms: C5_6  and  C6_7 
REMARK    4  A    between atoms: C16_18  and  C17_19 
REMARK    5  A    between atoms: C17_19  and  S2_20 
REMARK    6  A    between atoms: C19_22  and  O1_23 
ROOT
HETATM    1  C3  UNL     1      26.050   0.218  54.239  1.00  0.00    -0.014 A 
HETATM    2  C4  UNL     1      25.976   1.156  53.267  1.00  0.00     0.022 A 
HETATM    3  C5  UNL     1      24.753   1.339  52.605  1.00  0.00    -0.034 A 
HETATM    4  C15 UNL     1      23.724   0.523  53.025  1.00  0.00     0.022 A 
HETATM    5  C16 UNL     1      23.771  -0.445  54.018  1.00  0.00    -0.014 A 
HETATM    6  C19 UNL     1      24.989  -0.590  54.640  1.00  0.00     0.079 A 
ENDROOT
BRANCH   3   7
HETATM    7  C6  UNL     1      24.657   2.342  51.559  1.00  0.00     0.021 C 
HETATM    8  C7  UNL     1      24.166   3.553  51.754  1.00  0.00    -0.027 C 
HETATM    9  C8  UNL     1      23.615   4.233  52.932  1.00  0.00     0.159 C 
HETATM   10  C14 UNL     1      24.064   4.564  50.683  1.00  0.00    -0.002 A 
HETATM   11  N1  UNL     1      23.923   5.643  52.645  1.00  0.00    -0.385 N 
HETATM   12  C9  UNL     1      23.918   5.823  51.249  1.00  0.00     0.039 A 
HETATM   13  H10 UNL     1      24.119   6.402  53.362  1.00  0.00     0.160 HD
HETATM   14  C10 UNL     1      23.798   6.959  50.478  1.00  0.00     0.030 A 
HETATM   15  C11 UNL     1      23.834   6.769  49.092  1.00  0.00     0.002 A 
HETATM   16  C12 UNL     1      23.976   5.554  48.474  1.00  0.00     0.001 A 
HETATM   17  C13 UNL     1      24.090   4.471  49.307  1.00  0.00     0.014 A 
ENDBRANCH   3   7
BRANCH   1  18
HETATM   18  C2  UNL     1      27.366   0.067  54.919  1.00  0.00     0.114 C 
BRANCH  18  19
HETATM   19  S1  UNL     1      28.744   0.602  53.906  1.00  0.00    -0.169 SA
HETATM   20  C1  UNL     1      29.783  -0.851  53.560  1.00  0.00     0.090 C 
ENDBRANCH  18  19
ENDBRANCH   1  18
BRANCH   5  21
HETATM   21  C17 UNL     1      22.525  -1.185  54.265  1.00  0.00     0.114 C 
BRANCH  21  22
HETATM   22  S2  UNL     1      21.137  -0.118  54.591  1.00  0.00    -0.169 SA
HETATM   23  C18 UNL     1      19.980  -0.082  53.220  1.00  0.00     0.090 C 
ENDBRANCH  21  22
ENDBRANCH   5  21
BRANCH   6  24
HETATM   24  O1  UNL     1      25.089  -1.541  55.637  1.00  0.00    -0.360 OA
HETATM   25  H21 UNL     1      24.977  -2.527  55.387  1.00  0.00     0.217 HD
ENDBRANCH   6  24
TORSDOF 6
ENDMDL
MODEL 3
REMARK VINA RESULT:      -7.6      2.860      6.041
REMARK  6 active torsions:
REMARK  status: ('A' for Active; 'I' for Inactive)
REMARK    1  A    between atoms: S1_2  and  C2_3 
REMARK    2  A    between atoms: C2_3  and  C3_4 
REMARK    3  A    between atoms: C5_6  and  C6_7 
REMARK    4  A    between atoms: C16_18  and  C17_19 
REMARK    5  A    between atoms: C17_19  and  S2_20 
REMARK    6  A    between atoms: C19_22  and  O1_23 
ROOT
HETATM    1  C3  UNL     1      21.136   0.827  53.311  1.00  0.00    -0.014 A 
HETATM    2  C4  UNL     1      22.317   0.179  53.429  1.00  0.00     0.022 A 
HETATM    3  C5  UNL     1      23.462   0.764  52.868  1.00  0.00    -0.034 A 
HETATM    4  C15 UNL     1      23.261   1.973  52.236  1.00  0.00     0.022 A 
HETATM    5  C16 UNL     1      22.063   2.660  52.100  1.00  0.00    -0.014 A 
HETATM    6  C19 UNL     1      20.968   2.050  52.666  1.00  0.00     0.079 A 
ENDROOT
BRANCH   3   7
HETATM    7  C6  UNL     1      24.738   0.080  52.987  1.00  0.00     0.021 C 
HETATM    8  C7  UNL     1      25.887   0.708  53.166  1.00  0.00    -0.027 C 
HETATM    9  C8  UNL     1      26.245   2.125  53.293  1.00  0.00     0.159 C 
HETATM   10  C14 UNL     1      27.180   0.005  53.278  1.00  0.00    -0.002 A 
HETATM   11  N1  UNL     1      27.455   2.063  54.129  1.00  0.00    -0.385 N 
HETATM   12  C9  UNL     1      28.114   0.848  53.864  1.00  0.00     0.039 A 
HETATM   13  H10 UNL     1      27.781   2.802  54.817  1.00  0.00     0.160 HD
HETATM   14  C10 UNL     1      29.414   0.450  54.091  1.00  0.00     0.030 A 
HETATM   15  C11 UNL     1      29.737  -0.854  53.696  1.00  0.00     0.002 A 
HETATM   16  C12 UNL     1      28.860  -1.731  53.113  1.00  0.00     0.001 A 
HETATM   17  C13 UNL     1      27.586  -1.264  52.920  1.00  0.00     0.014 A 
ENDBRANCH   3   7
BRANCH   1  18
HETATM   18  C2  UNL     1      19.952   0.172  53.930  1.00  0.00     0.114 C 
BRANCH  18  19
HETATM   19  S1  UNL     1      18.872  -0.605  52.730  1.00  0.00    -0.169 SA
HETATM   20  C1  UNL     1      18.013  -1.981  53.556  1.00  0.00     0.090 C 
ENDBRANCH  18  19
ENDBRANCH   1  18
BRANCH   5  21
HETATM   21  C17 UNL     1      22.123   3.934  51.370  1.00  0.00     0.114 C 
BRANCH  21  22
HETATM   22  S2  UNL     1      23.542   4.918  51.805  1.00  0.00    -0.169 SA
HETATM   23  C18 UNL     1      24.747   4.987  50.476  1.00  0.00     0.090 C 
ENDBRANCH  21  22
ENDBRANCH   5  21
BRANCH   6  24
HETATM   24  O1  UNL     1      19.750   2.694  52.559  1.00  0.00    -0.360 OA
HETATM   25  H21 UNL     1      18.927   2.146  52.295  1.00  0.00     0.217 HD
ENDBRANCH   6  24
TORSDOF 6
ENDMDL
MODEL 4
REMARK VINA RESULT:      -7.4      3.192      6.827
REMARK  6 active torsions:
REMARK  status: ('A' for Active; 'I' for Inactive)
REMARK    1  A    between atoms: S1_2  and  C2_3 
REMARK    2  A    between atoms: C2_3  and  C3_4 
REMARK    3  A    between atoms: C5_6  and  C6_7 
REMARK    4  A    between atoms: C16_18  and  C17_19 
REMARK    5  A    between atoms: C17_19  and  S2_20 
REMARK    6  A    between atoms: C19_22  and  O1_23 
ROOT
HETATM    1  C3  UNL     1      22.393   2.634  52.278  1.00  0.00    -0.014 A 
HETATM    2  C4  UNL     1      23.585   2.002  52.365  1.00  0.00     0.022 A 
HETATM    3  C5  UNL     1      23.627   0.729  52.955  1.00  0.00    -0.034 A 
HETATM    4  C15 UNL     1      22.416   0.241  53.398  1.00  0.00     0.022 A 
HETATM    5  C16 UNL     1      21.180   0.866  53.321  1.00  0.00    -0.014 A 
HETATM    6  C19 UNL     1      21.186   2.110  52.735  1.00  0.00     0.079 A 
ENDROOT
BRANCH   3   7
HETATM    7  C6  UNL     1      24.901   0.037  53.056  1.00  0.00     0.021 C 
HETATM    8  C7  UNL     1      26.060   0.659  53.171  1.00  0.00    -0.027 C 
HETATM    9  C8  UNL     1      26.435   2.076  53.233  1.00  0.00     0.159 C 
HETATM   10  C14 UNL     1      27.351  -0.052  53.264  1.00  0.00    -0.002 A 
HETATM   11  N1  UNL     1      27.673   2.033  54.028  1.00  0.00    -0.385 N 
HETATM   12  C9  UNL     1      28.312   0.802  53.786  1.00  0.00     0.039 A 
HETATM   13  H10 UNL     1      28.030   2.793  54.677  1.00  0.00     0.160 HD
HETATM   14  C10 UNL     1      29.616   0.399  53.982  1.00  0.00     0.030 A 
HETATM   15  C11 UNL     1      29.912  -0.921  53.625  1.00  0.00     0.002 A 
HETATM   16  C12 UNL     1      29.008  -1.811  53.105  1.00  0.00     0.001 A 
HETATM   17  C13 UNL     1      27.733  -1.338  52.940  1.00  0.00     0.014 A 
ENDBRANCH   3   7
BRANCH   1  18
HETATM   18  C2  UNL     1      22.397   3.977  51.636  1.00  0.00     0.114 C 
BRANCH  18  19
HETATM   19  S1  UNL     1      22.890   3.929  49.914  1.00  0.00    -0.169 SA
HETATM   20  C1  UNL     1      21.864   2.685  49.071  1.00  0.00     0.090 C 
ENDBRANCH  18  19
ENDBRANCH   1  18
BRANCH   5  21
HETATM   21  C17 UNL     1      20.040   0.124  53.878  1.00  0.00     0.114 C 
BRANCH  21  22
HETATM   22  S2  UNL     1      18.938  -0.499  52.627  1.00  0.00    -0.169 SA
HETATM   23  C18 UNL     1      17.650  -1.539  53.321  1.00  0.00     0.090 C 
ENDBRANCH  21  22
ENDBRANCH   5  21
BRANCH   6  24
HETATM   24  O1  UNL     1      19.979   2.776  52.633  1.00  0.00    -0.360 OA
HETATM   25  H21 UNL     1      19.149   2.355  53.061  1.00  0.00     0.217 HD
ENDBRANCH   6  24
TORSDOF 6
ENDMDL
MODEL 5
REMARK VINA RESULT:      -7.2      3.163      6.329
REMARK  6 active torsions:
REMARK  status: ('A' for Active; 'I' for Inactive)
REMARK    1  A    between atoms: S1_2  and  C2_3 
REMARK    2  A    between atoms: C2_3  and  C3_4 
REMARK    3  A    between atoms: C5_6  and  C6_7 
REMARK    4  A    between atoms: C16_18  and  C17_19 
REMARK    5  A    between atoms: C17_19  and  S2_20 
REMARK    6  A    between atoms: C19_22  and  O1_23 
ROOT
HETATM    1  C3  UNL     1      25.554   1.934  52.934  1.00  0.00    -0.014 A 
HETATM    2  C4  UNL     1      24.240   1.623  52.845  1.00  0.00     0.022 A 
HETATM    3  C5  UNL     1      23.575   1.864  51.633  1.00  0.00    -0.034 A 
HETATM    4  C15 UNL     1      24.349   2.407  50.630  1.00  0.00     0.022 A 
HETATM    5  C16 UNL     1      25.696   2.735  50.693  1.00  0.00    -0.014 A 
HETATM    6  C19 UNL     1      26.307   2.481  51.898  1.00  0.00     0.079 A 
ENDROOT
BRANCH   3   7
HETATM    7  C6  UNL     1      22.164   1.535  51.522  1.00  0.00     0.021 C 
HETATM    8  C7  UNL     1      21.603   0.516  52.147  1.00  0.00    -0.027 C 
HETATM    9  C8  UNL     1      22.124  -0.512  53.056  1.00  0.00     0.159 C 
HETATM   10  C14 UNL     1      20.170   0.183  52.022  1.00  0.00    -0.002 A 
HETATM   11  N1  UNL     1      20.940  -0.833  53.869  1.00  0.00    -0.385 N 
HETATM   12  C9  UNL     1      19.793  -0.636  53.078  1.00  0.00     0.039 A 
HETATM   13  H10 UNL     1      20.941  -1.157  54.880  1.00  0.00     0.160 HD
HETATM   14  C10 UNL     1      18.503  -1.102  53.212  1.00  0.00     0.030 A 
HETATM   15  C11 UNL     1      17.597  -0.702  52.224  1.00  0.00     0.002 A 
HETATM   16  C12 UNL     1      17.909   0.104  51.159  1.00  0.00     0.001 A 
HETATM   17  C13 UNL     1      19.210   0.528  51.094  1.00  0.00     0.014 A 
ENDBRANCH   3   7
BRANCH   1  18
HETATM   18  C2  UNL     1      26.217   1.652  54.236  1.00  0.00     0.114 C 
BRANCH  18  19
HETATM   19  S1  UNL     1      26.940   0.015  54.314  1.00  0.00    -0.169 SA
HETATM   20  C1  UNL     1      28.684   0.194  54.805  1.00  0.00     0.090 C 
ENDBRANCH  18  19
ENDBRANCH   1  18
BRANCH   5  21
HETATM   21  C17 UNL     1      26.283   3.311  49.474  1.00  0.00     0.114 C 
BRANCH  21  22
HETATM   22  S2  UNL     1      26.071   5.076  49.369  1.00  0.00    -0.169 SA
HETATM   23  C18 UNL     1      27.424   5.864  48.492  1.00  0.00     0.090 C 
ENDBRANCH  21  22
ENDBRANCH   5  21
BRANCH   6  24
HETATM   24  O1  UNL     1      27.650   2.790  52.013  1.00  0.00    -0.360 OA
HETATM   25  H21 UNL     1      27.948   3.753  51.837  1.00  0.00     0.217 HD
ENDBRANCH   6  24
TORSDOF 6
ENDMDL
MODEL 6
REMARK VINA RESULT:      -7.2      3.247      6.949
REMARK  6 active torsions:
REMARK  status: ('A' for Active; 'I' for Inactive)
REMARK    1  A    between atoms: S1_2  and  C2_3 
REMARK    2  A    between atoms: C2_3  and  C3_4 
REMARK    3  A    between atoms: C5_6  and  C6_7 
REMARK    4  A    between atoms: C16_18  and  C17_19 
REMARK    5  A    between atoms: C17_19  and  S2_20 
REMARK    6  A    between atoms: C19_22  and  O1_23 
ROOT
HETATM    1  C3  UNL     1      22.693   3.633  52.198  1.00  0.00    -0.014 A 
HETATM    2  C4  UNL     1      24.000   3.342  52.388  1.00  0.00     0.022 A 
HETATM    3  C5  UNL     1      24.380   1.993  52.475  1.00  0.00    -0.034 A 
HETATM    4  C15 UNL     1      23.354   1.080  52.353  1.00  0.00     0.022 A 
HETATM    5  C16 UNL     1      22.008   1.351  52.158  1.00  0.00    -0.014 A 
HETATM    6  C19 UNL     1      21.682   2.684  52.078  1.00  0.00     0.079 A 
ENDROOT
BRANCH   3   7
HETATM    7  C6  UNL     1      25.780   1.663  52.678  1.00  0.00     0.021 C 
HETATM    8  C7  UNL     1      26.203   0.458  53.013  1.00  0.00    -0.027 C 
HETATM    9  C8  UNL     1      25.512  -0.812  53.266  1.00  0.00     0.159 C 
HETATM   10  C14 UNL     1      27.628   0.133  53.226  1.00  0.00    -0.002 A 
HETATM   11  N1  UNL     1      26.538  -1.800  52.893  1.00  0.00    -0.385 N 
HETATM   12  C9  UNL     1      27.804  -1.241  53.149  1.00  0.00     0.039 A 
HETATM   13  H10 UNL     1      26.362  -2.769  52.497  1.00  0.00     0.160 HD
HETATM   14  C10 UNL     1      29.042  -1.827  53.312  1.00  0.00     0.030 A 
HETATM   15  C11 UNL     1      30.108  -0.955  53.558  1.00  0.00     0.002 A 
HETATM   16  C12 UNL     1      29.997   0.409  53.645  1.00  0.00     0.001 A 
HETATM   17  C13 UNL     1      28.736   0.917  53.472  1.00  0.00     0.014 A 
ENDBRANCH   3   7
BRANCH   1  18
HETATM   18  C2  UNL     1      22.341   5.076  52.104  1.00  0.00     0.114 C 
BRANCH  18  19
HETATM   19  S1  UNL     1      22.922   5.843  50.592  1.00  0.00    -0.169 SA
HETATM   20  C1  UNL     1      24.011   7.228  51.048  1.00  0.00     0.090 C 
ENDBRANCH  18  19
ENDBRANCH   1  18
BRANCH   5  21
HETATM   21  C17 UNL     1      21.116   0.185  52.069  1.00  0.00     0.114 C 
BRANCH  21  22
HETATM   22  S2  UNL     1      20.424  -0.281  53.642  1.00  0.00    -0.169 SA
HETATM   23  C18 UNL     1      21.391  -1.558  54.452  1.00  0.00     0.090 C 
ENDBRANCH  21  22
ENDBRANCH   5  21
BRANCH   6  24
HETATM   24  O1  UNL     1      20.352   3.007  51.883  1.00  0.00    -0.360 OA
HETATM   25  H21 UNL     1      19.751   3.127  52.704  1.00  0.00     0.217 HD
ENDBRANCH   6  24
TORSDOF 6
ENDMDL
MODEL 7
REMARK VINA RESULT:      -7.1      2.907      6.141
REMARK  6 active torsions:
REMARK  status: ('A' for Active; 'I' for Inactive)
REMARK    1  A    between atoms: S1_2  and  C2_3 
REMARK    2  A    between atoms: C2_3  and  C3_4 
REMARK    3  A    between atoms: C5_6  and  C6_7 
REMARK    4  A    between atoms: C16_18  and  C17_19 
REMARK    5  A    between atoms: C17_19  and  S2_20 
REMARK    6  A    between atoms: C19_22  and  O1_23 
ROOT
HETATM    1  C3  UNL     1      25.332   2.828  50.805  1.00  0.00    -0.014 A 
HETATM    2  C4  UNL     1      24.026   2.481  50.754  1.00  0.00     0.022 A 
HETATM    3  C5  UNL     1      23.491   1.729  51.812  1.00  0.00    -0.034 A 
HETATM    4  C15 UNL     1      24.376   1.413  52.821  1.00  0.00     0.022 A 
HETATM    5  C16 UNL     1      25.718   1.755  52.898  1.00  0.00    -0.014 A 
HETATM    6  C19 UNL     1      26.199   2.492  51.842  1.00  0.00     0.079 A 
ENDROOT
BRANCH   3   7
HETATM    7  C6  UNL     1      22.089   1.349  51.772  1.00  0.00     0.021 C 
HETATM    8  C7  UNL     1      21.597   0.313  52.428  1.00  0.00    -0.027 C 
HETATM    9  C8  UNL     1      22.200  -0.691  53.313  1.00  0.00     0.159 C 
HETATM   10  C14 UNL     1      20.173  -0.071  52.376  1.00  0.00    -0.002 A 
HETATM   11  N1  UNL     1      21.069  -1.050  54.185  1.00  0.00    -0.385 N 
HETATM   12  C9  UNL     1      19.878  -0.898  53.451  1.00  0.00     0.039 A 
HETATM   13  H10 UNL     1      21.133  -1.369  55.195  1.00  0.00     0.160 HD
HETATM   14  C10 UNL     1      18.614  -1.410  53.651  1.00  0.00     0.030 A 
HETATM   15  C11 UNL     1      17.646  -1.046  52.708  1.00  0.00     0.002 A 
HETATM   16  C12 UNL     1      17.875  -0.235  51.627  1.00  0.00     0.001 A 
HETATM   17  C13 UNL     1      19.156   0.235  51.495  1.00  0.00     0.014 A 
ENDBRANCH   3   7
BRANCH   1  18
HETATM   18  C2  UNL     1      25.851   3.633  49.665  1.00  0.00     0.114 C 
BRANCH  18  19
HETATM   19  S1  UNL     1      25.327   5.345  49.720  1.00  0.00    -0.169 SA
HETATM   20  C1  UNL     1      23.905   5.533  48.600  1.00  0.00     0.090 C 
ENDBRANCH  18  19
ENDBRANCH   1  18
BRANCH   5  21
HETATM   21  C17 UNL     1      26.442   1.282  54.087  1.00  0.00     0.114 C 
BRANCH  21  22
HETATM   22  S2  UNL     1      27.420  -0.172  53.772  1.00  0.00    -0.169 SA
HETATM   23  C18 UNL     1      29.019  -0.097  54.582  1.00  0.00     0.090 C 
ENDBRANCH  21  22
ENDBRANCH   5  21
BRANCH   6  24
HETATM   24  O1  UNL     1      27.531   2.860  51.871  1.00  0.00    -0.360 OA
HETATM   25  H21 UNL     1      27.972   3.033  52.779  1.00  0.00     0.217 HD
ENDBRANCH   6  24
TORSDOF 6
ENDMDL
MODEL 8
REMARK VINA RESULT:      -7.0      1.877      4.519
REMARK  6 active torsions:
REMARK  status: ('A' for Active; 'I' for Inactive)
REMARK    1  A    between atoms: S1_2  and  C2_3 
REMARK    2  A    between atoms: C2_3  and  C3_4 
REMARK    3  A    between atoms: C5_6  and  C6_7 
REMARK    4  A    between atoms: C16_18  and  C17_19 
REMARK    5  A    between atoms: C17_19  and  S2_20 
REMARK    6  A    between atoms: C19_22  and  O1_23 
ROOT
HETATM    1  C3  UNL     1      24.598   0.308  53.173  1.00  0.00    -0.014 A 
HETATM    2  C4  UNL     1      25.154   1.295  52.434  1.00  0.00     0.022 A 
HETATM    3  C5  UNL     1      24.315   2.086  51.634  1.00  0.00    -0.034 A 
HETATM    4  C15 UNL     1      22.975   1.768  51.685  1.00  0.00     0.022 A 
HETATM    5  C16 UNL     1      22.378   0.763  52.434  1.00  0.00    -0.014 A 
HETATM    6  C19 UNL     1      23.237   0.014  53.203  1.00  0.00     0.079 A 
ENDROOT
BRANCH   3   7
HETATM    7  C6  UNL     1      24.897   3.150  50.834  1.00  0.00     0.021 C 
HETATM    8  C7  UNL     1      24.569   4.422  50.967  1.00  0.00    -0.027 C 
HETATM    9  C8  UNL     1      23.630   5.129  51.847  1.00  0.00     0.159 C 
HETATM   10  C14 UNL     1      25.159   5.497  50.144  1.00  0.00    -0.002 A 
HETATM   11  N1  UNL     1      24.255   6.457  51.960  1.00  0.00    -0.385 N 
HETATM   12  C9  UNL     1      24.955   6.720  50.768  1.00  0.00     0.039 A 
HETATM   13  H10 UNL     1      24.195   7.110  52.794  1.00  0.00     0.160 HD
HETATM   14  C10 UNL     1      25.404   7.902  50.218  1.00  0.00     0.030 A 
HETATM   15  C11 UNL     1      26.078   7.796  48.995  1.00  0.00     0.002 A 
HETATM   16  C12 UNL     1      26.309   6.619  48.332  1.00  0.00     0.001 A 
HETATM   17  C13 UNL     1      25.833   5.487  48.941  1.00  0.00     0.014 A 
ENDBRANCH   3   7
BRANCH   1  18
HETATM   18  C2  UNL     1      25.527  -0.498  54.012  1.00  0.00     0.114 C 
BRANCH  18  19
HETATM   19  S1  UNL     1      27.225  -0.425  53.447  1.00  0.00    -0.169 SA
HETATM   20  C1  UNL     1      28.255   0.135  54.840  1.00  0.00     0.090 C 
ENDBRANCH  18  19
ENDBRANCH   1  18
BRANCH   5  21
HETATM   21  C17 UNL     1      20.920   0.631  52.300  1.00  0.00     0.114 C 
BRANCH  21  22
HETATM   22  S2  UNL     1      20.336   1.010  50.661  1.00  0.00    -0.169 SA
HETATM   23  C18 UNL     1      18.592   0.633  50.464  1.00  0.00     0.090 C 
ENDBRANCH  21  22
ENDBRANCH   5  21
BRANCH   6  24
HETATM   24  O1  UNL     1      22.692  -1.000  53.968  1.00  0.00    -0.360 OA
HETATM   25  H21 UNL     1      23.237  -1.370  54.752  1.00  0.00     0.217 HD
ENDBRANCH   6  24
TORSDOF 6
ENDMDL
MODEL 9
REMARK VINA RESULT:      -7.0      4.485      8.498
REMARK  6 active torsions:
REMARK  status: ('A' for Active; 'I' for Inactive)
REMARK    1  A    between atoms: S1_2  and  C2_3 
REMARK    2  A    between atoms: C2_3  and  C3_4 
REMARK    3  A    between atoms: C5_6  and  C6_7 
REMARK    4  A    between atoms: C16_18  and  C17_19 
REMARK    5  A    between atoms: C17_19  and  S2_20 
REMARK    6  A    between atoms: C19_22  and  O1_23 
ROOT
HETATM    1  C3  UNL     1      27.299   6.109  48.335  1.00  0.00    -0.014 A 
HETATM    2  C4  UNL     1      27.427   4.906  48.941  1.00  0.00     0.022 A 
HETATM    3  C5  UNL     1      26.275   4.284  49.446  1.00  0.00    -0.034 A 
HETATM    4  C15 UNL     1      25.099   4.979  49.266  1.00  0.00     0.022 A 
HETATM    5  C16 UNL     1      24.938   6.211  48.648  1.00  0.00    -0.014 A 
HETATM    6  C19 UNL     1      26.092   6.784  48.169  1.00  0.00     0.079 A 
ENDROOT
BRANCH   3   7
HETATM    7  C6  UNL     1      26.397   2.992  50.099  1.00  0.00     0.021 C 
HETATM    8  C7  UNL     1      25.687   2.641  51.156  1.00  0.00    -0.027 C 
HETATM    9  C8  UNL     1      24.658   3.328  51.945  1.00  0.00     0.159 C 
HETATM   10  C14 UNL     1      25.823   1.329  51.820  1.00  0.00    -0.002 A 
HETATM   11  N1  UNL     1      23.855   2.203  52.451  1.00  0.00    -0.385 N 
HETATM   12  C9  UNL     1      24.700   1.087  52.599  1.00  0.00     0.039 A 
HETATM   13  H10 UNL     1      22.816   2.220  52.668  1.00  0.00     0.160 HD
HETATM   14  C10 UNL     1      24.560  -0.070  53.335  1.00  0.00     0.030 A 
HETATM   15  C11 UNL     1      25.614  -0.986  53.249  1.00  0.00     0.002 A 
HETATM   16  C12 UNL     1      26.747  -0.804  52.498  1.00  0.00     0.001 A 
HETATM   17  C13 UNL     1      26.814   0.370  51.794  1.00  0.00     0.014 A 
ENDBRANCH   3   7
BRANCH   1  18
HETATM   18  C2  UNL     1      28.547   6.725  47.808  1.00  0.00     0.114 C 
BRANCH  18  19
HETATM   19  S1  UNL     1      30.001   5.718  48.094  1.00  0.00    -0.169 SA
HETATM   20  C1  UNL     1      31.465   6.784  47.913  1.00  0.00     0.090 C 
ENDBRANCH  18  19
ENDBRANCH   1  18
BRANCH   5  21
HETATM   21  C17 UNL     1      23.566   6.738  48.596  1.00  0.00     0.114 C 
BRANCH  21  22
HETATM   22  S2  UNL     1      23.170   7.782  49.983  1.00  0.00    -0.169 SA
HETATM   23  C18 UNL     1      21.564   7.392  50.682  1.00  0.00     0.090 C 
ENDBRANCH  21  22
ENDBRANCH   5  21
BRANCH   6  24
HETATM   24  O1  UNL     1      25.986   8.012  47.544  1.00  0.00    -0.360 OA
HETATM   25  H21 UNL     1      26.224   8.079  46.551  1.00  0.00     0.217 HD
ENDBRANCH   6  24
TORSDOF 6
ENDMDL
