MODEL 1
REMARK VINA RESULT:      -8.1      0.000      0.000
REMARK  7 active torsions:
REMARK  status: ('A' for Active; 'I' for Inactive)
REMARK    1  A    between atoms: C7_7  and  O1_8 
REMARK    2  A    between atoms: O1_8  and  C8_9 
REMARK    3  A    between atoms: C8_9  and  C9_10 
REMARK       I    between atoms: C9_10  and  N1_12 
REMARK    4  A    between atoms: N1_12  and  C10_13 
REMARK    5  A    between atoms: N4_20  and  C15_21 
REMARK    6  A    between atoms: C16_22  and  C17_23 
REMARK    7  A    between atoms: C18_24  and  C19_25 
ROOT
HETATM    1  C10 UNL     1      26.064   2.641  51.389  1.00  0.00     0.133 C 
HETATM    2  C11 UNL     1      27.238   2.166  52.159  1.00  0.00     0.021 C 
HETATM    3  C12 UNL     1      27.265   1.692  53.387  1.00  0.00     0.116 C 
HETATM    4  N2  UNL     1      26.572   1.351  54.557  1.00  0.00    -0.254 NA
HETATM    5  C13 UNL     1      26.062   0.183  54.768  1.00  0.00     0.233 C 
HETATM    6  N3  UNL     1      26.478  -0.376  53.529  1.00  0.00    -0.237 NA
HETATM    7  C14 UNL     1      25.694  -0.230  52.503  1.00  0.00     0.214 C 
HETATM    8  N4  UNL     1      24.601   0.514  53.074  1.00  0.00    -0.327 N 
HETATM    9  C20 UNL     1      24.322   1.888  53.005  1.00  0.00     0.095 C 
HETATM   10  C21 UNL     1      24.928   2.805  52.299  1.00  0.00     0.020 C 
ENDROOT
BRANCH   1  11
HETATM   11  N1  UNL     1      26.465   3.892  50.767  1.00  0.00    -0.348 N 
HETATM   12  C9  UNL     1      25.875   4.495  49.632  1.00  0.00     0.242 C 
HETATM   13  O2  UNL     1      24.921   3.811  49.190  1.00  0.00    -0.271 OA
HETATM   14  H10 UNL     1      27.279   4.222  51.358  1.00  0.00     0.163 HD
BRANCH  12  15
HETATM   15  C8  UNL     1      26.576   5.766  49.315  1.00  0.00     0.278 C 
BRANCH  15  16
HETATM   16  O1  UNL     1      27.336   5.705  48.156  1.00  0.00    -0.342 OA
BRANCH  16  17
HETATM   17  C7  UNL     1      28.603   6.173  47.940  1.00  0.00     0.075 A 
HETATM   18  C2  UNL     1      28.591   7.384  47.259  1.00  0.00    -0.029 A 
HETATM   19  C1  UNL     1      27.376   8.110  46.805  1.00  0.00     0.051 C 
HETATM   20  C3  UNL     1      29.789   8.034  46.939  1.00  0.00     0.009 A 
HETATM   21  C4  UNL     1      30.963   7.424  47.326  1.00  0.00     0.001 A 
HETATM   22  C5  UNL     1      31.012   6.207  48.013  1.00  0.00     0.003 A 
HETATM   23  C6  UNL     1      29.812   5.610  48.302  1.00  0.00     0.037 A 
ENDBRANCH  16  17
ENDBRANCH  15  16
ENDBRANCH  12  15
ENDBRANCH   1  11
BRANCH   8  24
HETATM   24  C15 UNL     1      23.774  -0.401  53.779  1.00  0.00     0.097 C 
HETATM   25  C16 UNL     1      22.576  -0.825  53.454  1.00  0.00     0.017 C 
BRANCH  25  26
HETATM   26  C17 UNL     1      21.804  -1.768  54.245  1.00  0.00    -0.002 C 
HETATM   27  C18 UNL     1      20.488  -1.744  54.263  1.00  0.00    -0.016 C 
BRANCH  27  28
HETATM   28  C19 UNL     1      19.588  -0.818  53.537  1.00  0.00     0.112 C 
HETATM   29 BR1  UNL     1      17.890  -1.762  53.355  1.00  0.00    -0.092 Br
ENDBRANCH  27  28
ENDBRANCH  25  26
ENDBRANCH   8  24
TORSDOF 7
ENDMDL
MODEL 2
REMARK VINA RESULT:      -7.9      3.567      4.894
REMARK  7 active torsions:
REMARK  status: ('A' for Active; 'I' for Inactive)
REMARK    1  A    between atoms: C7_7  and  O1_8 
REMARK    2  A    between atoms: O1_8  and  C8_9 
REMARK    3  A    between atoms: C8_9  and  C9_10 
REMARK       I    between atoms: C9_10  and  N1_12 
REMARK    4  A    between atoms: N1_12  and  C10_13 
REMARK    5  A    between atoms: N4_20  and  C15_21 
REMARK    6  A    between atoms: C16_22  and  C17_23 
REMARK    7  A    between atoms: C18_24  and  C19_25 
ROOT
HETATM    1  C10 UNL     1      25.949   5.644  49.448  1.00  0.00     0.133 C 
HETATM    2  C11 UNL     1      24.504   5.570  49.130  1.00  0.00     0.021 C 
HETATM    3  C12 UNL     1      23.760   4.494  48.981  1.00  0.00     0.116 C 
HETATM    4  N2  UNL     1      23.660   3.096  48.979  1.00  0.00    -0.254 NA
HETATM    5  C13 UNL     1      23.382   2.399  50.031  1.00  0.00     0.233 C 
HETATM    6  N3  UNL     1      23.271   3.512  50.908  1.00  0.00    -0.237 NA
HETATM    7  C14 UNL     1      24.352   3.939  51.488  1.00  0.00     0.214 C 
HETATM    8  N4  UNL     1      25.342   3.032  50.967  1.00  0.00    -0.327 N 
HETATM    9  C20 UNL     1      26.273   3.221  49.935  1.00  0.00     0.095 C 
HETATM   10  C21 UNL     1      26.547   4.318  49.278  1.00  0.00     0.020 C 
ENDROOT
BRANCH   1  11
HETATM   11  N1  UNL     1      26.514   6.630  48.541  1.00  0.00    -0.348 N 
HETATM   12  C9  UNL     1      26.952   7.932  48.879  1.00  0.00     0.242 C 
HETATM   13  O2  UNL     1      26.798   8.167  50.102  1.00  0.00    -0.271 OA
HETATM   14  H10 UNL     1      26.514   6.143  47.601  1.00  0.00     0.163 HD
BRANCH  12  15
HETATM   15  C8  UNL     1      27.465   8.622  47.667  1.00  0.00     0.278 C 
BRANCH  15  16
HETATM   16  O1  UNL     1      28.847   8.734  47.638  1.00  0.00    -0.342 OA
BRANCH  16  17
HETATM   17  C7  UNL     1      29.786   7.830  48.055  1.00  0.00     0.075 A 
HETATM   18  C2  UNL     1      30.647   8.386  48.994  1.00  0.00    -0.029 A 
HETATM   19  C1  UNL     1      30.588   9.782  49.504  1.00  0.00     0.051 C 
HETATM   20  C3  UNL     1      31.682   7.626  49.550  1.00  0.00     0.009 A 
HETATM   21  C4  UNL     1      31.805   6.320  49.129  1.00  0.00     0.001 A 
HETATM   22  C5  UNL     1      30.957   5.728  48.187  1.00  0.00     0.003 A 
HETATM   23  C6  UNL     1      29.959   6.514  47.672  1.00  0.00     0.037 A 
ENDBRANCH  16  17
ENDBRANCH  15  16
ENDBRANCH  12  15
ENDBRANCH   1  11
BRANCH   8  24
HETATM   24  C15 UNL     1      25.240   1.815  51.693  1.00  0.00     0.097 C 
HETATM   25  C16 UNL     1      26.186   0.942  51.947  1.00  0.00     0.017 C 
BRANCH  25  26
HETATM   26  C17 UNL     1      25.983  -0.281  52.703  1.00  0.00    -0.002 C 
HETATM   27  C18 UNL     1      26.716  -0.575  53.756  1.00  0.00    -0.016 C 
BRANCH  27  28
HETATM   28  C19 UNL     1      27.819   0.221  54.344  1.00  0.00     0.112 C 
HETATM   29 BR1  UNL     1      29.468  -0.601  53.702  1.00  0.00    -0.092 Br
ENDBRANCH  27  28
ENDBRANCH  25  26
ENDBRANCH   8  24
TORSDOF 7
ENDMDL
MODEL 3
REMARK VINA RESULT:      -7.7      4.297      9.878
REMARK  7 active torsions:
REMARK  status: ('A' for Active; 'I' for Inactive)
REMARK    1  A    between atoms: C7_7  and  O1_8 
REMARK    2  A    between atoms: O1_8  and  C8_9 
REMARK    3  A    between atoms: C8_9  and  C9_10 
REMARK       I    between atoms: C9_10  and  N1_12 
REMARK    4  A    between atoms: N1_12  and  C10_13 
REMARK    5  A    between atoms: N4_20  and  C15_21 
REMARK    6  A    between atoms: C16_22  and  C17_23 
REMARK    7  A    between atoms: C18_24  and  C19_25 
ROOT
HETATM    1  C10 UNL     1      23.875   3.929  49.393  1.00  0.00     0.133 C 
HETATM    2  C11 UNL     1      23.312   5.190  49.931  1.00  0.00     0.021 C 
HETATM    3  C12 UNL     1      23.961   6.209  50.455  1.00  0.00     0.116 C 
HETATM    4  N2  UNL     1      25.180   6.792  50.826  1.00  0.00    -0.254 NA
HETATM    5  C13 UNL     1      25.883   7.536  50.038  1.00  0.00     0.233 C 
HETATM    6  N3  UNL     1      24.993   7.449  48.934  1.00  0.00    -0.237 NA
HETATM    7  C14 UNL     1      25.139   6.454  48.111  1.00  0.00     0.214 C 
HETATM    8  N4  UNL     1      26.257   5.756  48.693  1.00  0.00    -0.327 N 
HETATM    9  C20 UNL     1      26.272   4.603  49.494  1.00  0.00     0.095 C 
HETATM   10  C21 UNL     1      25.277   3.816  49.803  1.00  0.00     0.020 C 
ENDROOT
BRANCH   1  11
HETATM   11  N1  UNL     1      23.050   2.857  49.927  1.00  0.00    -0.348 N 
HETATM   12  C9  UNL     1      22.334   1.893  49.179  1.00  0.00     0.242 C 
HETATM   13  O2  UNL     1      22.488   2.060  47.946  1.00  0.00    -0.271 OA
HETATM   14  H10 UNL     1      23.120   2.978  50.977  1.00  0.00     0.163 HD
BRANCH  12  15
HETATM   15  C8  UNL     1      21.618   0.971  50.099  1.00  0.00     0.278 C 
BRANCH  15  16
HETATM   16  O1  UNL     1      21.894   1.201  51.439  1.00  0.00    -0.342 OA
BRANCH  16  17
HETATM   17  C7  UNL     1      21.809   0.330  52.490  1.00  0.00     0.075 A 
HETATM   18  C2  UNL     1      23.050   0.113  53.076  1.00  0.00    -0.029 A 
HETATM   19  C1  UNL     1      24.332   0.731  52.643  1.00  0.00     0.051 C 
HETATM   20  C3  UNL     1      23.181  -0.748  54.171  1.00  0.00     0.009 A 
HETATM   21  C4  UNL     1      22.037  -1.362  54.634  1.00  0.00     0.001 A 
HETATM   22  C5  UNL     1      20.772  -1.167  54.069  1.00  0.00     0.003 A 
HETATM   23  C6  UNL     1      20.697  -0.314  52.998  1.00  0.00     0.037 A 
ENDBRANCH  16  17
ENDBRANCH  15  16
ENDBRANCH  12  15
ENDBRANCH   1  11
BRANCH   8  24
HETATM   24  C15 UNL     1      27.440   6.446  48.322  1.00  0.00     0.097 C 
HETATM   25  C16 UNL     1      28.657   5.967  48.211  1.00  0.00     0.017 C 
BRANCH  25  26
HETATM   26  C17 UNL     1      29.811   6.758  47.823  1.00  0.00    -0.002 C 
HETATM   27  C18 UNL     1      30.968   6.201  47.531  1.00  0.00    -0.016 C 
BRANCH  27  28
HETATM   28  C19 UNL     1      31.307   4.759  47.538  1.00  0.00     0.112 C 
HETATM   29 BR1  UNL     1      33.255   4.671  47.492  1.00  0.00    -0.092 Br
ENDBRANCH  27  28
ENDBRANCH  25  26
ENDBRANCH   8  24
TORSDOF 7
ENDMDL
MODEL 4
REMARK VINA RESULT:      -7.6      3.751      5.350
REMARK  7 active torsions:
REMARK  status: ('A' for Active; 'I' for Inactive)
REMARK    1  A    between atoms: C7_7  and  O1_8 
REMARK    2  A    between atoms: O1_8  and  C8_9 
REMARK    3  A    between atoms: C8_9  and  C9_10 
REMARK       I    between atoms: C9_10  and  N1_12 
REMARK    4  A    between atoms: N1_12  and  C10_13 
REMARK    5  A    between atoms: N4_20  and  C15_21 
REMARK    6  A    between atoms: C16_22  and  C17_23 
REMARK    7  A    between atoms: C18_24  and  C19_25 
ROOT
HETATM    1  C10 UNL     1      26.036   5.588  49.496  1.00  0.00     0.133 C 
HETATM    2  C11 UNL     1      24.584   5.526  49.208  1.00  0.00     0.021 C 
HETATM    3  C12 UNL     1      23.829   4.456  49.068  1.00  0.00     0.116 C 
HETATM    4  N2  UNL     1      23.719   3.059  49.057  1.00  0.00    -0.254 NA
HETATM    5  C13 UNL     1      23.459   2.356  50.110  1.00  0.00     0.233 C 
HETATM    6  N3  UNL     1      23.375   3.463  50.998  1.00  0.00    -0.237 NA
HETATM    7  C14 UNL     1      24.471   3.879  51.557  1.00  0.00     0.214 C 
HETATM    8  N4  UNL     1      25.443   2.968  51.008  1.00  0.00    -0.327 N 
HETATM    9  C20 UNL     1      26.353   3.159  49.957  1.00  0.00     0.095 C 
HETATM   10  C21 UNL     1      26.620   4.258  49.303  1.00  0.00     0.020 C 
ENDROOT
BRANCH   1  11
HETATM   11  N1  UNL     1      26.589   6.576  48.584  1.00  0.00    -0.348 N 
HETATM   12  C9  UNL     1      26.931   7.912  48.898  1.00  0.00     0.242 C 
HETATM   13  O2  UNL     1      26.700   8.177  50.102  1.00  0.00    -0.271 OA
HETATM   14  H10 UNL     1      26.666   6.060  47.663  1.00  0.00     0.163 HD
BRANCH  12  15
HETATM   15  C8  UNL     1      27.465   8.593  47.689  1.00  0.00     0.278 C 
BRANCH  15  16
HETATM   16  O1  UNL     1      28.736   9.118  47.866  1.00  0.00    -0.342 OA
BRANCH  16  17
HETATM   17  C7  UNL     1      29.092  10.374  48.277  1.00  0.00     0.075 A 
HETATM   18  C2  UNL     1      30.473  10.521  48.330  1.00  0.00    -0.029 A 
HETATM   19  C1  UNL     1      31.470   9.470  47.992  1.00  0.00     0.051 C 
HETATM   20  C3  UNL     1      31.045  11.735  48.728  1.00  0.00     0.009 A 
HETATM   21  C4  UNL     1      30.187  12.761  49.058  1.00  0.00     0.001 A 
HETATM   22  C5  UNL     1      28.794  12.648  49.015  1.00  0.00     0.003 A 
HETATM   23  C6  UNL     1      28.283  11.439  48.620  1.00  0.00     0.037 A 
ENDBRANCH  16  17
ENDBRANCH  15  16
ENDBRANCH  12  15
ENDBRANCH   1  11
BRANCH   8  24
HETATM   24  C15 UNL     1      25.348   1.747  51.727  1.00  0.00     0.097 C 
HETATM   25  C16 UNL     1      26.261   0.814  51.863  1.00  0.00     0.017 C 
BRANCH  25  26
HETATM   26  C17 UNL     1      26.069  -0.408  52.623  1.00  0.00    -0.002 C 
HETATM   27  C18 UNL     1      26.756  -0.660  53.718  1.00  0.00    -0.016 C 
BRANCH  27  28
HETATM   28  C19 UNL     1      27.790   0.189  54.353  1.00  0.00     0.112 C 
HETATM   29 BR1  UNL     1      29.503  -0.490  53.709  1.00  0.00    -0.092 Br
ENDBRANCH  27  28
ENDBRANCH  25  26
ENDBRANCH   8  24
TORSDOF 7
ENDMDL
MODEL 5
REMARK VINA RESULT:      -7.6      4.180     10.588
REMARK  7 active torsions:
REMARK  status: ('A' for Active; 'I' for Inactive)
REMARK    1  A    between atoms: C7_7  and  O1_8 
REMARK    2  A    between atoms: O1_8  and  C8_9 
REMARK    3  A    between atoms: C8_9  and  C9_10 
REMARK       I    between atoms: C9_10  and  N1_12 
REMARK    4  A    between atoms: N1_12  and  C10_13 
REMARK    5  A    between atoms: N4_20  and  C15_21 
REMARK    6  A    between atoms: C16_22  and  C17_23 
REMARK    7  A    between atoms: C18_24  and  C19_25 
ROOT
HETATM    1  C10 UNL     1      21.145   1.973  51.533  1.00  0.00     0.133 C 
HETATM    2  C11 UNL     1      21.764   1.478  52.785  1.00  0.00     0.021 C 
HETATM    3  C12 UNL     1      23.015   1.121  52.986  1.00  0.00     0.116 C 
HETATM    4  N2  UNL     1      24.310   0.949  52.477  1.00  0.00    -0.254 NA
HETATM    5  C13 UNL     1      25.211   1.875  52.493  1.00  0.00     0.233 C 
HETATM    6  N3  UNL     1      24.393   2.853  53.122  1.00  0.00    -0.237 NA
HETATM    7  C14 UNL     1      23.649   3.602  52.365  1.00  0.00     0.214 C 
HETATM    8  N4  UNL     1      23.972   3.103  51.053  1.00  0.00    -0.327 N 
HETATM    9  C20 UNL     1      23.257   2.218  50.232  1.00  0.00     0.095 C 
HETATM   10  C21 UNL     1      22.060   1.727  50.416  1.00  0.00     0.020 C 
ENDROOT
BRANCH   1  11
HETATM   11  N1  UNL     1      19.887   1.257  51.391  1.00  0.00    -0.348 N 
HETATM   12  C9  UNL     1      18.590   1.784  51.593  1.00  0.00     0.242 C 
HETATM   13  O2  UNL     1      18.631   2.994  51.923  1.00  0.00    -0.271 OA
HETATM   14  H10 UNL     1      20.180   0.279  51.110  1.00  0.00     0.163 HD
BRANCH  12  15
HETATM   15  C8  UNL     1      17.573   0.730  51.346  1.00  0.00     0.278 C 
BRANCH  15  16
HETATM   16  O1  UNL     1      17.142   0.096  52.502  1.00  0.00    -0.342 OA
BRANCH  16  17
HETATM   17  C7  UNL     1      16.812  -1.220  52.682  1.00  0.00     0.075 A 
HETATM   18  C2  UNL     1      17.822  -1.915  53.336  1.00  0.00    -0.029 A 
HETATM   19  C1  UNL     1      19.112  -1.337  53.797  1.00  0.00     0.051 C 
HETATM   20  C3  UNL     1      17.681  -3.278  53.618  1.00  0.00     0.009 A 
HETATM   21  C4  UNL     1      16.511  -3.889  53.223  1.00  0.00     0.001 A 
HETATM   22  C5  UNL     1      15.474  -3.221  52.564  1.00  0.00     0.003 A 
HETATM   23  C6  UNL     1      15.661  -1.887  52.310  1.00  0.00     0.037 A 
ENDBRANCH  16  17
ENDBRANCH  15  16
ENDBRANCH  12  15
ENDBRANCH   1  11
BRANCH   8  24
HETATM   24  C15 UNL     1      25.215   3.670  50.667  1.00  0.00     0.097 C 
HETATM   25  C16 UNL     1      25.734   3.743  49.464  1.00  0.00     0.017 C 
BRANCH  25  26
HETATM   26  C17 UNL     1      27.022   4.346  49.167  1.00  0.00    -0.002 C 
HETATM   27  C18 UNL     1      27.124   5.580  48.722  1.00  0.00    -0.016 C 
BRANCH  27  28
HETATM   28  C19 UNL     1      26.028   6.539  48.450  1.00  0.00     0.112 C 
HETATM   29 BR1  UNL     1      25.814   7.579  50.087  1.00  0.00    -0.092 Br
ENDBRANCH  27  28
ENDBRANCH  25  26
ENDBRANCH   8  24
TORSDOF 7
ENDMDL
MODEL 6
REMARK VINA RESULT:      -7.4      3.894      6.447
REMARK  7 active torsions:
REMARK  status: ('A' for Active; 'I' for Inactive)
REMARK    1  A    between atoms: C7_7  and  O1_8 
REMARK    2  A    between atoms: O1_8  and  C8_9 
REMARK    3  A    between atoms: C8_9  and  C9_10 
REMARK       I    between atoms: C9_10  and  N1_12 
REMARK    4  A    between atoms: N1_12  and  C10_13 
REMARK    5  A    between atoms: N4_20  and  C15_21 
REMARK    6  A    between atoms: C16_22  and  C17_23 
REMARK    7  A    between atoms: C18_24  and  C19_25 
ROOT
HETATM    1  C10 UNL     1      28.059   6.681  48.481  1.00  0.00     0.133 C 
HETATM    2  C11 UNL     1      27.164   7.689  47.866  1.00  0.00     0.021 C 
HETATM    3  C12 UNL     1      25.868   7.598  47.648  1.00  0.00     0.116 C 
HETATM    4  N2  UNL     1      24.687   6.849  47.737  1.00  0.00    -0.254 NA
HETATM    5  C13 UNL     1      23.895   6.886  48.757  1.00  0.00     0.233 C 
HETATM    6  N3  UNL     1      24.666   7.822  49.498  1.00  0.00    -0.237 NA
HETATM    7  C14 UNL     1      25.612   7.364  50.260  1.00  0.00     0.214 C 
HETATM    8  N4  UNL     1      25.503   5.944  50.039  1.00  0.00    -0.327 N 
HETATM    9  C20 UNL     1      26.274   5.105  49.219  1.00  0.00     0.095 C 
HETATM   10  C21 UNL     1      27.358   5.396  48.551  1.00  0.00     0.020 C 
ENDROOT
BRANCH   1  11
HETATM   11  N1  UNL     1      29.244   6.624  47.641  1.00  0.00    -0.348 N 
HETATM   12  C9  UNL     1      30.487   7.250  47.895  1.00  0.00     0.242 C 
HETATM   13  O2  UNL     1      30.468   7.893  48.972  1.00  0.00    -0.271 OA
HETATM   14  H10 UNL     1      28.950   6.018  46.824  1.00  0.00     0.163 HD
BRANCH  12  15
HETATM   15  C8  UNL     1      31.438   6.946  46.794  1.00  0.00     0.278 C 
BRANCH  15  16
HETATM   16  O1  UNL     1      32.547   6.221  47.206  1.00  0.00    -0.342 OA
BRANCH  16  17
HETATM   17  C7  UNL     1      32.744   4.868  47.170  1.00  0.00     0.075 A 
HETATM   18  C2  UNL     1      33.948   4.511  47.766  1.00  0.00    -0.029 A 
HETATM   19  C1  UNL     1      34.925   5.452  48.376  1.00  0.00     0.051 C 
HETATM   20  C3  UNL     1      34.339   3.169  47.834  1.00  0.00     0.009 A 
HETATM   21  C4  UNL     1      33.487   2.233  47.290  1.00  0.00     0.001 A 
HETATM   22  C5  UNL     1      32.268   2.555  46.683  1.00  0.00     0.003 A 
HETATM   23  C6  UNL     1      31.931   3.884  46.642  1.00  0.00     0.037 A 
ENDBRANCH  16  17
ENDBRANCH  15  16
ENDBRANCH  12  15
ENDBRANCH   1  11
BRANCH   8  24
HETATM   24  C15 UNL     1      24.419   5.465  50.821  1.00  0.00     0.097 C 
HETATM   25  C16 UNL     1      24.235   4.255  51.295  1.00  0.00     0.017 C 
BRANCH  25  26
HETATM   26  C17 UNL     1      23.086   3.858  52.091  1.00  0.00    -0.002 C 
HETATM   27  C18 UNL     1      22.711   2.600  52.188  1.00  0.00    -0.016 C 
BRANCH  27  28
HETATM   28  C19 UNL     1      23.335   1.416  51.553  1.00  0.00     0.112 C 
HETATM   29 BR1  UNL     1      24.393   0.560  52.952  1.00  0.00    -0.092 Br
ENDBRANCH  27  28
ENDBRANCH  25  26
ENDBRANCH   8  24
TORSDOF 7
ENDMDL
MODEL 7
REMARK VINA RESULT:      -7.4      4.417      9.952
REMARK  7 active torsions:
REMARK  status: ('A' for Active; 'I' for Inactive)
REMARK    1  A    between atoms: C7_7  and  O1_8 
REMARK    2  A    between atoms: O1_8  and  C8_9 
REMARK    3  A    between atoms: C8_9  and  C9_10 
REMARK       I    between atoms: C9_10  and  N1_12 
REMARK    4  A    between atoms: N1_12  and  C10_13 
REMARK    5  A    between atoms: N4_20  and  C15_21 
REMARK    6  A    between atoms: C16_22  and  C17_23 
REMARK    7  A    between atoms: C18_24  and  C19_25 
ROOT
HETATM    1  C10 UNL     1      25.074   5.266  49.013  1.00  0.00     0.133 C 
HETATM    2  C11 UNL     1      24.646   6.491  49.728  1.00  0.00     0.021 C 
HETATM    3  C12 UNL     1      25.383   7.524  50.080  1.00  0.00     0.116 C 
HETATM    4  N2  UNL     1      26.638   8.147  50.111  1.00  0.00    -0.254 NA
HETATM    5  C13 UNL     1      27.065   8.935  49.181  1.00  0.00     0.233 C 
HETATM    6  N3  UNL     1      25.902   8.837  48.371  1.00  0.00    -0.237 NA
HETATM    7  C14 UNL     1      25.841   7.867  47.508  1.00  0.00     0.214 C 
HETATM    8  N4  UNL     1      27.100   7.201  47.729  1.00  0.00    -0.327 N 
HETATM    9  C20 UNL     1      27.378   6.034  48.455  1.00  0.00     0.095 C 
HETATM   10  C21 UNL     1      26.537   5.200  49.007  1.00  0.00     0.020 C 
ENDROOT
BRANCH   1  11
HETATM   11  N1  UNL     1      24.469   4.150  49.723  1.00  0.00    -0.348 N 
HETATM   12  C9  UNL     1      23.377   3.365  49.284  1.00  0.00     0.242 C 
HETATM   13  O2  UNL     1      22.958   3.744  48.164  1.00  0.00    -0.271 OA
HETATM   14  H10 UNL     1      25.033   4.079  50.616  1.00  0.00     0.163 HD
BRANCH  12  15
HETATM   15  C8  UNL     1      23.065   2.325  50.298  1.00  0.00     0.278 C 
BRANCH  15  16
HETATM   16  O1  UNL     1      23.940   2.321  51.375  1.00  0.00    -0.342 OA
BRANCH  16  17
HETATM   17  C7  UNL     1      24.343   1.263  52.143  1.00  0.00     0.075 A 
HETATM   18  C2  UNL     1      25.720   1.084  52.083  1.00  0.00    -0.029 A 
HETATM   19  C1  UNL     1      26.668   1.915  51.294  1.00  0.00     0.051 C 
HETATM   20  C3  UNL     1      26.336   0.052  52.800  1.00  0.00     0.009 A 
HETATM   21  C4  UNL     1      25.524  -0.764  53.558  1.00  0.00     0.001 A 
HETATM   22  C5  UNL     1      24.137  -0.613  53.643  1.00  0.00     0.003 A 
HETATM   23  C6  UNL     1      23.581   0.412  52.921  1.00  0.00     0.037 A 
ENDBRANCH  16  17
ENDBRANCH  15  16
ENDBRANCH  12  15
ENDBRANCH   1  11
BRANCH   8  24
HETATM   24  C15 UNL     1      28.107   7.947  47.061  1.00  0.00     0.097 C 
HETATM   25  C16 UNL     1      29.338   7.582  46.788  1.00  0.00     0.017 C 
BRANCH  25  26
HETATM   26  C17 UNL     1      30.301   8.421  46.097  1.00  0.00    -0.002 C 
HETATM   27  C18 UNL     1      31.247   9.070  46.744  1.00  0.00    -0.016 C 
BRANCH  27  28
HETATM   28  C19 UNL     1      31.504   9.079  48.203  1.00  0.00     0.112 C 
HETATM   29 BR1  UNL     1      30.649  10.695  48.883  1.00  0.00    -0.092 Br
ENDBRANCH  27  28
ENDBRANCH  25  26
ENDBRANCH   8  24
TORSDOF 7
ENDMDL
MODEL 8
REMARK VINA RESULT:      -7.4      5.123     10.287
REMARK  7 active torsions:
REMARK  status: ('A' for Active; 'I' for Inactive)
REMARK    1  A    between atoms: C7_7  and  O1_8 
REMARK    2  A    between atoms: O1_8  and  C8_9 
REMARK    3  A    between atoms: C8_9  and  C9_10 
REMARK       I    between atoms: C9_10  and  N1_12 
REMARK    4  A    between atoms: N1_12  and  C10_13 
REMARK    5  A    between atoms: N4_20  and  C15_21 
REMARK    6  A    between atoms: C16_22  and  C17_23 
REMARK    7  A    between atoms: C18_24  and  C19_25 
ROOT
HETATM    1  C10 UNL     1      26.113   5.546  49.380  1.00  0.00     0.133 C 
HETATM    2  C11 UNL     1      25.662   6.769  50.084  1.00  0.00     0.021 C 
HETATM    3  C12 UNL     1      26.223   7.960  50.081  1.00  0.00     0.116 C 
HETATM    4  N2  UNL     1      27.257   8.798  49.642  1.00  0.00    -0.254 NA
HETATM    5  C13 UNL     1      27.195   9.497  48.556  1.00  0.00     0.233 C 
HETATM    6  N3  UNL     1      25.893   9.064  48.187  1.00  0.00    -0.237 NA
HETATM    7  C14 UNL     1      25.790   7.978  47.482  1.00  0.00     0.214 C 
HETATM    8  N4  UNL     1      27.171   7.594  47.334  1.00  0.00    -0.327 N 
HETATM    9  C20 UNL     1      27.909   6.623  48.028  1.00  0.00     0.095 C 
HETATM   10  C21 UNL     1      27.482   5.747  48.898  1.00  0.00     0.020 C 
ENDROOT
BRANCH   1  11
HETATM   11  N1  UNL     1      26.016   4.463  50.345  1.00  0.00    -0.348 N 
HETATM   12  C9  UNL     1      25.174   3.330  50.258  1.00  0.00     0.242 C 
HETATM   13  O2  UNL     1      24.482   3.350  49.211  1.00  0.00    -0.271 OA
HETATM   14  H10 UNL     1      26.709   4.730  51.100  1.00  0.00     0.163 HD
BRANCH  12  15
HETATM   15  C8  UNL     1      25.375   2.459  51.445  1.00  0.00     0.278 C 
BRANCH  15  16
HETATM   16  O1  UNL     1      26.589   1.789  51.440  1.00  0.00    -0.342 OA
BRANCH  16  17
HETATM   17  C7  UNL     1      27.427   1.533  52.491  1.00  0.00     0.075 A 
HETATM   18  C2  UNL     1      27.428   0.184  52.826  1.00  0.00    -0.029 A 
HETATM   19  C1  UNL     1      26.632  -0.877  52.152  1.00  0.00     0.051 C 
HETATM   20  C3  UNL     1      28.221  -0.289  53.877  1.00  0.00     0.009 A 
HETATM   21  C4  UNL     1      28.990   0.633  54.554  1.00  0.00     0.001 A 
HETATM   22  C5  UNL     1      29.015   1.997  54.244  1.00  0.00     0.003 A 
HETATM   23  C6  UNL     1      28.220   2.410  53.206  1.00  0.00     0.037 A 
ENDBRANCH  16  17
ENDBRANCH  15  16
ENDBRANCH  12  15
ENDBRANCH   1  11
BRANCH   8  24
HETATM   24  C15 UNL     1      27.736   8.397  46.308  1.00  0.00     0.097 C 
HETATM   25  C16 UNL     1      28.881   8.232  45.688  1.00  0.00     0.017 C 
BRANCH  25  26
HETATM   26  C17 UNL     1      29.377   9.114  44.646  1.00  0.00    -0.002 C 
HETATM   27  C18 UNL     1      30.571   9.664  44.712  1.00  0.00    -0.016 C 
BRANCH  27  28
HETATM   28  C19 UNL     1      31.581   9.510  45.785  1.00  0.00     0.112 C 
HETATM   29 BR1  UNL     1      32.600  11.174  45.798  1.00  0.00    -0.092 Br
ENDBRANCH  27  28
ENDBRANCH  25  26
ENDBRANCH   8  24
TORSDOF 7
ENDMDL
MODEL 9
REMARK VINA RESULT:      -7.3      2.921      4.222
REMARK  7 active torsions:
REMARK  status: ('A' for Active; 'I' for Inactive)
REMARK    1  A    between atoms: C7_7  and  O1_8 
REMARK    2  A    between atoms: O1_8  and  C8_9 
REMARK    3  A    between atoms: C8_9  and  C9_10 
REMARK       I    between atoms: C9_10  and  N1_12 
REMARK    4  A    between atoms: N1_12  and  C10_13 
REMARK    5  A    between atoms: N4_20  and  C15_21 
REMARK    6  A    between atoms: C16_22  and  C17_23 
REMARK    7  A    between atoms: C18_24  and  C19_25 
ROOT
HETATM    1  C10 UNL     1      25.687   5.528  49.874  1.00  0.00     0.133 C 
HETATM    2  C11 UNL     1      24.971   6.513  50.719  1.00  0.00     0.021 C 
HETATM    3  C12 UNL     1      23.674   6.614  50.925  1.00  0.00     0.116 C 
HETATM    4  N2  UNL     1      22.380   6.139  50.674  1.00  0.00    -0.254 NA
HETATM    5  C13 UNL     1      21.804   5.229  51.388  1.00  0.00     0.233 C 
HETATM    6  N3  UNL     1      22.892   5.046  52.284  1.00  0.00    -0.237 NA
HETATM    7  C14 UNL     1      23.814   4.193  51.955  1.00  0.00     0.214 C 
HETATM    8  N4  UNL     1      23.330   3.715  50.685  1.00  0.00    -0.327 N 
HETATM    9  C20 UNL     1      23.726   4.070  49.386  1.00  0.00     0.095 C 
HETATM   10  C21 UNL     1      24.720   4.835  49.020  1.00  0.00     0.020 C 
ENDROOT
BRANCH   1  11
HETATM   11  N1  UNL     1      26.664   6.286  49.108  1.00  0.00    -0.348 N 
HETATM   12  C9  UNL     1      27.822   5.773  48.480  1.00  0.00     0.242 C 
HETATM   13  O2  UNL     1      27.932   4.535  48.655  1.00  0.00    -0.271 OA
HETATM   14  H10 UNL     1      26.300   7.280  49.141  1.00  0.00     0.163 HD
BRANCH  12  15
HETATM   15  C8  UNL     1      28.555   6.872  47.799  1.00  0.00     0.278 C 
BRANCH  15  16
HETATM   16  O1  UNL     1      29.587   7.403  48.558  1.00  0.00    -0.342 OA
BRANCH  16  17
HETATM   17  C7  UNL     1      30.907   7.043  48.577  1.00  0.00     0.075 A 
HETATM   18  C2  UNL     1      31.739   8.155  48.545  1.00  0.00    -0.029 A 
HETATM   19  C1  UNL     1      31.291   9.572  48.496  1.00  0.00     0.051 C 
HETATM   20  C3  UNL     1      33.131   8.004  48.556  1.00  0.00     0.009 A 
HETATM   21  C4  UNL     1      33.628   6.720  48.601  1.00  0.00     0.001 A 
HETATM   22  C5  UNL     1      32.820   5.578  48.635  1.00  0.00     0.003 A 
HETATM   23  C6  UNL     1      31.464   5.779  48.621  1.00  0.00     0.037 A 
ENDBRANCH  16  17
ENDBRANCH  15  16
ENDBRANCH  12  15
ENDBRANCH   1  11
BRANCH   8  24
HETATM   24  C15 UNL     1      22.311   2.759  50.941  1.00  0.00     0.097 C 
HETATM   25  C16 UNL     1      22.276   1.497  50.583  1.00  0.00     0.017 C 
BRANCH  25  26
HETATM   26  C17 UNL     1      21.182   0.593  50.893  1.00  0.00    -0.002 C 
HETATM   27  C18 UNL     1      21.166  -0.123  51.998  1.00  0.00    -0.016 C 
BRANCH  27  28
HETATM   28  C19 UNL     1      22.185  -0.153  53.073  1.00  0.00     0.112 C 
HETATM   29 BR1  UNL     1      21.483  -1.361  54.435  1.00  0.00    -0.092 Br
ENDBRANCH  27  28
ENDBRANCH  25  26
ENDBRANCH   8  24
TORSDOF 7
ENDMDL
