MODEL 1
REMARK VINA RESULT:      -7.5      0.000      0.000
REMARK  6 active torsions:
REMARK  status: ('A' for Active; 'I' for Inactive)
REMARK    1  A    between atoms: O1_2  and  C2_3 
REMARK    2  A    between atoms: C7_8  and  O2_9 
REMARK    3  A    between atoms: C11_16  and  N3_17 
REMARK    4  A    between atoms: N3_17  and  C12_18 
REMARK    5  A    between atoms: C13_19  and  C14_20 
REMARK    6  A    between atoms: C15_21  and  C16_22 
ROOT
HETATM    1  C2  UNL     1      28.141   6.365  48.326  1.00  0.00     0.102 A 
HETATM    2  C3  UNL     1      27.813   5.039  48.599  1.00  0.00     0.051 A 
HETATM    3  C4  UNL     1      26.629   4.694  49.263  1.00  0.00    -0.004 A 
HETATM    4  C5  UNL     1      25.816   5.751  49.626  1.00  0.00     0.088 A 
HETATM    5  C6  UNL     1      26.136   7.068  49.360  1.00  0.00     0.077 A 
HETATM    6  C7  UNL     1      27.305   7.397  48.704  1.00  0.00     0.104 A 
HETATM    7  O3  UNL     1      24.619   5.657  50.280  1.00  0.00    -0.289 OA
HETATM    8  C9  UNL     1      24.101   4.584  50.987  1.00  0.00     0.202 A 
HETATM    9  N1  UNL     1      22.934   4.845  51.592  1.00  0.00    -0.215 NA
HETATM   10  C10 UNL     1      22.269   3.935  52.327  1.00  0.00     0.238 A 
HETATM   11  N2  UNL     1      22.816   2.691  52.457  1.00  0.00    -0.222 NA
HETATM   12  C11 UNL     1      23.988   2.415  51.855  1.00  0.00     0.159 A 
HETATM   13  C17 UNL     1      24.690   3.325  51.098  1.00  0.00     0.129 A 
HETATM   14  N4  UNL     1      25.884   2.772  50.585  1.00  0.00    -0.379 N 
HETATM   15  C18 UNL     1      26.573   3.238  49.397  1.00  0.00     0.161 C 
HETATM   16  H17 UNL     1      26.205   1.979  51.183  1.00  0.00     0.160 HD
ENDROOT
BRANCH  12  17
HETATM   17  N3  UNL     1      24.426   1.096  52.078  1.00  0.00    -0.349 N 
HETATM   18  H10 UNL     1      24.500   0.136  51.688  1.00  0.00     0.167 HD
BRANCH  17  19
HETATM   19  C12 UNL     1      25.063   0.700  53.277  1.00  0.00     0.090 C 
HETATM   20  C13 UNL     1      26.395   0.768  53.450  1.00  0.00     0.017 C 
BRANCH  20  21
HETATM   21  C14 UNL     1      27.092   0.376  54.657  1.00  0.00    -0.000 C 
HETATM   22  C15 UNL     1      28.339   0.032  54.778  1.00  0.00     0.004 C 
BRANCH  22  23
HETATM   23  C16 UNL     1      29.497  -0.106  53.869  1.00  0.00     0.249 C 
HETATM   24  F1  UNL     1      29.303  -1.189  53.046  1.00  0.00    -0.251 F 
ENDBRANCH  22  23
ENDBRANCH  20  21
ENDBRANCH  17  19
ENDBRANCH  12  17
BRANCH   6  25
HETATM   25  O2  UNL     1      27.598   8.717  48.452  1.00  0.00    -0.353 OA
HETATM   26  C8  UNL     1      28.112   9.505  49.518  1.00  0.00     0.210 C 
ENDBRANCH   6  25
BRANCH   1  27
HETATM   27  O1  UNL     1      29.313   6.713  47.668  1.00  0.00    -0.353 OA
HETATM   28  C1  UNL     1      30.543   6.282  48.222  1.00  0.00     0.210 C 
ENDBRANCH   1  27
TORSDOF 6
ENDMDL
MODEL 2
REMARK VINA RESULT:      -7.5      3.773      7.628
REMARK  6 active torsions:
REMARK  status: ('A' for Active; 'I' for Inactive)
REMARK    1  A    between atoms: O1_2  and  C2_3 
REMARK    2  A    between atoms: C7_8  and  O2_9 
REMARK    3  A    between atoms: C11_16  and  N3_17 
REMARK    4  A    between atoms: N3_17  and  C12_18 
REMARK    5  A    between atoms: C13_19  and  C14_20 
REMARK    6  A    between atoms: C15_21  and  C16_22 
ROOT
HETATM    1  C2  UNL     1      25.824  -0.332  53.991  1.00  0.00     0.102 A 
HETATM    2  C3  UNL     1      24.836   0.419  53.360  1.00  0.00     0.051 A 
HETATM    3  C4  UNL     1      25.138   1.318  52.329  1.00  0.00    -0.004 A 
HETATM    4  C5  UNL     1      26.473   1.407  51.985  1.00  0.00     0.088 A 
HETATM    5  C6  UNL     1      27.458   0.666  52.606  1.00  0.00     0.077 A 
HETATM    6  C7  UNL     1      27.150  -0.217  53.620  1.00  0.00     0.104 A 
HETATM    7  O3  UNL     1      27.000   2.213  51.014  1.00  0.00    -0.289 OA
HETATM    8  C9  UNL     1      26.425   3.308  50.390  1.00  0.00     0.202 A 
HETATM    9  N1  UNL     1      27.244   3.943  49.541  1.00  0.00    -0.215 NA
HETATM   10  C10 UNL     1      26.876   5.029  48.837  1.00  0.00     0.238 A 
HETATM   11  N2  UNL     1      25.604   5.499  49.004  1.00  0.00    -0.222 NA
HETATM   12  C11 UNL     1      24.770   4.872  49.854  1.00  0.00     0.159 A 
HETATM   13  C17 UNL     1      25.121   3.760  50.585  1.00  0.00     0.129 A 
HETATM   14  N4  UNL     1      24.056   3.307  51.396  1.00  0.00    -0.379 N 
HETATM   15  C18 UNL     1      23.897   1.948  51.877  1.00  0.00     0.161 C 
HETATM   16  H17 UNL     1      23.397   4.089  51.602  1.00  0.00     0.160 HD
ENDROOT
BRANCH  12  17
HETATM   17  N3  UNL     1      23.497   5.468  49.920  1.00  0.00    -0.349 N 
HETATM   18  H10 UNL     1      22.937   6.263  50.285  1.00  0.00     0.167 HD
BRANCH  17  19
HETATM   19  C12 UNL     1      22.363   4.909  49.286  1.00  0.00     0.090 C 
HETATM   20  C13 UNL     1      22.441   4.209  48.141  1.00  0.00     0.017 C 
BRANCH  20  21
HETATM   21  C14 UNL     1      21.310   3.618  47.456  1.00  0.00    -0.000 C 
HETATM   22  C15 UNL     1      20.626   2.571  47.810  1.00  0.00     0.004 C 
BRANCH  22  23
HETATM   23  C16 UNL     1      20.660   1.608  48.931  1.00  0.00     0.249 C 
HETATM   24  F1  UNL     1      21.523   0.584  48.625  1.00  0.00    -0.251 F 
ENDBRANCH  22  23
ENDBRANCH  20  21
ENDBRANCH  17  19
ENDBRANCH  12  17
BRANCH   6  25
HETATM   25  O2  UNL     1      28.152  -0.943  54.222  1.00  0.00    -0.353 OA
HETATM   26  C8  UNL     1      29.495  -0.671  53.845  1.00  0.00     0.210 C 
ENDBRANCH   6  25
BRANCH   1  27
HETATM   27  O1  UNL     1      25.531  -1.225  55.013  1.00  0.00    -0.353 OA
HETATM   28  C1  UNL     1      24.220  -1.220  55.547  1.00  0.00     0.210 C 
ENDBRANCH   1  27
TORSDOF 6
ENDMDL
MODEL 3
REMARK VINA RESULT:      -7.4      4.536      8.469
REMARK  6 active torsions:
REMARK  status: ('A' for Active; 'I' for Inactive)
REMARK    1  A    between atoms: O1_2  and  C2_3 
REMARK    2  A    between atoms: C7_8  and  O2_9 
REMARK    3  A    between atoms: C11_16  and  N3_17 
REMARK    4  A    between atoms: N3_17  and  C12_18 
REMARK    5  A    between atoms: C13_19  and  C14_20 
REMARK    6  A    between atoms: C15_21  and  C16_22 
ROOT
HETATM    1  C2  UNL     1      25.781  -0.357  53.964  1.00  0.00     0.102 A 
HETATM    2  C3  UNL     1      24.781   0.362  53.313  1.00  0.00     0.051 A 
HETATM    3  C4  UNL     1      25.074   1.278  52.295  1.00  0.00    -0.004 A 
HETATM    4  C5  UNL     1      26.414   1.418  51.985  1.00  0.00     0.088 A 
HETATM    5  C6  UNL     1      27.410   0.710  52.627  1.00  0.00     0.077 A 
HETATM    6  C7  UNL     1      27.110  -0.190  53.628  1.00  0.00     0.104 A 
HETATM    7  O3  UNL     1      26.935   2.250  51.031  1.00  0.00    -0.289 OA
HETATM    8  C9  UNL     1      26.334   3.327  50.400  1.00  0.00     0.202 A 
HETATM    9  N1  UNL     1      27.151   3.996  49.575  1.00  0.00    -0.215 NA
HETATM   10  C10 UNL     1      26.759   5.073  48.869  1.00  0.00     0.238 A 
HETATM   11  N2  UNL     1      25.468   5.494  49.006  1.00  0.00    -0.222 NA
HETATM   12  C11 UNL     1      24.637   4.831  49.831  1.00  0.00     0.159 A 
HETATM   13  C17 UNL     1      25.010   3.728  50.565  1.00  0.00     0.129 A 
HETATM   14  N4  UNL     1      23.943   3.231  51.346  1.00  0.00    -0.379 N 
HETATM   15  C18 UNL     1      23.822   1.864  51.815  1.00  0.00     0.161 C 
HETATM   16  H17 UNL     1      23.250   3.987  51.540  1.00  0.00     0.160 HD
ENDROOT
BRANCH  12  17
HETATM   17  N3  UNL     1      23.341   5.380  49.868  1.00  0.00    -0.349 N 
HETATM   18  H10 UNL     1      22.369   5.269  50.217  1.00  0.00     0.167 HD
BRANCH  17  19
HETATM   19  C12 UNL     1      23.012   6.593  49.220  1.00  0.00     0.090 C 
HETATM   20  C13 UNL     1      22.528   7.661  49.878  1.00  0.00     0.017 C 
BRANCH  20  21
HETATM   21  C14 UNL     1      22.178   8.922  49.260  1.00  0.00    -0.000 C 
HETATM   22  C15 UNL     1      20.997   9.454  49.153  1.00  0.00     0.004 C 
BRANCH  22  23
HETATM   23  C16 UNL     1      19.624   9.084  49.559  1.00  0.00     0.249 C 
HETATM   24  F1  UNL     1      19.387   9.540  50.833  1.00  0.00    -0.251 F 
ENDBRANCH  22  23
ENDBRANCH  20  21
ENDBRANCH  17  19
ENDBRANCH  12  17
BRANCH   6  25
HETATM   25  O2  UNL     1      28.123  -0.882  54.250  1.00  0.00    -0.353 OA
HETATM   26  C8  UNL     1      29.424  -0.821  53.682  1.00  0.00     0.210 C 
ENDBRANCH   6  25
BRANCH   1  27
HETATM   27  O1  UNL     1      25.496  -1.266  54.974  1.00  0.00    -0.353 OA
HETATM   28  C1  UNL     1      24.210  -1.226  55.565  1.00  0.00     0.210 C 
ENDBRANCH   1  27
TORSDOF 6
ENDMDL
MODEL 4
REMARK VINA RESULT:      -7.3      4.442      8.123
REMARK  6 active torsions:
REMARK  status: ('A' for Active; 'I' for Inactive)
REMARK    1  A    between atoms: O1_2  and  C2_3 
REMARK    2  A    between atoms: C7_8  and  O2_9 
REMARK    3  A    between atoms: C11_16  and  N3_17 
REMARK    4  A    between atoms: N3_17  and  C12_18 
REMARK    5  A    between atoms: C13_19  and  C14_20 
REMARK    6  A    between atoms: C15_21  and  C16_22 
ROOT
HETATM    1  C2  UNL     1      25.895  -0.320  53.973  1.00  0.00     0.102 A 
HETATM    2  C3  UNL     1      24.889   0.315  53.250  1.00  0.00     0.051 A 
HETATM    3  C4  UNL     1      25.178   1.233  52.232  1.00  0.00    -0.004 A 
HETATM    4  C5  UNL     1      26.520   1.463  51.998  1.00  0.00     0.088 A 
HETATM    5  C6  UNL     1      27.523   0.838  52.711  1.00  0.00     0.077 A 
HETATM    6  C7  UNL     1      27.228  -0.065  53.711  1.00  0.00     0.104 A 
HETATM    7  O3  UNL     1      27.037   2.313  51.060  1.00  0.00    -0.289 OA
HETATM    8  C9  UNL     1      26.402   3.334  50.372  1.00  0.00     0.202 A 
HETATM    9  N1  UNL     1      27.217   4.047  49.582  1.00  0.00    -0.215 NA
HETATM   10  C10 UNL     1      26.794   5.081  48.832  1.00  0.00     0.238 A 
HETATM   11  N2  UNL     1      25.471   5.412  48.885  1.00  0.00    -0.222 NA
HETATM   12  C11 UNL     1      24.640   4.705  49.674  1.00  0.00     0.159 A 
HETATM   13  C17 UNL     1      25.045   3.644  50.451  1.00  0.00     0.129 A 
HETATM   14  N4  UNL     1      23.971   3.085  51.179  1.00  0.00    -0.379 N 
HETATM   15  C18 UNL     1      23.918   1.720  51.668  1.00  0.00     0.161 C 
HETATM   16  H17 UNL     1      23.217   3.792  51.317  1.00  0.00     0.160 HD
ENDROOT
BRANCH  12  17
HETATM   17  N3  UNL     1      23.310   5.161  49.625  1.00  0.00    -0.349 N 
HETATM   18  H10 UNL     1      22.568   5.706  50.106  1.00  0.00     0.167 HD
BRANCH  17  19
HETATM   19  C12 UNL     1      22.444   4.861  48.547  1.00  0.00     0.090 C 
HETATM   20  C13 UNL     1      22.564   3.746  47.807  1.00  0.00     0.017 C 
BRANCH  20  21
HETATM   21  C14 UNL     1      21.703   3.395  46.696  1.00  0.00    -0.000 C 
HETATM   22  C15 UNL     1      21.483   4.081  45.614  1.00  0.00     0.004 C 
BRANCH  22  23
HETATM   23  C16 UNL     1      21.943   5.374  45.063  1.00  0.00     0.249 C 
HETATM   24  F1  UNL     1      21.619   5.441  43.730  1.00  0.00    -0.251 F 
ENDBRANCH  22  23
ENDBRANCH  20  21
ENDBRANCH  17  19
ENDBRANCH  12  17
BRANCH   6  25
HETATM   25  O2  UNL     1      28.248  -0.673  54.406  1.00  0.00    -0.353 OA
HETATM   26  C8  UNL     1      29.412  -1.058  53.687  1.00  0.00     0.210 C 
ENDBRANCH   6  25
BRANCH   1  27
HETATM   27  O1  UNL     1      25.615  -1.231  54.983  1.00  0.00    -0.353 OA
HETATM   28  C1  UNL     1      24.327  -1.201  55.570  1.00  0.00     0.210 C 
ENDBRANCH   1  27
TORSDOF 6
ENDMDL
MODEL 5
REMARK VINA RESULT:      -7.3      3.287      7.115
REMARK  6 active torsions:
REMARK  status: ('A' for Active; 'I' for Inactive)
REMARK    1  A    between atoms: O1_2  and  C2_3 
REMARK    2  A    between atoms: C7_8  and  O2_9 
REMARK    3  A    between atoms: C11_16  and  N3_17 
REMARK    4  A    between atoms: N3_17  and  C12_18 
REMARK    5  A    between atoms: C13_19  and  C14_20 
REMARK    6  A    between atoms: C15_21  and  C16_22 
ROOT
HETATM    1  C2  UNL     1      26.620  -0.534  53.187  1.00  0.00     0.102 A 
HETATM    2  C3  UNL     1      26.862   0.437  52.219  1.00  0.00     0.051 A 
HETATM    3  C4  UNL     1      26.046   1.568  52.087  1.00  0.00    -0.004 A 
HETATM    4  C5  UNL     1      24.991   1.651  52.976  1.00  0.00     0.088 A 
HETATM    5  C6  UNL     1      24.744   0.691  53.938  1.00  0.00     0.077 A 
HETATM    6  C7  UNL     1      25.555  -0.418  54.059  1.00  0.00     0.104 A 
HETATM    7  O3  UNL     1      24.067   2.658  53.035  1.00  0.00    -0.289 OA
HETATM    8  C9  UNL     1      23.773   3.620  52.082  1.00  0.00     0.202 A 
HETATM    9  N1  UNL     1      22.745   4.413  52.412  1.00  0.00    -0.215 NA
HETATM   10  C10 UNL     1      22.302   5.408  51.621  1.00  0.00     0.238 A 
HETATM   11  N2  UNL     1      22.939   5.611  50.430  1.00  0.00    -0.222 NA
HETATM   12  C11 UNL     1      23.973   4.822  50.087  1.00  0.00     0.159 A 
HETATM   13  C17 UNL     1      24.446   3.798  50.875  1.00  0.00     0.129 A 
HETATM   14  N4  UNL     1      25.538   3.133  50.274  1.00  0.00    -0.379 N 
HETATM   15  C18 UNL     1      26.557   2.391  50.991  1.00  0.00     0.161 C 
HETATM   16  H17 UNL     1      25.509   3.249  49.237  1.00  0.00     0.160 HD
ENDROOT
BRANCH  12  17
HETATM   17  N3  UNL     1      24.527   5.151  48.835  1.00  0.00    -0.349 N 
HETATM   18  H10 UNL     1      24.545   4.938  47.819  1.00  0.00     0.167 HD
BRANCH  17  19
HETATM   19  C12 UNL     1      25.485   6.179  48.676  1.00  0.00     0.090 C 
HETATM   20  C13 UNL     1      26.805   5.937  48.591  1.00  0.00     0.017 C 
BRANCH  20  21
HETATM   21  C14 UNL     1      27.822   6.954  48.427  1.00  0.00    -0.000 C 
HETATM   22  C15 UNL     1      29.085   6.782  48.173  1.00  0.00     0.004 C 
BRANCH  22  23
HETATM   23  C16 UNL     1      29.976   5.623  47.954  1.00  0.00     0.249 C 
HETATM   24  F1  UNL     1      31.103   5.763  48.726  1.00  0.00    -0.251 F 
ENDBRANCH  22  23
ENDBRANCH  20  21
ENDBRANCH  17  19
ENDBRANCH  12  17
BRANCH   6  25
HETATM   25  O2  UNL     1      25.285  -1.359  55.027  1.00  0.00    -0.353 OA
HETATM   26  C8  UNL     1      24.003  -1.341  55.639  1.00  0.00     0.210 C 
ENDBRANCH   6  25
BRANCH   1  27
HETATM   27  O1  UNL     1      27.426  -1.657  53.322  1.00  0.00    -0.353 OA
HETATM   28  C1  UNL     1      28.830  -1.475  53.311  1.00  0.00     0.210 C 
ENDBRANCH   1  27
TORSDOF 6
ENDMDL
MODEL 6
REMARK VINA RESULT:      -7.2      6.546      8.879
REMARK  6 active torsions:
REMARK  status: ('A' for Active; 'I' for Inactive)
REMARK    1  A    between atoms: O1_2  and  C2_3 
REMARK    2  A    between atoms: C7_8  and  O2_9 
REMARK    3  A    between atoms: C11_16  and  N3_17 
REMARK    4  A    between atoms: N3_17  and  C12_18 
REMARK    5  A    between atoms: C13_19  and  C14_20 
REMARK    6  A    between atoms: C15_21  and  C16_22 
ROOT
HETATM    1  C2  UNL     1      25.242   0.220  53.983  1.00  0.00     0.102 A 
HETATM    2  C3  UNL     1      24.174  -0.653  54.175  1.00  0.00     0.051 A 
HETATM    3  C4  UNL     1      22.946  -0.472  53.525  1.00  0.00    -0.004 A 
HETATM    4  C5  UNL     1      22.869   0.624  52.687  1.00  0.00     0.088 A 
HETATM    5  C6  UNL     1      23.923   1.494  52.492  1.00  0.00     0.077 A 
HETATM    6  C7  UNL     1      25.128   1.306  53.137  1.00  0.00     0.104 A 
HETATM    7  O3  UNL     1      21.777   0.999  51.953  1.00  0.00    -0.289 OA
HETATM    8  C9  UNL     1      20.459   0.599  52.096  1.00  0.00     0.202 A 
HETATM    9  N1  UNL     1      19.609   1.224  51.270  1.00  0.00    -0.215 NA
HETATM   10  C10 UNL     1      18.287   0.978  51.252  1.00  0.00     0.238 A 
HETATM   11  N2  UNL     1      17.797   0.044  52.120  1.00  0.00    -0.222 NA
HETATM   12  C11 UNL     1      18.639  -0.592  52.955  1.00  0.00     0.159 A 
HETATM   13  C17 UNL     1      19.995  -0.360  52.995  1.00  0.00     0.129 A 
HETATM   14  N4  UNL     1      20.638  -1.163  53.963  1.00  0.00    -0.379 N 
HETATM   15  C18 UNL     1      22.037  -1.545  53.931  1.00  0.00     0.161 C 
HETATM   16  H17 UNL     1      19.965  -1.445  54.708  1.00  0.00     0.160 HD
ENDROOT
BRANCH  12  17
HETATM   17  N3  UNL     1      17.992  -1.525  53.788  1.00  0.00    -0.349 N 
HETATM   18  H10 UNL     1      17.804  -1.820  54.765  1.00  0.00     0.167 HD
BRANCH  17  19
HETATM   19  C12 UNL     1      17.216  -2.590  53.275  1.00  0.00     0.090 C 
HETATM   20  C13 UNL     1      17.264  -3.834  53.781  1.00  0.00     0.017 C 
BRANCH  20  21
HETATM   21  C14 UNL     1      16.489  -4.955  53.292  1.00  0.00    -0.000 C 
HETATM   22  C15 UNL     1      15.669  -5.707  53.963  1.00  0.00     0.004 C 
BRANCH  22  23
HETATM   23  C16 UNL     1      15.188  -5.774  55.360  1.00  0.00     0.249 C 
HETATM   24  F1  UNL     1      15.590  -6.961  55.922  1.00  0.00    -0.251 F 
ENDBRANCH  22  23
ENDBRANCH  20  21
ENDBRANCH  17  19
ENDBRANCH  12  17
BRANCH   6  25
HETATM   25  O2  UNL     1      26.162   2.189  52.924  1.00  0.00    -0.353 OA
HETATM   26  C8  UNL     1      26.584   2.417  51.586  1.00  0.00     0.210 C 
ENDBRANCH   6  25
BRANCH   1  27
HETATM   27  O1  UNL     1      26.461   0.045  54.624  1.00  0.00    -0.353 OA
HETATM   28  C1  UNL     1      27.540  -0.481  53.874  1.00  0.00     0.210 C 
ENDBRANCH   1  27
TORSDOF 6
ENDMDL
MODEL 7
REMARK VINA RESULT:      -7.2      5.112      8.785
REMARK  6 active torsions:
REMARK  status: ('A' for Active; 'I' for Inactive)
REMARK    1  A    between atoms: O1_2  and  C2_3 
REMARK    2  A    between atoms: C7_8  and  O2_9 
REMARK    3  A    between atoms: C11_16  and  N3_17 
REMARK    4  A    between atoms: N3_17  and  C12_18 
REMARK    5  A    between atoms: C13_19  and  C14_20 
REMARK    6  A    between atoms: C15_21  and  C16_22 
ROOT
HETATM    1  C2  UNL     1      17.735  -1.418  52.822  1.00  0.00     0.102 A 
HETATM    2  C3  UNL     1      18.911  -1.434  53.568  1.00  0.00     0.051 A 
HETATM    3  C4  UNL     1      19.970  -0.558  53.296  1.00  0.00    -0.004 A 
HETATM    4  C5  UNL     1      19.768   0.316  52.244  1.00  0.00     0.088 A 
HETATM    5  C6  UNL     1      18.605   0.337  51.500  1.00  0.00     0.077 A 
HETATM    6  C7  UNL     1      17.568  -0.530  51.778  1.00  0.00     0.104 A 
HETATM    7  O3  UNL     1      20.656   1.255  51.798  1.00  0.00    -0.289 OA
HETATM    8  C9  UNL     1      22.015   1.351  52.051  1.00  0.00     0.202 A 
HETATM    9  N1  UNL     1      22.622   2.343  51.386  1.00  0.00    -0.215 NA
HETATM   10  C10 UNL     1      23.938   2.603  51.495  1.00  0.00     0.238 A 
HETATM   11  N2  UNL     1      24.681   1.812  52.324  1.00  0.00    -0.222 NA
HETATM   12  C11 UNL     1      24.084   0.812  52.998  1.00  0.00     0.159 A 
HETATM   13  C17 UNL     1      22.741   0.524  52.906  1.00  0.00     0.129 A 
HETATM   14  N4  UNL     1      22.382  -0.574  53.718  1.00  0.00    -0.379 N 
HETATM   15  C18 UNL     1      21.053  -0.820  54.244  1.00  0.00     0.161 C 
HETATM   16  H17 UNL     1      23.209  -1.188  53.888  1.00  0.00     0.160 HD
ENDROOT
BRANCH  12  17
HETATM   17  N3  UNL     1      24.974   0.086  53.812  1.00  0.00    -0.349 N 
HETATM   18  H10 UNL     1      25.070  -0.566  54.615  1.00  0.00     0.167 HD
BRANCH  17  19
HETATM   19  C12 UNL     1      26.375   0.120  53.623  1.00  0.00     0.090 C 
HETATM   20  C13 UNL     1      27.242   0.276  54.638  1.00  0.00     0.017 C 
BRANCH  20  21
HETATM   21  C14 UNL     1      28.682   0.316  54.495  1.00  0.00    -0.000 C 
HETATM   22  C15 UNL     1      29.456  -0.592  53.980  1.00  0.00     0.004 C 
BRANCH  22  23
HETATM   23  C16 UNL     1      29.268  -1.926  53.370  1.00  0.00     0.249 C 
HETATM   24  F1  UNL     1      30.179  -2.803  53.906  1.00  0.00    -0.251 F 
ENDBRANCH  22  23
ENDBRANCH  20  21
ENDBRANCH  17  19
ENDBRANCH  12  17
BRANCH   6  25
HETATM   25  O2  UNL     1      16.421  -0.487  51.020  1.00  0.00    -0.353 OA
HETATM   26  C8  UNL     1      16.542  -0.181  49.637  1.00  0.00     0.210 C 
ENDBRANCH   6  25
BRANCH   1  27
HETATM   27  O1  UNL     1      16.683  -2.284  53.088  1.00  0.00    -0.353 OA
HETATM   28  C1  UNL     1      16.988  -3.564  53.609  1.00  0.00     0.210 C 
ENDBRANCH   1  27
TORSDOF 6
ENDMDL
MODEL 8
REMARK VINA RESULT:      -7.0      4.878      7.878
REMARK  6 active torsions:
REMARK  status: ('A' for Active; 'I' for Inactive)
REMARK    1  A    between atoms: O1_2  and  C2_3 
REMARK    2  A    between atoms: C7_8  and  O2_9 
REMARK    3  A    between atoms: C11_16  and  N3_17 
REMARK    4  A    between atoms: N3_17  and  C12_18 
REMARK    5  A    between atoms: C13_19  and  C14_20 
REMARK    6  A    between atoms: C15_21  and  C16_22 
ROOT
HETATM    1  C2  UNL     1      17.786   0.797  51.667  1.00  0.00     0.102 A 
HETATM    2  C3  UNL     1      18.786   0.004  52.223  1.00  0.00     0.051 A 
HETATM    3  C4  UNL     1      20.052   0.519  52.532  1.00  0.00    -0.004 A 
HETATM    4  C5  UNL     1      20.237   1.859  52.248  1.00  0.00     0.088 A 
HETATM    5  C6  UNL     1      19.251   2.652  51.696  1.00  0.00     0.077 A 
HETATM    6  C7  UNL     1      18.007   2.133  51.396  1.00  0.00     0.104 A 
HETATM    7  O3  UNL     1      21.383   2.574  52.462  1.00  0.00    -0.289 OA
HETATM    8  C9  UNL     1      22.665   2.106  52.697  1.00  0.00     0.202 A 
HETATM    9  N1  UNL     1      23.591   3.072  52.776  1.00  0.00    -0.215 NA
HETATM   10  C10 UNL     1      24.894   2.824  52.999  1.00  0.00     0.238 A 
HETATM   11  N2  UNL     1      25.282   1.524  53.151  1.00  0.00    -0.222 NA
HETATM   12  C11 UNL     1      24.364   0.543  53.074  1.00  0.00     0.159 A 
HETATM   13  C17 UNL     1      23.025   0.768  52.847  1.00  0.00     0.129 A 
HETATM   14  N4  UNL     1      22.288  -0.437  52.813  1.00  0.00    -0.379 N 
HETATM   15  C18 UNL     1      20.871  -0.553  53.098  1.00  0.00     0.161 C 
HETATM   16  H17 UNL     1      22.907  -1.236  52.554  1.00  0.00     0.160 HD
ENDROOT
BRANCH  12  17
HETATM   17  N3  UNL     1      24.911  -0.742  53.250  1.00  0.00    -0.349 N 
HETATM   18  H10 UNL     1      24.731  -1.764  53.229  1.00  0.00     0.167 HD
BRANCH  17  19
HETATM   19  C12 UNL     1      26.264  -0.948  53.608  1.00  0.00     0.090 C 
HETATM   20  C13 UNL     1      27.175  -1.444  52.754  1.00  0.00     0.017 C 
BRANCH  20  21
HETATM   21  C14 UNL     1      28.568  -1.672  53.073  1.00  0.00    -0.000 C 
HETATM   22  C15 UNL     1      29.425  -0.818  53.550  1.00  0.00     0.004 C 
BRANCH  22  23
HETATM   23  C16 UNL     1      29.397   0.606  53.947  1.00  0.00     0.249 C 
HETATM   24  F1  UNL     1      28.785   0.725  55.171  1.00  0.00    -0.251 F 
ENDBRANCH  22  23
ENDBRANCH  20  21
ENDBRANCH  17  19
ENDBRANCH  12  17
BRANCH   6  25
HETATM   25  O2  UNL     1      17.043   2.946  50.846  1.00  0.00    -0.353 OA
HETATM   26  C8  UNL     1      16.264   3.749  51.723  1.00  0.00     0.210 C 
ENDBRANCH   6  25
BRANCH   1  27
HETATM   27  O1  UNL     1      16.530   0.292  51.359  1.00  0.00    -0.353 OA
HETATM   28  C1  UNL     1      15.634   0.038  52.425  1.00  0.00     0.210 C 
ENDBRANCH   1  27
TORSDOF 6
ENDMDL
MODEL 9
REMARK VINA RESULT:      -7.0      1.357      1.761
REMARK  6 active torsions:
REMARK  status: ('A' for Active; 'I' for Inactive)
REMARK    1  A    between atoms: O1_2  and  C2_3 
REMARK    2  A    between atoms: C7_8  and  O2_9 
REMARK    3  A    between atoms: C11_16  and  N3_17 
REMARK    4  A    between atoms: N3_17  and  C12_18 
REMARK    5  A    between atoms: C13_19  and  C14_20 
REMARK    6  A    between atoms: C15_21  and  C16_22 
ROOT
HETATM    1  C2  UNL     1      27.681   8.586  48.534  1.00  0.00     0.102 A 
HETATM    2  C3  UNL     1      27.610   7.196  48.495  1.00  0.00     0.051 A 
HETATM    3  C4  UNL     1      26.580   6.491  49.131  1.00  0.00    -0.004 A 
HETATM    4  C5  UNL     1      25.648   7.265  49.796  1.00  0.00     0.088 A 
HETATM    5  C6  UNL     1      25.712   8.643  49.840  1.00  0.00     0.077 A 
HETATM    6  C7  UNL     1      26.730   9.328  49.209  1.00  0.00     0.104 A 
HETATM    7  O3  UNL     1      24.562   6.799  50.486  1.00  0.00    -0.289 OA
HETATM    8  C9  UNL     1      24.311   5.515  50.941  1.00  0.00     0.202 A 
HETATM    9  N1  UNL     1      23.191   5.406  51.668  1.00  0.00    -0.215 NA
HETATM   10  C10 UNL     1      22.771   4.244  52.201  1.00  0.00     0.238 A 
HETATM   11  N2  UNL     1      23.530   3.129  51.985  1.00  0.00    -0.222 NA
HETATM   12  C11 UNL     1      24.658   3.224  51.257  1.00  0.00     0.159 A 
HETATM   13  C17 UNL     1      25.110   4.398  50.701  1.00  0.00     0.129 A 
HETATM   14  N4  UNL     1      26.316   4.213  49.989  1.00  0.00    -0.379 N 
HETATM   15  C18 UNL     1      26.783   5.059  48.908  1.00  0.00     0.161 C 
HETATM   16  H17 UNL     1      26.828   3.379  50.351  1.00  0.00     0.160 HD
ENDROOT
BRANCH  12  17
HETATM   17  N3  UNL     1      25.331   1.996  51.119  1.00  0.00    -0.349 N 
HETATM   18  H10 UNL     1      25.717   1.295  50.457  1.00  0.00     0.167 HD
BRANCH  17  19
HETATM   19  C12 UNL     1      25.749   1.230  52.233  1.00  0.00     0.090 C 
HETATM   20  C13 UNL     1      26.641   0.230  52.134  1.00  0.00     0.017 C 
BRANCH  20  21
HETATM   21  C14 UNL     1      27.100  -0.580  53.243  1.00  0.00    -0.000 C 
HETATM   22  C15 UNL     1      28.256  -0.535  53.835  1.00  0.00     0.004 C 
BRANCH  22  23
HETATM   23  C16 UNL     1      29.496   0.258  53.688  1.00  0.00     0.249 C 
HETATM   24  F1  UNL     1      30.541  -0.583  53.395  1.00  0.00    -0.251 F 
ENDBRANCH  22  23
ENDBRANCH  20  21
ENDBRANCH  17  19
ENDBRANCH  12  17
BRANCH   6  25
HETATM   25  O2  UNL     1      26.770  10.701  49.269  1.00  0.00    -0.353 OA
HETATM   26  C8  UNL     1      26.081  11.436  48.266  1.00  0.00     0.210 C 
ENDBRANCH   6  25
BRANCH   1  27
HETATM   27  O1  UNL     1      28.698   9.290  47.905  1.00  0.00    -0.353 OA
HETATM   28  C1  UNL     1      29.939   9.410  48.575  1.00  0.00     0.210 C 
ENDBRANCH   1  27
TORSDOF 6
ENDMDL
