MODEL 1
REMARK VINA RESULT:      -9.5      0.000      0.000
REMARK  5 active torsions:
REMARK  status: ('A' for Active; 'I' for Inactive)
REMARK    1  A    between atoms: C1_2  and  C2_3 
REMARK       I    between atoms: C1_2  and  N1_12 
REMARK    2  A    between atoms: C3_4  and  C4_5 
REMARK    3  A    between atoms: N1_12  and  C10_13 
REMARK    4  A    between atoms: C15_20  and  N4_21 
REMARK    5  A    between atoms: N4_21  and  C16_22 
ROOT
HETATM    1  C10 UNL     1      26.164  -0.767  53.629  1.00  0.00     0.029 A 
HETATM    2  C11 UNL     1      26.900  -1.687  53.021  1.00  0.00     0.028 A 
HETATM    3  C12 UNL     1      28.297  -1.284  52.911  1.00  0.00     0.030 A 
HETATM    4  C13 UNL     1      28.377  -0.090  53.477  1.00  0.00     0.053 A 
HETATM    5  N2  UNL     1      29.408   0.867  53.710  1.00  0.00    -0.245 NA
HETATM    6  C14 UNL     1      29.070   2.117  53.942  1.00  0.00     0.235 C 
HETATM    7  N3  UNL     1      27.720   2.467  53.984  1.00  0.00    -0.227 NA
HETATM    8  C15 UNL     1      26.691   1.703  53.857  1.00  0.00     0.121 C 
HETATM    9  C22 UNL     1      27.066   0.300  53.979  1.00  0.00     0.157 A 
ENDROOT
BRANCH   1  10
HETATM   10  N1  UNL     1      24.781  -0.885  53.873  1.00  0.00    -0.326 N 
HETATM   11  C1  UNL     1      24.062  -1.124  55.062  1.00  0.00     0.245 C 
HETATM   12  O1  UNL     1      24.965  -1.218  55.908  1.00  0.00    -0.268 OA
HETATM   13  H7  UNL     1      24.196  -0.746  52.988  1.00  0.00     0.169 HD
BRANCH  11  14
HETATM   14  C2  UNL     1      22.610  -1.208  55.087  1.00  0.00     0.075 C 
HETATM   15  C3  UNL     1      21.633  -0.735  54.403  1.00  0.00     0.017 C 
BRANCH  15  16
HETATM   16  C4  UNL     1      21.376   0.116  53.257  1.00  0.00    -0.036 A 
HETATM   17  C5  UNL     1      21.922  -0.012  51.999  1.00  0.00     0.012 A 
HETATM   18  C6  UNL     1      21.682   0.784  50.919  1.00  0.00     0.020 A 
HETATM   19  C7  UNL     1      20.810   1.819  51.095  1.00  0.00     0.011 A 
HETATM   20 BR1  UNL     1      20.390   3.006  49.665  1.00  0.00    -0.051 Br
HETATM   21  C8  UNL     1      20.203   2.047  52.305  1.00  0.00     0.020 A 
HETATM   22  C9  UNL     1      20.513   1.189  53.325  1.00  0.00     0.012 A 
ENDBRANCH  15  16
ENDBRANCH  11  14
ENDBRANCH   1  10
BRANCH   8  23
HETATM   23  N4  UNL     1      25.385   2.241  53.889  1.00  0.00    -0.347 N 
HETATM   24  H11 UNL     1      24.927   2.107  54.833  1.00  0.00     0.167 HD
BRANCH  23  25
HETATM   25  C16 UNL     1      24.809   2.861  52.747  1.00  0.00     0.012 A 
HETATM   26  C17 UNL     1      23.917   3.756  53.083  1.00  0.00     0.025 A 
HETATM   27  C18 UNL     1      23.185   4.527  52.057  1.00  0.00    -0.001 A 
HETATM   28  C19 UNL     1      23.511   4.230  50.805  1.00  0.00    -0.006 A 
HETATM   29  C20 UNL     1      24.487   3.250  50.315  1.00  0.00     0.110 A 
HETATM   30 CL1  UNL     1      25.660   4.109  49.286  1.00  0.00    -0.120 Cl
HETATM   31  C21 UNL     1      25.224   2.496  51.374  1.00  0.00     0.081 A 
ENDBRANCH  23  25
ENDBRANCH   8  23
TORSDOF 5
ENDMDL
MODEL 2
REMARK VINA RESULT:      -8.8      3.125      5.776
REMARK  5 active torsions:
REMARK  status: ('A' for Active; 'I' for Inactive)
REMARK    1  A    between atoms: C1_2  and  C2_3 
REMARK       I    between atoms: C1_2  and  N1_12 
REMARK    2  A    between atoms: C3_4  and  C4_5 
REMARK    3  A    between atoms: N1_12  and  C10_13 
REMARK    4  A    between atoms: C15_20  and  N4_21 
REMARK    5  A    between atoms: N4_21  and  C16_22 
ROOT
HETATM    1  C10 UNL     1      27.674   1.885  52.885  1.00  0.00     0.029 A 
HETATM    2  C11 UNL     1      28.564   2.468  53.674  1.00  0.00     0.028 A 
HETATM    3  C12 UNL     1      29.532   1.516  54.204  1.00  0.00     0.030 A 
HETATM    4  C13 UNL     1      29.194   0.337  53.704  1.00  0.00     0.053 A 
HETATM    5  N2  UNL     1      29.685  -0.997  53.804  1.00  0.00    -0.245 NA
HETATM    6  C14 UNL     1      28.881  -1.992  53.497  1.00  0.00     0.235 C 
HETATM    7  N3  UNL     1      27.587  -1.717  53.055  1.00  0.00    -0.227 NA
HETATM    8  C15 UNL     1      27.036  -0.570  52.856  1.00  0.00     0.121 C 
HETATM    9  C22 UNL     1      28.035   0.491  52.836  1.00  0.00     0.157 A 
ENDROOT
BRANCH   1  10
HETATM   10  N1  UNL     1      26.620   2.558  52.234  1.00  0.00    -0.326 N 
HETATM   11  C1  UNL     1      25.317   2.882  52.662  1.00  0.00     0.245 C 
HETATM   12  O1  UNL     1      25.287   2.416  53.812  1.00  0.00    -0.268 OA
HETATM   13  H7  UNL     1      26.890   2.886  51.252  1.00  0.00     0.169 HD
BRANCH  11  14
HETATM   14  C2  UNL     1      24.376   3.596  51.811  1.00  0.00     0.075 C 
HETATM   15  C3  UNL     1      24.440   4.435  50.843  1.00  0.00     0.017 C 
BRANCH  15  16
HETATM   16  C4  UNL     1      25.415   5.150  50.043  1.00  0.00    -0.036 A 
HETATM   17  C5  UNL     1      25.480   6.513  49.852  1.00  0.00     0.012 A 
HETATM   18  C6  UNL     1      26.396   7.190  49.103  1.00  0.00     0.020 A 
HETATM   19  C7  UNL     1      27.350   6.445  48.471  1.00  0.00     0.011 A 
HETATM   20 BR1  UNL     1      28.687   7.270  47.392  1.00  0.00    -0.051 Br
HETATM   21  C8  UNL     1      27.386   5.078  48.587  1.00  0.00     0.020 A 
HETATM   22  C9  UNL     1      26.420   4.497  49.364  1.00  0.00     0.012 A 
ENDBRANCH  15  16
ENDBRANCH  11  14
ENDBRANCH   1  10
BRANCH   8  23
HETATM   23  N4  UNL     1      25.689  -0.480  52.439  1.00  0.00    -0.347 N 
HETATM   24  H11 UNL     1      25.610  -0.213  51.419  1.00  0.00     0.167 HD
BRANCH  23  25
HETATM   25  C16 UNL     1      24.615  -0.716  53.340  1.00  0.00     0.012 A 
HETATM   26  C17 UNL     1      25.045  -0.952  54.552  1.00  0.00     0.025 A 
HETATM   27  C18 UNL     1      24.103  -1.228  55.656  1.00  0.00    -0.001 A 
HETATM   28  C19 UNL     1      22.822  -1.214  55.307  1.00  0.00    -0.006 A 
HETATM   29  C20 UNL     1      22.229  -0.966  53.988  1.00  0.00     0.110 A 
HETATM   30 CL1  UNL     1      21.097   0.400  54.142  1.00  0.00    -0.120 Cl
HETATM   31  C21 UNL     1      23.204  -0.674  52.893  1.00  0.00     0.081 A 
ENDBRANCH  23  25
ENDBRANCH   8  23
TORSDOF 5
ENDMDL
MODEL 3
REMARK VINA RESULT:      -8.5      2.648      5.195
REMARK  5 active torsions:
REMARK  status: ('A' for Active; 'I' for Inactive)
REMARK    1  A    between atoms: C1_2  and  C2_3 
REMARK       I    between atoms: C1_2  and  N1_12 
REMARK    2  A    between atoms: C3_4  and  C4_5 
REMARK    3  A    between atoms: N1_12  and  C10_13 
REMARK    4  A    between atoms: C15_20  and  N4_21 
REMARK    5  A    between atoms: N4_21  and  C16_22 
ROOT
HETATM    1  C10 UNL     1      24.675   0.243  53.748  1.00  0.00     0.029 A 
HETATM    2  C11 UNL     1      25.306  -0.323  54.767  1.00  0.00     0.028 A 
HETATM    3  C12 UNL     1      24.455  -1.267  55.480  1.00  0.00     0.030 A 
HETATM    4  C13 UNL     1      23.289  -1.253  54.852  1.00  0.00     0.053 A 
HETATM    5  N2  UNL     1      22.032  -1.907  55.009  1.00  0.00    -0.245 NA
HETATM    6  C14 UNL     1      20.966  -1.370  54.458  1.00  0.00     0.235 C 
HETATM    7  N3  UNL     1      21.096  -0.197  53.713  1.00  0.00    -0.227 NA
HETATM    8  C15 UNL     1      22.168   0.461  53.436  1.00  0.00     0.121 C 
HETATM    9  C22 UNL     1      23.355  -0.333  53.725  1.00  0.00     0.157 A 
ENDROOT
BRANCH   1  10
HETATM   10  N1  UNL     1      25.249   1.196  52.883  1.00  0.00    -0.326 N 
HETATM   11  C1  UNL     1      26.189   1.061  51.841  1.00  0.00     0.245 C 
HETATM   12  O1  UNL     1      26.423  -0.158  51.845  1.00  0.00    -0.268 OA
HETATM   13  H7  UNL     1      24.876   2.184  53.057  1.00  0.00     0.169 HD
BRANCH  11  14
HETATM   14  C2  UNL     1      26.652   2.199  51.061  1.00  0.00     0.075 C 
HETATM   15  C3  UNL     1      26.125   3.227  50.502  1.00  0.00     0.017 C 
BRANCH  15  16
HETATM   16  C4  UNL     1      24.835   3.860  50.309  1.00  0.00    -0.036 A 
HETATM   17  C5  UNL     1      24.163   4.007  49.115  1.00  0.00     0.012 A 
HETATM   18  C6  UNL     1      22.949   4.598  48.928  1.00  0.00     0.020 A 
HETATM   19  C7  UNL     1      22.329   5.100  50.035  1.00  0.00     0.011 A 
HETATM   20 BR1  UNL     1      20.629   5.952  49.909  1.00  0.00    -0.051 Br
HETATM   21  C8  UNL     1      22.901   5.012  51.279  1.00  0.00     0.020 A 
HETATM   22  C9  UNL     1      24.123   4.399  51.358  1.00  0.00     0.012 A 
ENDBRANCH  15  16
ENDBRANCH  11  14
ENDBRANCH   1  10
BRANCH   8  23
HETATM   23  N4  UNL     1      22.105   1.660  52.693  1.00  0.00    -0.347 N 
HETATM   24  H11 UNL     1      22.569   2.464  53.202  1.00  0.00     0.167 HD
BRANCH  23  25
HETATM   25  C16 UNL     1      21.465   1.716  51.424  1.00  0.00     0.012 A 
HETATM   26  C17 UNL     1      22.208   1.190  50.487  1.00  0.00     0.025 A 
HETATM   27  C18 UNL     1      21.745   1.140  49.084  1.00  0.00    -0.001 A 
HETATM   28  C19 UNL     1      20.543   1.665  48.879  1.00  0.00    -0.006 A 
HETATM   29  C20 UNL     1      19.630   2.282  49.848  1.00  0.00     0.110 A 
HETATM   30 CL1  UNL     1      18.081   1.406  49.778  1.00  0.00    -0.120 Cl
HETATM   31  C21 UNL     1      20.116   2.304  51.261  1.00  0.00     0.081 A 
ENDBRANCH  23  25
ENDBRANCH   8  23
TORSDOF 5
ENDMDL
MODEL 4
REMARK VINA RESULT:      -8.5      2.757      5.029
REMARK  5 active torsions:
REMARK  status: ('A' for Active; 'I' for Inactive)
REMARK    1  A    between atoms: C1_2  and  C2_3 
REMARK       I    between atoms: C1_2  and  N1_12 
REMARK    2  A    between atoms: C3_4  and  C4_5 
REMARK    3  A    between atoms: N1_12  and  C10_13 
REMARK    4  A    between atoms: C15_20  and  N4_21 
REMARK    5  A    between atoms: N4_21  and  C16_22 
ROOT
HETATM    1  C10 UNL     1      26.784   2.252  52.416  1.00  0.00     0.029 A 
HETATM    2  C11 UNL     1      27.944   2.094  53.037  1.00  0.00     0.028 A 
HETATM    3  C12 UNL     1      27.957   0.904  53.877  1.00  0.00     0.030 A 
HETATM    4  C13 UNL     1      26.763   0.347  53.738  1.00  0.00     0.053 A 
HETATM    5  N2  UNL     1      26.101  -0.802  54.261  1.00  0.00    -0.245 NA
HETATM    6  C14 UNL     1      24.787  -0.845  54.227  1.00  0.00     0.235 C 
HETATM    7  N3  UNL     1      24.080   0.215  53.658  1.00  0.00    -0.227 NA
HETATM    8  C15 UNL     1      24.544   1.276  53.096  1.00  0.00     0.121 C 
HETATM    9  C22 UNL     1      25.965   1.133  52.807  1.00  0.00     0.157 A 
ENDROOT
BRANCH   1  10
HETATM   10  N1  UNL     1      26.484   3.316  51.540  1.00  0.00    -0.326 N 
HETATM   11  C1  UNL     1      26.501   3.396  50.133  1.00  0.00     0.245 C 
HETATM   12  O1  UNL     1      26.861   2.255  49.802  1.00  0.00    -0.268 OA
HETATM   13  H7  UNL     1      26.176   4.199  52.060  1.00  0.00     0.169 HD
BRANCH  11  14
HETATM   14  C2  UNL     1      26.148   4.615  49.421  1.00  0.00     0.075 C 
HETATM   15  C3  UNL     1      25.075   5.263  49.149  1.00  0.00     0.017 C 
BRANCH  15  16
HETATM   16  C4  UNL     1      23.642   5.197  49.362  1.00  0.00    -0.036 A 
HETATM   17  C5  UNL     1      22.976   5.433  50.544  1.00  0.00     0.012 A 
HETATM   18  C6  UNL     1      21.629   5.375  50.749  1.00  0.00     0.020 A 
HETATM   19  C7  UNL     1      20.854   5.048  49.674  1.00  0.00     0.011 A 
HETATM   20 BR1  UNL     1      18.958   4.931  49.828  1.00  0.00    -0.051 Br
HETATM   21  C8  UNL     1      21.405   4.790  48.444  1.00  0.00     0.020 A 
HETATM   22  C9  UNL     1      22.768   4.876  48.346  1.00  0.00     0.012 A 
ENDBRANCH  15  16
ENDBRANCH  11  14
ENDBRANCH   1  10
BRANCH   8  23
HETATM   23  N4  UNL     1      23.671   2.272  52.604  1.00  0.00    -0.347 N 
HETATM   24  H11 UNL     1      23.936   3.235  52.952  1.00  0.00     0.167 HD
BRANCH  23  25
HETATM   25  C16 UNL     1      22.575   1.947  51.758  1.00  0.00     0.012 A 
HETATM   26  C17 UNL     1      22.966   1.705  50.535  1.00  0.00     0.025 A 
HETATM   27  C18 UNL     1      21.994   1.348  49.480  1.00  0.00    -0.001 A 
HETATM   28  C19 UNL     1      20.731   1.300  49.885  1.00  0.00    -0.006 A 
HETATM   29  C20 UNL     1      20.181   1.554  51.221  1.00  0.00     0.110 A 
HETATM   30 CL1  UNL     1      19.278   0.106  51.728  1.00  0.00    -0.120 Cl
HETATM   31  C21 UNL     1      21.187   1.897  52.272  1.00  0.00     0.081 A 
ENDBRANCH  23  25
ENDBRANCH   8  23
TORSDOF 5
ENDMDL
MODEL 5
REMARK VINA RESULT:      -8.3      2.561      5.270
REMARK  5 active torsions:
REMARK  status: ('A' for Active; 'I' for Inactive)
REMARK    1  A    between atoms: C1_2  and  C2_3 
REMARK       I    between atoms: C1_2  and  N1_12 
REMARK    2  A    between atoms: C3_4  and  C4_5 
REMARK    3  A    between atoms: N1_12  and  C10_13 
REMARK    4  A    between atoms: C15_20  and  N4_21 
REMARK    5  A    between atoms: N4_21  and  C16_22 
ROOT
HETATM    1  C10 UNL     1      24.568  -0.353  53.520  1.00  0.00     0.029 A 
HETATM    2  C11 UNL     1      24.992  -0.621  54.746  1.00  0.00     0.028 A 
HETATM    3  C12 UNL     1      23.940  -1.197  55.575  1.00  0.00     0.030 A 
HETATM    4  C13 UNL     1      22.866  -1.269  54.802  1.00  0.00     0.053 A 
HETATM    5  N2  UNL     1      21.519  -1.709  54.958  1.00  0.00    -0.245 NA
HETATM    6  C14 UNL     1      20.610  -1.274  54.113  1.00  0.00     0.235 C 
HETATM    7  N3  UNL     1      20.989  -0.421  53.075  1.00  0.00    -0.227 NA
HETATM    8  C15 UNL     1      22.169   0.003  52.778  1.00  0.00     0.121 C 
HETATM    9  C22 UNL     1      23.190  -0.771  53.472  1.00  0.00     0.157 A 
ENDROOT
BRANCH   1  10
HETATM   10  N1  UNL     1      25.366   0.210  52.504  1.00  0.00    -0.326 N 
HETATM   11  C1  UNL     1      26.000   1.465  52.405  1.00  0.00     0.245 C 
HETATM   12  O1  UNL     1      25.685   2.011  53.474  1.00  0.00    -0.268 OA
HETATM   13  H7  UNL     1      25.517  -0.461  51.683  1.00  0.00     0.169 HD
BRANCH  11  14
HETATM   14  C2  UNL     1      26.792   1.845  51.245  1.00  0.00     0.075 C 
HETATM   15  C3  UNL     1      26.675   2.652  50.254  1.00  0.00     0.017 C 
BRANCH  15  16
HETATM   16  C4  UNL     1      25.748   3.622  49.703  1.00  0.00    -0.036 A 
HETATM   17  C5  UNL     1      25.997   4.958  49.479  1.00  0.00     0.012 A 
HETATM   18  C6  UNL     1      25.131   5.874  48.959  1.00  0.00     0.020 A 
HETATM   19  C7  UNL     1      23.885   5.427  48.625  1.00  0.00     0.011 A 
HETATM   20 BR1  UNL     1      22.581   6.607  47.891  1.00  0.00    -0.051 Br
HETATM   21  C8  UNL     1      23.522   4.116  48.804  1.00  0.00     0.020 A 
HETATM   22  C9  UNL     1      24.467   3.278  49.333  1.00  0.00     0.012 A 
ENDBRANCH  15  16
ENDBRANCH  11  14
ENDBRANCH   1  10
BRANCH   8  23
HETATM   23  N4  UNL     1      22.363   0.900  51.704  1.00  0.00    -0.347 N 
HETATM   24  H11 UNL     1      22.829   0.431  50.879  1.00  0.00     0.167 HD
BRANCH  23  25
HETATM   25  C16 UNL     1      21.969   2.263  51.795  1.00  0.00     0.012 A 
HETATM   26  C17 UNL     1      22.915   3.005  52.307  1.00  0.00     0.025 A 
HETATM   27  C18 UNL     1      22.727   4.458  52.498  1.00  0.00    -0.001 A 
HETATM   28  C19 UNL     1      21.543   4.918  52.113  1.00  0.00    -0.006 A 
HETATM   29  C20 UNL     1      20.413   4.182  51.533  1.00  0.00     0.110 A 
HETATM   30 CL1  UNL     1      20.017   4.929  49.965  1.00  0.00    -0.120 Cl
HETATM   31  C21 UNL     1      20.637   2.718  51.336  1.00  0.00     0.081 A 
ENDBRANCH  23  25
ENDBRANCH   8  23
TORSDOF 5
ENDMDL
MODEL 6
REMARK VINA RESULT:      -8.3      2.848      3.746
REMARK  5 active torsions:
REMARK  status: ('A' for Active; 'I' for Inactive)
REMARK    1  A    between atoms: C1_2  and  C2_3 
REMARK       I    between atoms: C1_2  and  N1_12 
REMARK    2  A    between atoms: C3_4  and  C4_5 
REMARK    3  A    between atoms: N1_12  and  C10_13 
REMARK    4  A    between atoms: C15_20  and  N4_21 
REMARK    5  A    between atoms: N4_21  and  C16_22 
ROOT
HETATM    1  C10 UNL     1      24.721   0.847  52.612  1.00  0.00     0.029 A 
HETATM    2  C11 UNL     1      24.661  -0.114  53.522  1.00  0.00     0.028 A 
HETATM    3  C12 UNL     1      25.803  -0.082  54.427  1.00  0.00     0.030 A 
HETATM    4  C13 UNL     1      26.552   0.936  54.031  1.00  0.00     0.053 A 
HETATM    5  N2  UNL     1      27.783   1.524  54.445  1.00  0.00    -0.245 NA
HETATM    6  C14 UNL     1      28.444   2.275  53.590  1.00  0.00     0.235 C 
HETATM    7  N3  UNL     1      27.913   2.499  52.320  1.00  0.00    -0.227 NA
HETATM    8  C15 UNL     1      26.791   2.089  51.837  1.00  0.00     0.121 C 
HETATM    9  C22 UNL     1      25.920   1.592  52.895  1.00  0.00     0.157 A 
ENDROOT
BRANCH   1  10
HETATM   10  N1  UNL     1      23.754   1.056  51.607  1.00  0.00    -0.326 N 
HETATM   11  C1  UNL     1      22.719   2.007  51.495  1.00  0.00     0.245 C 
HETATM   12  O1  UNL     1      22.844   2.666  52.539  1.00  0.00    -0.268 OA
HETATM   13  H7  UNL     1      23.858   0.373  50.791  1.00  0.00     0.169 HD
BRANCH  11  14
HETATM   14  C2  UNL     1      21.821   2.044  50.350  1.00  0.00     0.075 C 
HETATM   15  C3  UNL     1      20.652   1.602  50.062  1.00  0.00     0.017 C 
BRANCH  15  16
HETATM   16  C4  UNL     1      19.566   0.841  50.650  1.00  0.00    -0.036 A 
HETATM   17  C5  UNL     1      19.577   0.204  51.871  1.00  0.00     0.012 A 
HETATM   18  C6  UNL     1      18.558  -0.510  52.429  1.00  0.00     0.020 A 
HETATM   19  C7  UNL     1      17.404  -0.609  51.706  1.00  0.00     0.011 A 
HETATM   20 BR1  UNL     1      15.906  -1.580  52.373  1.00  0.00    -0.051 Br
HETATM   21  C8  UNL     1      17.276  -0.015  50.475  1.00  0.00     0.020 A 
HETATM   22  C9  UNL     1      18.359   0.678  50.006  1.00  0.00     0.012 A 
ENDBRANCH  15  16
ENDBRANCH  11  14
ENDBRANCH   1  10
BRANCH   8  23
HETATM   23  N4  UNL     1      26.430   2.383  50.504  1.00  0.00    -0.347 N 
HETATM   24  H11 UNL     1      26.357   1.509  49.913  1.00  0.00     0.167 HD
BRANCH  23  25
HETATM   25  C16 UNL     1      26.220   3.721  50.069  1.00  0.00     0.012 A 
HETATM   26  C17 UNL     1      27.137   4.099  49.217  1.00  0.00     0.025 A 
HETATM   27  C18 UNL     1      27.121   5.456  48.632  1.00  0.00    -0.001 A 
HETATM   28  C19 UNL     1      26.119   6.224  49.044  1.00  0.00    -0.006 A 
HETATM   29  C20 UNL     1      25.044   5.907  49.990  1.00  0.00     0.110 A 
HETATM   30 CL1  UNL     1      23.489   6.166  49.162  1.00  0.00    -0.120 Cl
HETATM   31  C21 UNL     1      25.075   4.524  50.554  1.00  0.00     0.081 A 
ENDBRANCH  23  25
ENDBRANCH   8  23
TORSDOF 5
ENDMDL
MODEL 7
REMARK VINA RESULT:      -8.2      4.262      7.811
REMARK  5 active torsions:
REMARK  status: ('A' for Active; 'I' for Inactive)
REMARK    1  A    between atoms: C1_2  and  C2_3 
REMARK       I    between atoms: C1_2  and  N1_12 
REMARK    2  A    between atoms: C3_4  and  C4_5 
REMARK    3  A    between atoms: N1_12  and  C10_13 
REMARK    4  A    between atoms: C15_20  and  N4_21 
REMARK    5  A    between atoms: N4_21  and  C16_22 
ROOT
HETATM    1  C10 UNL     1      22.940   4.293  50.895  1.00  0.00     0.029 A 
HETATM    2  C11 UNL     1      22.087   5.157  50.364  1.00  0.00     0.028 A 
HETATM    3  C12 UNL     1      20.728   4.951  50.849  1.00  0.00     0.030 A 
HETATM    4  C13 UNL     1      20.793   3.934  51.693  1.00  0.00     0.053 A 
HETATM    5  N2  UNL     1      19.867   3.214  52.504  1.00  0.00    -0.245 NA
HETATM    6  C14 UNL     1      20.192   2.008  52.917  1.00  0.00     0.235 C 
HETATM    7  N3  UNL     1      21.439   1.480  52.580  1.00  0.00    -0.227 NA
HETATM    8  C15 UNL     1      22.391   2.037  51.916  1.00  0.00     0.121 C 
HETATM    9  C22 UNL     1      22.171   3.473  51.795  1.00  0.00     0.157 A 
ENDROOT
BRANCH   1  10
HETATM   10  N1  UNL     1      24.320   4.254  50.609  1.00  0.00    -0.326 N 
HETATM   11  C1  UNL     1      25.044   3.587  49.600  1.00  0.00     0.245 C 
HETATM   12  O1  UNL     1      24.151   2.998  48.972  1.00  0.00    -0.268 OA
HETATM   13  H7  UNL     1      24.894   4.860  51.279  1.00  0.00     0.169 HD
BRANCH  11  14
HETATM   14  C2  UNL     1      26.491   3.689  49.487  1.00  0.00     0.075 C 
HETATM   15  C3  UNL     1      27.338   4.543  49.040  1.00  0.00     0.017 C 
BRANCH  15  16
HETATM   16  C4  UNL     1      27.386   5.849  48.412  1.00  0.00    -0.036 A 
HETATM   17  C5  UNL     1      26.327   6.710  48.227  1.00  0.00     0.012 A 
HETATM   18  C6  UNL     1      26.368   7.940  47.640  1.00  0.00     0.020 A 
HETATM   19  C7  UNL     1      27.581   8.368  47.184  1.00  0.00     0.011 A 
HETATM   20 BR1  UNL     1      27.773  10.067  46.342  1.00  0.00    -0.051 Br
HETATM   21  C8  UNL     1      28.708   7.596  47.313  1.00  0.00     0.020 A 
HETATM   22  C9  UNL     1      28.559   6.377  47.918  1.00  0.00     0.012 A 
ENDBRANCH  15  16
ENDBRANCH  11  14
ENDBRANCH   1  10
BRANCH   8  23
HETATM   23  N4  UNL     1      23.582   1.331  51.633  1.00  0.00    -0.347 N 
HETATM   24  H11 UNL     1      23.601   0.975  50.638  1.00  0.00     0.167 HD
BRANCH  23  25
HETATM   25  C16 UNL     1      24.587   1.144  52.621  1.00  0.00     0.012 A 
HETATM   26  C17 UNL     1      24.613  -0.088  53.055  1.00  0.00     0.025 A 
HETATM   27  C18 UNL     1      25.579  -0.513  54.089  1.00  0.00    -0.001 A 
HETATM   28  C19 UNL     1      26.388   0.448  54.519  1.00  0.00    -0.006 A 
HETATM   29  C20 UNL     1      26.445   1.855  54.109  1.00  0.00     0.110 A 
HETATM   30 CL1  UNL     1      28.097   2.194  53.536  1.00  0.00    -0.120 Cl
HETATM   31  C21 UNL     1      25.469   2.254  53.051  1.00  0.00     0.081 A 
ENDBRANCH  23  25
ENDBRANCH   8  23
TORSDOF 5
ENDMDL
MODEL 8
REMARK VINA RESULT:      -8.2      3.241      5.764
REMARK  5 active torsions:
REMARK  status: ('A' for Active; 'I' for Inactive)
REMARK    1  A    between atoms: C1_2  and  C2_3 
REMARK       I    between atoms: C1_2  and  N1_12 
REMARK    2  A    between atoms: C3_4  and  C4_5 
REMARK    3  A    between atoms: N1_12  and  C10_13 
REMARK    4  A    between atoms: C15_20  and  N4_21 
REMARK    5  A    between atoms: N4_21  and  C16_22 
ROOT
HETATM    1  C10 UNL     1      26.529   2.123  51.872  1.00  0.00     0.029 A 
HETATM    2  C11 UNL     1      27.485   1.383  52.415  1.00  0.00     0.028 A 
HETATM    3  C12 UNL     1      26.946   0.233  53.131  1.00  0.00     0.030 A 
HETATM    4  C13 UNL     1      25.631   0.305  52.998  1.00  0.00     0.053 A 
HETATM    5  N2  UNL     1      24.513  -0.464  53.435  1.00  0.00    -0.245 NA
HETATM    6  C14 UNL     1      23.327   0.104  53.463  1.00  0.00     0.235 C 
HETATM    7  N3  UNL     1      23.188   1.426  53.039  1.00  0.00    -0.227 NA
HETATM    8  C15 UNL     1      24.090   2.212  52.562  1.00  0.00     0.121 C 
HETATM    9  C22 UNL     1      25.286   1.467  52.190  1.00  0.00     0.157 A 
ENDROOT
BRANCH   1  10
HETATM   10  N1  UNL     1      26.755   3.295  51.122  1.00  0.00    -0.326 N 
HETATM   11  C1  UNL     1      26.672   3.545  49.738  1.00  0.00     0.245 C 
HETATM   12  O1  UNL     1      26.337   2.440  49.284  1.00  0.00    -0.268 OA
HETATM   13  H7  UNL     1      27.016   4.130  51.738  1.00  0.00     0.169 HD
BRANCH  11  14
HETATM   14  C2  UNL     1      26.952   4.854  49.168  1.00  0.00     0.075 C 
HETATM   15  C3  UNL     1      26.312   5.951  48.983  1.00  0.00     0.017 C 
BRANCH  15  16
HETATM   16  C4  UNL     1      25.005   6.537  49.208  1.00  0.00    -0.036 A 
HETATM   17  C5  UNL     1      24.493   6.964  50.414  1.00  0.00     0.012 A 
HETATM   18  C6  UNL     1      23.267   7.518  50.631  1.00  0.00     0.020 A 
HETATM   19  C7  UNL     1      22.455   7.668  49.543  1.00  0.00     0.011 A 
HETATM   20 BR1  UNL     1      20.715   8.427  49.712  1.00  0.00    -0.051 Br
HETATM   21  C8  UNL     1      22.857   7.279  48.290  1.00  0.00     0.020 A 
HETATM   22  C9  UNL     1      24.108   6.734  48.182  1.00  0.00     0.012 A 
ENDBRANCH  15  16
ENDBRANCH  11  14
ENDBRANCH   1  10
BRANCH   8  23
HETATM   23  N4  UNL     1      23.775   3.545  52.216  1.00  0.00    -0.347 N 
HETATM   24  H11 UNL     1      24.409   4.239  52.702  1.00  0.00     0.167 HD
BRANCH  23  25
HETATM   25  C16 UNL     1      22.708   3.849  51.326  1.00  0.00     0.012 A 
HETATM   26  C17 UNL     1      22.994   3.507  50.097  1.00  0.00     0.025 A 
HETATM   27  C18 UNL     1      22.031   3.732  48.999  1.00  0.00    -0.001 A 
HETATM   28  C19 UNL     1      20.889   4.296  49.372  1.00  0.00    -0.006 A 
HETATM   29  C20 UNL     1      20.465   4.722  50.711  1.00  0.00     0.110 A 
HETATM   30 CL1  UNL     1      18.939   3.888  51.096  1.00  0.00    -0.120 Cl
HETATM   31  C21 UNL     1      21.451   4.468  51.805  1.00  0.00     0.081 A 
ENDBRANCH  23  25
ENDBRANCH   8  23
TORSDOF 5
ENDMDL
MODEL 9
REMARK VINA RESULT:      -7.9      3.715      6.516
REMARK  5 active torsions:
REMARK  status: ('A' for Active; 'I' for Inactive)
REMARK    1  A    between atoms: C1_2  and  C2_3 
REMARK       I    between atoms: C1_2  and  N1_12 
REMARK    2  A    between atoms: C3_4  and  C4_5 
REMARK    3  A    between atoms: N1_12  and  C10_13 
REMARK    4  A    between atoms: C15_20  and  N4_21 
REMARK    5  A    between atoms: N4_21  and  C16_22 
ROOT
HETATM    1  C10 UNL     1      25.425   5.798  49.805  1.00  0.00     0.029 A 
HETATM    2  C11 UNL     1      25.849   6.347  48.676  1.00  0.00     0.028 A 
HETATM    3  C12 UNL     1      24.987   7.440  48.243  1.00  0.00     0.030 A 
HETATM    4  C13 UNL     1      24.029   7.531  49.152  1.00  0.00     0.053 A 
HETATM    5  N2  UNL     1      22.879   8.349  49.351  1.00  0.00    -0.245 NA
HETATM    6  C14 UNL     1      21.923   7.916  50.144  1.00  0.00     0.235 C 
HETATM    7  N3  UNL     1      22.071   6.688  50.790  1.00  0.00    -0.227 NA
HETATM    8  C15 UNL     1      23.075   5.881  50.754  1.00  0.00     0.121 C 
HETATM    9  C22 UNL     1      24.249   6.535  50.192  1.00  0.00     0.157 A 
ENDROOT
BRANCH   1  10
HETATM   10  N1  UNL     1      26.060   4.722  50.458  1.00  0.00    -0.326 N 
HETATM   11  C1  UNL     1      25.922   3.328  50.305  1.00  0.00     0.245 C 
HETATM   12  O1  UNL     1      25.063   3.238  49.413  1.00  0.00    -0.268 OA
HETATM   13  H7  UNL     1      26.781   5.049  51.178  1.00  0.00     0.169 HD
BRANCH  11  14
HETATM   14  C2  UNL     1      26.692   2.380  51.097  1.00  0.00     0.075 C 
HETATM   15  C3  UNL     1      26.444   1.438  51.932  1.00  0.00     0.017 C 
BRANCH  15  16
HETATM   16  C4  UNL     1      25.325   0.770  52.568  1.00  0.00    -0.036 A 
HETATM   17  C5  UNL     1      25.389  -0.122  53.615  1.00  0.00     0.012 A 
HETATM   18  C6  UNL     1      24.340  -0.750  54.218  1.00  0.00     0.020 A 
HETATM   19  C7  UNL     1      23.093  -0.471  53.738  1.00  0.00     0.011 A 
HETATM   20 BR1  UNL     1      21.543  -1.285  54.492  1.00  0.00    -0.051 Br
HETATM   21  C8  UNL     1      22.905   0.403  52.696  1.00  0.00     0.020 A 
HETATM   22  C9  UNL     1      24.025   0.980  52.162  1.00  0.00     0.012 A 
ENDBRANCH  15  16
ENDBRANCH  11  14
ENDBRANCH   1  10
BRANCH   8  23
HETATM   23  N4  UNL     1      23.035   4.651  51.448  1.00  0.00    -0.347 N 
HETATM   24  H11 UNL     1      23.869   4.532  52.087  1.00  0.00     0.167 HD
BRANCH  23  25
HETATM   25  C16 UNL     1      21.977   3.720  51.251  1.00  0.00     0.012 A 
HETATM   26  C17 UNL     1      21.221   3.620  52.312  1.00  0.00     0.025 A 
HETATM   27  C18 UNL     1      20.059   2.708  52.336  1.00  0.00    -0.001 A 
HETATM   28  C19 UNL     1      19.868   2.024  51.214  1.00  0.00    -0.006 A 
HETATM   29  C20 UNL     1      20.650   2.055  49.973  1.00  0.00     0.110 A 
HETATM   30 CL1  UNL     1      19.548   2.480  48.639  1.00  0.00    -0.120 Cl
HETATM   31  C21 UNL     1      21.809   2.997  49.970  1.00  0.00     0.081 A 
ENDBRANCH  23  25
ENDBRANCH   8  23
TORSDOF 5
ENDMDL
