MODEL 1
REMARK VINA RESULT:      -9.0      0.000      0.000
REMARK  4 active torsions:
REMARK  status: ('A' for Active; 'I' for Inactive)
REMARK    1  A    between atoms: C5_6  and  C6_7 
REMARK    2  A    between atoms: C16_22  and  C17_23 
REMARK    3  A    between atoms: C17_23  and  C18_24 
REMARK    4  A    between atoms: C18_24  and  N3_25 
ROOT
HETATM    1  O1  UNL     1      23.255   5.522  51.170  1.00  0.00    -0.285 OA
HETATM    2  C1  UNL     1      23.872   4.622  51.748  1.00  0.00     0.205 C 
HETATM    3  C2  UNL     1      23.857   4.183  53.204  1.00  0.00     0.069 C 
HETATM    4  C3  UNL     1      24.589   3.262  53.858  1.00  0.00    -0.023 C 
HETATM    5  C4  UNL     1      25.696   2.867  53.180  1.00  0.00     0.022 C 
HETATM    6  C5  UNL     1      26.386   2.073  52.109  1.00  0.00     0.092 C 
HETATM    7  N1  UNL     1      27.066   2.969  51.136  1.00  0.00    -0.404 NA
HETATM    8  C12 UNL     1      26.493   3.177  49.931  1.00  0.00     0.437 C 
HETATM    9  N2  UNL     1      27.100   4.051  48.934  1.00  0.00    -0.270 NA
HETATM   10  C13 UNL     1      26.452   5.246  49.002  1.00  0.00     0.116 C 
HETATM   11  C14 UNL     1      25.416   4.973  50.065  1.00  0.00     0.059 C 
HETATM   12  C15 UNL     1      24.731   3.955  50.714  1.00  0.00     0.120 C 
HETATM   13  O2  UNL     1      24.715   2.514  50.529  1.00  0.00    -0.339 OA
HETATM   14  C16 UNL     1      25.312   1.410  51.218  1.00  0.00     0.166 C 
ENDROOT
BRANCH   6  15
HETATM   15  C6  UNL     1      27.319   1.137  52.644  1.00  0.00    -0.023 A 
HETATM   16  C7  UNL     1      28.359   1.676  53.382  1.00  0.00     0.013 A 
HETATM   17  C8  UNL     1      29.351   0.915  53.973  1.00  0.00     0.044 A 
HETATM   18  C9  UNL     1      29.330  -0.471  53.837  1.00  0.00     0.138 A 
HETATM   19  F1  UNL     1      30.271  -1.263  54.391  1.00  0.00    -0.204 F 
HETATM   20  C10 UNL     1      28.318  -1.049  53.115  1.00  0.00     0.073 A 
HETATM   21 CL1  UNL     1      28.252  -2.773  52.918  1.00  0.00    -0.081 Cl
HETATM   22  C11 UNL     1      27.341  -0.257  52.536  1.00  0.00     0.037 A 
ENDBRANCH   6  15
BRANCH  14  23
HETATM   23  C17 UNL     1      24.297   0.644  51.950  1.00  0.00     0.055 C 
BRANCH  23  24
HETATM   24  C18 UNL     1      22.846   0.908  51.669  1.00  0.00     0.119 C 
BRANCH  24  25
HETATM   25  N3  UNL     1      21.866   0.206  52.402  1.00  0.00    -0.408 N 
HETATM   26  C19 UNL     1      20.930   0.968  53.088  1.00  0.00     0.143 C 
HETATM   27  C20 UNL     1      20.581   0.535  54.497  1.00  0.00     0.187 C 
HETATM   28  O3  UNL     1      21.338  -0.483  55.004  1.00  0.00    -0.388 OA
HETATM   29  C21 UNL     1      21.496  -1.503  54.039  1.00  0.00     0.187 C 
HETATM   30  C22 UNL     1      22.428  -0.942  53.018  1.00  0.00     0.143 C 
ENDBRANCH  24  25
ENDBRANCH  23  24
ENDBRANCH  14  23
TORSDOF 4
ENDMDL
MODEL 2
REMARK VINA RESULT:      -8.7      2.623      5.859
REMARK  4 active torsions:
REMARK  status: ('A' for Active; 'I' for Inactive)
REMARK    1  A    between atoms: C5_6  and  C6_7 
REMARK    2  A    between atoms: C16_22  and  C17_23 
REMARK    3  A    between atoms: C17_23  and  C18_24 
REMARK    4  A    between atoms: C18_24  and  N3_25 
ROOT
HETATM    1  O1  UNL     1      19.779   2.483  49.376  1.00  0.00    -0.285 OA
HETATM    2  C1  UNL     1      20.916   2.415  49.853  1.00  0.00     0.205 C 
HETATM    3  C2  UNL     1      22.278   2.639  49.213  1.00  0.00     0.069 C 
HETATM    4  C3  UNL     1      23.521   2.481  49.703  1.00  0.00    -0.023 C 
HETATM    5  C4  UNL     1      23.569   1.746  50.842  1.00  0.00     0.022 C 
HETATM    6  C5  UNL     1      23.394   1.577  52.324  1.00  0.00     0.092 C 
HETATM    7  N1  UNL     1      22.370   0.543  52.626  1.00  0.00    -0.404 NA
HETATM    8  C12 UNL     1      21.141   0.939  53.020  1.00  0.00     0.437 C 
HETATM    9  N2  UNL     1      20.087  -0.023  53.323  1.00  0.00    -0.270 NA
HETATM   10  C13 UNL     1      19.279  -0.087  52.230  1.00  0.00     0.116 C 
HETATM   11  C14 UNL     1      19.917   0.929  51.315  1.00  0.00     0.059 C 
HETATM   12  C15 UNL     1      20.756   2.036  51.296  1.00  0.00     0.120 C 
HETATM   13  O2  UNL     1      21.396   2.797  52.356  1.00  0.00    -0.339 OA
HETATM   14  C16 UNL     1      22.723   2.850  52.889  1.00  0.00     0.166 C 
ENDROOT
BRANCH   6  15
HETATM   15  C6  UNL     1      24.620   1.258  52.980  1.00  0.00    -0.023 A 
HETATM   16  C7  UNL     1      24.624   0.083  53.710  1.00  0.00     0.013 A 
HETATM   17  C8  UNL     1      25.726  -0.379  54.408  1.00  0.00     0.044 A 
HETATM   18  C9  UNL     1      26.909   0.356  54.392  1.00  0.00     0.138 A 
HETATM   19  F1  UNL     1      28.014  -0.046  55.054  1.00  0.00    -0.204 F 
HETATM   20  C10 UNL     1      26.951   1.527  53.682  1.00  0.00     0.073 A 
HETATM   21 CL1  UNL     1      28.404   2.476  53.636  1.00  0.00    -0.081 Cl
HETATM   22  C11 UNL     1      25.829   1.960  52.995  1.00  0.00     0.037 A 
ENDBRANCH   6  15
BRANCH  14  23
HETATM   23  C17 UNL     1      23.383   4.107  52.518  1.00  0.00     0.055 C 
BRANCH  23  24
HETATM   24  C18 UNL     1      22.552   5.224  51.955  1.00  0.00     0.119 C 
BRANCH  24  25
HETATM   25  N3  UNL     1      23.063   5.988  50.885  1.00  0.00    -0.408 N 
HETATM   26  C19 UNL     1      24.438   5.960  50.695  1.00  0.00     0.143 C 
HETATM   27  C20 UNL     1      25.123   7.277  50.394  1.00  0.00     0.187 C 
HETATM   28  O3  UNL     1      24.331   8.388  50.487  1.00  0.00    -0.388 OA
HETATM   29  C21 UNL     1      23.086   8.154  49.863  1.00  0.00     0.187 C 
HETATM   30  C22 UNL     1      22.359   7.215  50.765  1.00  0.00     0.143 C 
ENDBRANCH  24  25
ENDBRANCH  23  24
ENDBRANCH  14  23
TORSDOF 4
ENDMDL
MODEL 3
REMARK VINA RESULT:      -8.6      3.811      5.959
REMARK  4 active torsions:
REMARK  status: ('A' for Active; 'I' for Inactive)
REMARK    1  A    between atoms: C5_6  and  C6_7 
REMARK    2  A    between atoms: C16_22  and  C17_23 
REMARK    3  A    between atoms: C17_23  and  C18_24 
REMARK    4  A    between atoms: C18_24  and  N3_25 
ROOT
HETATM    1  O1  UNL     1      21.818  -0.523  52.753  1.00  0.00    -0.285 OA
HETATM    2  C1  UNL     1      22.219   0.381  52.014  1.00  0.00     0.205 C 
HETATM    3  C2  UNL     1      21.794   0.779  50.608  1.00  0.00     0.069 C 
HETATM    4  C3  UNL     1      22.285   1.705  49.765  1.00  0.00    -0.023 C 
HETATM    5  C4  UNL     1      23.517   2.157  50.109  1.00  0.00     0.022 C 
HETATM    6  C5  UNL     1      24.438   3.002  50.940  1.00  0.00     0.092 C 
HETATM    7  N1  UNL     1      25.391   2.157  51.707  1.00  0.00    -0.404 NA
HETATM    8  C12 UNL     1      25.173   1.963  53.026  1.00  0.00     0.437 C 
HETATM    9  N2  UNL     1      26.062   1.139  53.836  1.00  0.00    -0.270 NA
HETATM   10  C13 UNL     1      25.468  -0.079  53.967  1.00  0.00     0.116 C 
HETATM   11  C14 UNL     1      24.173   0.129  53.221  1.00  0.00     0.059 C 
HETATM   12  C15 UNL     1      23.298   1.105  52.764  1.00  0.00     0.120 C 
HETATM   13  O2  UNL     1      23.275   2.550  52.921  1.00  0.00    -0.339 OA
HETATM   14  C16 UNL     1      23.619   3.653  52.077  1.00  0.00     0.166 C 
ENDROOT
BRANCH   6  15
HETATM   15  C6  UNL     1      25.153   3.954  50.155  1.00  0.00    -0.023 A 
HETATM   16  C7  UNL     1      26.430   3.583  49.771  1.00  0.00     0.013 A 
HETATM   17  C8  UNL     1      27.262   4.383  49.009  1.00  0.00     0.044 A 
HETATM   18  C9  UNL     1      26.819   5.635  48.589  1.00  0.00     0.138 A 
HETATM   19  F1  UNL     1      27.587   6.457  47.844  1.00  0.00    -0.204 F 
HETATM   20  C10 UNL     1      25.561   6.044  48.944  1.00  0.00     0.073 A 
HETATM   21 CL1  UNL     1      24.967   7.597  48.444  1.00  0.00    -0.081 Cl
HETATM   22  C11 UNL     1      24.754   5.218  49.709  1.00  0.00     0.037 A 
ENDBRANCH   6  15
BRANCH  14  23
HETATM   23  C17 UNL     1      22.414   4.364  51.634  1.00  0.00     0.055 C 
BRANCH  23  24
HETATM   24  C18 UNL     1      21.102   4.047  52.290  1.00  0.00     0.119 C 
BRANCH  24  25
HETATM   25  N3  UNL     1      19.919   4.105  51.524  1.00  0.00    -0.408 N 
HETATM   26  C19 UNL     1      19.047   3.030  51.634  1.00  0.00     0.143 C 
HETATM   27  C20 UNL     1      18.431   2.503  50.354  1.00  0.00     0.187 C 
HETATM   28  O3  UNL     1      18.915   3.050  49.199  1.00  0.00    -0.388 OA
HETATM   29  C21 UNL     1      19.023   4.452  49.330  1.00  0.00     0.187 C 
HETATM   30  C22 UNL     1      20.175   4.678  50.251  1.00  0.00     0.143 C 
ENDBRANCH  24  25
ENDBRANCH  23  24
ENDBRANCH  14  23
TORSDOF 4
ENDMDL
MODEL 4
REMARK VINA RESULT:      -8.5      2.644      3.402
REMARK  4 active torsions:
REMARK  status: ('A' for Active; 'I' for Inactive)
REMARK    1  A    between atoms: C5_6  and  C6_7 
REMARK    2  A    between atoms: C16_22  and  C17_23 
REMARK    3  A    between atoms: C17_23  and  C18_24 
REMARK    4  A    between atoms: C18_24  and  N3_25 
ROOT
HETATM    1  O1  UNL     1      22.703   7.137  49.728  1.00  0.00    -0.285 OA
HETATM    2  C1  UNL     1      22.835   6.065  50.325  1.00  0.00     0.205 C 
HETATM    3  C2  UNL     1      22.120   5.513  51.550  1.00  0.00     0.069 C 
HETATM    4  C3  UNL     1      22.320   4.386  52.257  1.00  0.00    -0.023 C 
HETATM    5  C4  UNL     1      23.515   3.793  52.011  1.00  0.00     0.022 C 
HETATM    6  C5  UNL     1      24.436   2.955  51.172  1.00  0.00     0.092 C 
HETATM    7  N1  UNL     1      25.618   3.741  50.730  1.00  0.00    -0.404 NA
HETATM    8  C12 UNL     1      25.662   4.191  49.458  1.00  0.00     0.437 C 
HETATM    9  N2  UNL     1      26.787   4.975  48.961  1.00  0.00    -0.270 NA
HETATM   10  C13 UNL     1      26.406   6.281  48.987  1.00  0.00     0.116 C 
HETATM   11  C14 UNL     1      24.985   6.177  49.485  1.00  0.00     0.059 C 
HETATM   12  C15 UNL     1      23.913   5.304  49.611  1.00  0.00     0.120 C 
HETATM   13  O2  UNL     1      23.710   3.933  49.172  1.00  0.00    -0.339 OA
HETATM   14  C16 UNL     1      23.741   2.659  49.824  1.00  0.00     0.166 C 
ENDROOT
BRANCH   6  15
HETATM   15  C6  UNL     1      24.860   1.774  51.849  1.00  0.00    -0.023 A 
HETATM   16  C7  UNL     1      26.100   1.281  51.484  1.00  0.00     0.013 A 
HETATM   17  C8  UNL     1      26.666   0.147  52.039  1.00  0.00     0.044 A 
HETATM   18  C9  UNL     1      25.974  -0.558  53.021  1.00  0.00     0.138 A 
HETATM   19  F1  UNL     1      26.476  -1.670  53.596  1.00  0.00    -0.204 F 
HETATM   20  C10 UNL     1      24.741  -0.107  53.415  1.00  0.00     0.073 A 
HETATM   21 CL1  UNL     1      23.842  -0.955  54.634  1.00  0.00    -0.081 Cl
HETATM   22  C11 UNL     1      24.204   1.032  52.838  1.00  0.00     0.037 A 
ENDBRANCH   6  15
BRANCH  14  23
HETATM   23  C17 UNL     1      22.389   2.103  49.940  1.00  0.00     0.055 C 
BRANCH  23  24
HETATM   24  C18 UNL     1      21.287   2.691  49.107  1.00  0.00     0.119 C 
BRANCH  24  25
HETATM   25  N3  UNL     1      19.982   2.754  49.639  1.00  0.00    -0.408 N 
HETATM   26  C19 UNL     1      19.331   3.978  49.560  1.00  0.00     0.143 C 
HETATM   27  C20 UNL     1      18.565   4.437  50.784  1.00  0.00     0.187 C 
HETATM   28  O3  UNL     1      18.719   3.661  51.899  1.00  0.00    -0.388 OA
HETATM   29  C21 UNL     1      18.627   2.293  51.559  1.00  0.00     0.187 C 
HETATM   30  C22 UNL     1      19.887   1.980  50.824  1.00  0.00     0.143 C 
ENDBRANCH  24  25
ENDBRANCH  23  24
ENDBRANCH  14  23
TORSDOF 4
ENDMDL
MODEL 5
REMARK VINA RESULT:      -8.4      3.423      6.572
REMARK  4 active torsions:
REMARK  status: ('A' for Active; 'I' for Inactive)
REMARK    1  A    between atoms: C5_6  and  C6_7 
REMARK    2  A    between atoms: C16_22  and  C17_23 
REMARK    3  A    between atoms: C17_23  and  C18_24 
REMARK    4  A    between atoms: C18_24  and  N3_25 
ROOT
HETATM    1  O1  UNL     1      20.458   4.868  48.085  1.00  0.00    -0.285 OA
HETATM    2  C1  UNL     1      21.071   4.080  48.812  1.00  0.00     0.205 C 
HETATM    3  C2  UNL     1      22.233   3.146  48.509  1.00  0.00     0.069 C 
HETATM    4  C3  UNL     1      22.847   2.223  49.272  1.00  0.00    -0.023 C 
HETATM    5  C4  UNL     1      22.144   1.878  50.380  1.00  0.00     0.022 C 
HETATM    6  C5  UNL     1      21.658   2.130  51.778  1.00  0.00     0.092 C 
HETATM    7  N1  UNL     1      20.175   2.219  51.819  1.00  0.00    -0.404 NA
HETATM    8  C12 UNL     1      19.598   3.436  51.922  1.00  0.00     0.437 C 
HETATM    9  N2  UNL     1      18.149   3.596  51.958  1.00  0.00    -0.270 NA
HETATM   10  C13 UNL     1      17.757   3.959  50.706  1.00  0.00     0.116 C 
HETATM   11  C14 UNL     1      19.077   4.035  49.980  1.00  0.00     0.059 C 
HETATM   12  C15 UNL     1      20.445   4.174  50.172  1.00  0.00     0.120 C 
HETATM   13  O2  UNL     1      21.248   4.397  51.363  1.00  0.00    -0.339 OA
HETATM   14  C16 UNL     1      22.065   3.563  52.190  1.00  0.00     0.166 C 
ENDROOT
BRANCH   6  15
HETATM   15  C6  UNL     1      22.113   1.137  52.696  1.00  0.00    -0.023 A 
HETATM   16  C7  UNL     1      21.145   0.583  53.513  1.00  0.00     0.013 A 
HETATM   17  C8  UNL     1      21.409  -0.391  54.459  1.00  0.00     0.044 A 
HETATM   18  C9  UNL     1      22.711  -0.860  54.620  1.00  0.00     0.138 A 
HETATM   19  F1  UNL     1      23.027  -1.808  55.527  1.00  0.00    -0.204 F 
HETATM   20  C10 UNL     1      23.703  -0.340  53.832  1.00  0.00     0.073 A 
HETATM   21 CL1  UNL     1      25.340  -0.893  53.998  1.00  0.00    -0.081 Cl
HETATM   22  C11 UNL     1      23.403   0.635  52.895  1.00  0.00     0.037 A 
ENDBRANCH   6  15
BRANCH  14  23
HETATM   23  C17 UNL     1      23.486   3.874  52.001  1.00  0.00     0.055 C 
BRANCH  23  24
HETATM   24  C18 UNL     1      23.868   5.226  51.469  1.00  0.00     0.119 C 
BRANCH  24  25
HETATM   25  N3  UNL     1      24.309   5.338  50.134  1.00  0.00    -0.408 N 
HETATM   26  C19 UNL     1      25.625   4.979  49.875  1.00  0.00     0.143 C 
HETATM   27  C20 UNL     1      26.423   5.882  48.958  1.00  0.00     0.187 C 
HETATM   28  O3  UNL     1      25.805   7.046  48.594  1.00  0.00    -0.388 OA
HETATM   29  C21 UNL     1      24.461   6.795  48.239  1.00  0.00     0.187 C 
HETATM   30  C22 UNL     1      23.760   6.495  49.521  1.00  0.00     0.143 C 
ENDBRANCH  24  25
ENDBRANCH  23  24
ENDBRANCH  14  23
TORSDOF 4
ENDMDL
MODEL 6
REMARK VINA RESULT:      -8.2      3.143      6.347
REMARK  4 active torsions:
REMARK  status: ('A' for Active; 'I' for Inactive)
REMARK    1  A    between atoms: C5_6  and  C6_7 
REMARK    2  A    between atoms: C16_22  and  C17_23 
REMARK    3  A    between atoms: C17_23  and  C18_24 
REMARK    4  A    between atoms: C18_24  and  N3_25 
ROOT
HETATM    1  O1  UNL     1      19.615   3.739  47.912  1.00  0.00    -0.285 OA
HETATM    2  C1  UNL     1      20.541   3.337  48.623  1.00  0.00     0.205 C 
HETATM    3  C2  UNL     1      22.044   3.327  48.386  1.00  0.00     0.069 C 
HETATM    4  C3  UNL     1      23.051   2.813  49.115  1.00  0.00    -0.023 C 
HETATM    5  C4  UNL     1      22.642   1.929  50.060  1.00  0.00     0.022 C 
HETATM    6  C5  UNL     1      22.036   1.590  51.391  1.00  0.00     0.092 C 
HETATM    7  N1  UNL     1      20.793   0.792  51.223  1.00  0.00    -0.404 NA
HETATM    8  C12 UNL     1      19.600   1.402  51.384  1.00  0.00     0.437 C 
HETATM    9  N2  UNL     1      18.342   0.681  51.225  1.00  0.00    -0.270 NA
HETATM   10  C13 UNL     1      17.871   0.969  49.981  1.00  0.00     0.116 C 
HETATM   11  C14 UNL     1      18.917   1.930  49.471  1.00  0.00     0.059 C 
HETATM   12  C15 UNL     1      19.920   2.799  49.878  1.00  0.00     0.120 C 
HETATM   13  O2  UNL     1      20.372   3.226  51.191  1.00  0.00    -0.339 OA
HETATM   14  C16 UNL     1      21.485   2.888  52.025  1.00  0.00     0.166 C 
ENDROOT
BRANCH   6  15
HETATM   15  C6  UNL     1      22.949   0.900  52.241  1.00  0.00    -0.023 A 
HETATM   16  C7  UNL     1      22.380   0.132  53.241  1.00  0.00     0.013 A 
HETATM   17  C8  UNL     1      23.115  -0.603  54.153  1.00  0.00     0.044 A 
HETATM   18  C9  UNL     1      24.507  -0.589  54.087  1.00  0.00     0.138 A 
HETATM   19  F1  UNL     1      25.275  -1.285  54.950  1.00  0.00    -0.204 F 
HETATM   20  C10 UNL     1      25.115   0.158  53.113  1.00  0.00     0.073 A 
HETATM   21 CL1  UNL     1      26.846   0.207  52.994  1.00  0.00    -0.081 Cl
HETATM   22  C11 UNL     1      24.347   0.882  52.216  1.00  0.00     0.037 A 
ENDBRANCH   6  15
BRANCH  14  23
HETATM   23  C17 UNL     1      22.445   3.995  52.085  1.00  0.00     0.055 C 
BRANCH  23  24
HETATM   24  C18 UNL     1      21.990   5.372  51.695  1.00  0.00     0.119 C 
BRANCH  24  25
HETATM   25  N3  UNL     1      22.735   6.097  50.741  1.00  0.00    -0.408 N 
HETATM   26  C19 UNL     1      24.111   5.913  50.747  1.00  0.00     0.143 C 
HETATM   27  C20 UNL     1      24.977   7.147  50.601  1.00  0.00     0.187 C 
HETATM   28  O3  UNL     1      24.310   8.340  50.626  1.00  0.00    -0.388 OA
HETATM   29  C21 UNL     1      23.151   8.269  49.822  1.00  0.00     0.187 C 
HETATM   30  C22 UNL     1      22.198   7.400  50.573  1.00  0.00     0.143 C 
ENDBRANCH  24  25
ENDBRANCH  23  24
ENDBRANCH  14  23
TORSDOF 4
ENDMDL
MODEL 7
REMARK VINA RESULT:      -8.1      4.236      7.037
REMARK  4 active torsions:
REMARK  status: ('A' for Active; 'I' for Inactive)
REMARK    1  A    between atoms: C5_6  and  C6_7 
REMARK    2  A    between atoms: C16_22  and  C17_23 
REMARK    3  A    between atoms: C17_23  and  C18_24 
REMARK    4  A    between atoms: C18_24  and  N3_25 
ROOT
HETATM    1  O1  UNL     1      21.458   0.446  51.337  1.00  0.00    -0.285 OA
HETATM    2  C1  UNL     1      22.059   1.306  50.686  1.00  0.00     0.205 C 
HETATM    3  C2  UNL     1      21.973   1.679  49.213  1.00  0.00     0.069 C 
HETATM    4  C3  UNL     1      22.685   2.554  48.480  1.00  0.00    -0.023 C 
HETATM    5  C4  UNL     1      23.835   2.956  49.078  1.00  0.00     0.022 C 
HETATM    6  C5  UNL     1      24.596   3.783  50.074  1.00  0.00     0.092 C 
HETATM    7  N1  UNL     1      25.311   2.918  51.049  1.00  0.00    -0.404 NA
HETATM    8  C12 UNL     1      24.801   2.776  52.291  1.00  0.00     0.437 C 
HETATM    9  N2  UNL     1      25.445   1.936  53.294  1.00  0.00    -0.270 NA
HETATM   10  C13 UNL     1      24.773   0.753  53.316  1.00  0.00     0.116 C 
HETATM   11  C14 UNL     1      23.685   0.999  52.298  1.00  0.00     0.059 C 
HETATM   12  C15 UNL     1      22.985   2.001  51.641  1.00  0.00     0.120 C 
HETATM   13  O2  UNL     1      23.005   3.449  51.759  1.00  0.00    -0.339 OA
HETATM   14  C16 UNL     1      23.584   4.508  50.989  1.00  0.00     0.166 C 
ENDROOT
BRANCH   6  15
HETATM   15  C6  UNL     1      25.516   4.674  49.447  1.00  0.00    -0.023 A 
HETATM   16  C7  UNL     1      26.791   4.179  49.240  1.00  0.00     0.013 A 
HETATM   17  C8  UNL     1      27.806   4.906  48.645  1.00  0.00     0.044 A 
HETATM   18  C9  UNL     1      27.562   6.210  48.220  1.00  0.00     0.138 A 
HETATM   19  F1  UNL     1      28.514   6.966  47.635  1.00  0.00    -0.204 F 
HETATM   20  C10 UNL     1      26.313   6.742  48.404  1.00  0.00     0.073 A 
HETATM   21 CL1  UNL     1      25.964   8.364  47.891  1.00  0.00    -0.081 Cl
HETATM   22  C11 UNL     1      25.320   5.986  49.004  1.00  0.00     0.037 A 
ENDBRANCH   6  15
BRANCH  14  23
HETATM   23  C17 UNL     1      22.545   5.261  50.278  1.00  0.00     0.055 C 
BRANCH  23  24
HETATM   24  C18 UNL     1      21.737   6.275  51.036  1.00  0.00     0.119 C 
BRANCH  24  25
HETATM   25  N3  UNL     1      21.360   7.473  50.392  1.00  0.00    -0.408 N 
HETATM   26  C19 UNL     1      20.175   7.450  49.669  1.00  0.00     0.143 C 
HETATM   27  C20 UNL     1      20.177   8.124  48.312  1.00  0.00     0.187 C 
HETATM   28  O3  UNL     1      21.396   8.559  47.874  1.00  0.00    -0.388 OA
HETATM   29  C21 UNL     1      22.085   9.215  48.918  1.00  0.00     0.187 C 
HETATM   30  C22 UNL     1      22.497   8.136  49.862  1.00  0.00     0.143 C 
ENDBRANCH  24  25
ENDBRANCH  23  24
ENDBRANCH  14  23
TORSDOF 4
ENDMDL
MODEL 8
REMARK VINA RESULT:      -8.1      3.524      4.902
REMARK  4 active torsions:
REMARK  status: ('A' for Active; 'I' for Inactive)
REMARK    1  A    between atoms: C5_6  and  C6_7 
REMARK    2  A    between atoms: C16_22  and  C17_23 
REMARK    3  A    between atoms: C17_23  and  C18_24 
REMARK    4  A    between atoms: C18_24  and  N3_25 
ROOT
HETATM    1  O1  UNL     1      20.346   6.714  50.093  1.00  0.00    -0.285 OA
HETATM    2  C1  UNL     1      20.864   5.654  50.458  1.00  0.00     0.205 C 
HETATM    3  C2  UNL     1      20.260   4.437  51.144  1.00  0.00     0.069 C 
HETATM    4  C3  UNL     1      20.833   3.318  51.623  1.00  0.00    -0.023 C 
HETATM    5  C4  UNL     1      22.178   3.414  51.768  1.00  0.00     0.022 C 
HETATM    6  C5  UNL     1      23.577   3.419  51.223  1.00  0.00     0.092 C 
HETATM    7  N1  UNL     1      24.242   4.725  51.472  1.00  0.00    -0.404 NA
HETATM    8  C12 UNL     1      24.364   5.599  50.450  1.00  0.00     0.437 C 
HETATM    9  N2  UNL     1      24.997   6.901  50.627  1.00  0.00    -0.270 NA
HETATM   10  C13 UNL     1      23.998   7.815  50.763  1.00  0.00     0.116 C 
HETATM   11  C14 UNL     1      22.769   6.953  50.607  1.00  0.00     0.059 C 
HETATM   12  C15 UNL     1      22.319   5.740  50.103  1.00  0.00     0.120 C 
HETATM   13  O2  UNL     1      22.979   4.688  49.349  1.00  0.00    -0.339 OA
HETATM   14  C16 UNL     1      23.505   3.399  49.680  1.00  0.00     0.166 C 
ENDROOT
BRANCH   6  15
HETATM   15  C6  UNL     1      24.369   2.359  51.756  1.00  0.00    -0.023 A 
HETATM   16  C7  UNL     1      25.660   2.266  51.269  1.00  0.00     0.013 A 
HETATM   17  C8  UNL     1      26.563   1.300  51.675  1.00  0.00     0.044 A 
HETATM   18  C9  UNL     1      26.181   0.356  52.626  1.00  0.00     0.138 A 
HETATM   19  F1  UNL     1      27.019  -0.608  53.059  1.00  0.00    -0.204 F 
HETATM   20  C10 UNL     1      24.911   0.409  53.137  1.00  0.00     0.073 A 
HETATM   21 CL1  UNL     1      24.391  -0.747  54.323  1.00  0.00    -0.081 Cl
HETATM   22  C11 UNL     1      24.032   1.390  52.707  1.00  0.00     0.037 A 
ENDBRANCH   6  15
BRANCH  14  23
HETATM   23  C17 UNL     1      22.664   2.335  49.120  1.00  0.00     0.055 C 
BRANCH  23  24
HETATM   24  C18 UNL     1      22.564   2.199  47.627  1.00  0.00     0.119 C 
BRANCH  24  25
HETATM   25  N3  UNL     1      21.494   2.823  46.951  1.00  0.00    -0.408 N 
HETATM   26  C19 UNL     1      21.808   3.917  46.156  1.00  0.00     0.143 C 
HETATM   27  C20 UNL     1      20.888   5.118  46.235  1.00  0.00     0.187 C 
HETATM   28  O3  UNL     1      19.921   5.056  47.198  1.00  0.00    -0.388 OA
HETATM   29  C21 UNL     1      19.314   3.781  47.200  1.00  0.00     0.187 C 
HETATM   30  C22 UNL     1      20.335   2.855  47.769  1.00  0.00     0.143 C 
ENDBRANCH  24  25
ENDBRANCH  23  24
ENDBRANCH  14  23
TORSDOF 4
ENDMDL
MODEL 9
REMARK VINA RESULT:      -8.0      7.545     10.641
REMARK  4 active torsions:
REMARK  status: ('A' for Active; 'I' for Inactive)
REMARK    1  A    between atoms: C5_6  and  C6_7 
REMARK    2  A    between atoms: C16_22  and  C17_23 
REMARK    3  A    between atoms: C17_23  and  C18_24 
REMARK    4  A    between atoms: C18_24  and  N3_25 
ROOT
HETATM    1  O1  UNL     1      33.680   9.742  46.217  1.00  0.00    -0.285 OA
HETATM    2  C1  UNL     1      32.753   8.964  46.463  1.00  0.00     0.205 C 
HETATM    3  C2  UNL     1      32.239   7.755  45.695  1.00  0.00     0.069 C 
HETATM    4  C3  UNL     1      31.178   6.957  45.910  1.00  0.00    -0.023 C 
HETATM    5  C4  UNL     1      30.273   7.477  46.777  1.00  0.00     0.022 C 
HETATM    6  C5  UNL     1      29.798   7.811  48.162  1.00  0.00     0.092 C 
HETATM    7  N1  UNL     1      29.636   9.280  48.330  1.00  0.00    -0.404 NA
HETATM    8  C12 UNL     1      30.576   9.965  49.014  1.00  0.00     0.437 C 
HETATM    9  N2  UNL     1      30.483  11.408  49.208  1.00  0.00    -0.270 NA
HETATM   10  C13 UNL     1      31.302  11.988  48.289  1.00  0.00     0.116 C 
HETATM   11  C14 UNL     1      31.892  10.782  47.599  1.00  0.00     0.059 C 
HETATM   12  C15 UNL     1      32.135   9.424  47.750  1.00  0.00     0.120 C 
HETATM   13  O2  UNL     1      31.922   8.509  48.859  1.00  0.00    -0.339 OA
HETATM   14  C16 UNL     1      30.940   7.512  49.160  1.00  0.00     0.166 C 
ENDROOT
BRANCH   6  15
HETATM   15  C6  UNL     1      28.582   7.144  48.492  1.00  0.00    -0.023 A 
HETATM   16  C7  UNL     1      28.576   5.773  48.306  1.00  0.00     0.013 A 
HETATM   17  C8  UNL     1      27.482   4.970  48.575  1.00  0.00     0.044 A 
HETATM   18  C9  UNL     1      26.310   5.544  49.063  1.00  0.00     0.138 A 
HETATM   19  F1  UNL     1      25.213   4.810  49.343  1.00  0.00    -0.204 F 
HETATM   20  C10 UNL     1      26.270   6.898  49.264  1.00  0.00     0.073 A 
HETATM   21 CL1  UNL     1      24.830   7.656  49.869  1.00  0.00    -0.081 Cl
HETATM   22  C11 UNL     1      27.383   7.673  48.983  1.00  0.00     0.037 A 
ENDBRANCH   6  15
BRANCH  14  23
HETATM   23  C17 UNL     1      31.514   6.166  49.048  1.00  0.00     0.055 C 
BRANCH  23  24
HETATM   24  C18 UNL     1      33.004   6.020  48.932  1.00  0.00     0.119 C 
BRANCH  24  25
HETATM   25  N3  UNL     1      33.532   4.955  48.173  1.00  0.00    -0.408 N 
HETATM   26  C19 UNL     1      34.530   5.269  47.260  1.00  0.00     0.143 C 
HETATM   27  C20 UNL     1      34.446   4.626  45.891  1.00  0.00     0.187 C 
HETATM   28  O3  UNL     1      33.306   3.913  45.645  1.00  0.00    -0.388 OA
HETATM   29  C21 UNL     1      32.988   3.102  46.757  1.00  0.00     0.187 C 
HETATM   30  C22 UNL     1      32.508   4.042  47.811  1.00  0.00     0.143 C 
ENDBRANCH  24  25
ENDBRANCH  23  24
ENDBRANCH  14  23
TORSDOF 4
ENDMDL
