MODEL 1
REMARK VINA RESULT:      -7.8      0.000      0.000
REMARK  10 active torsions:
REMARK  status: ('A' for Active; 'I' for Inactive)
REMARK    1  A    between atoms: C2_2  and  C3_3 
REMARK    2  A    between atoms: C3_3  and  C4_4 
REMARK    3  A    between atoms: C4_4  and  C5_5 
REMARK    4  A    between atoms: C5_5  and  C6_7 
REMARK    5  A    between atoms: C6_7  and  C7_8 
REMARK    6  A    between atoms: C11_15  and  N4_16 
REMARK    7  A    between atoms: N4_16  and  C12_17 
REMARK    8  A    between atoms: C17_22  and  C18_23 
REMARK    9  A    between atoms: C18_23  and  C19_24 
REMARK   10  A    between atoms: C19_24  and  C20_25 
ROOT
HETATM    1  C7  UNL     1      26.422   1.971  52.341  1.00  0.00     0.296 C 
HETATM    2  N1  UNL     1      27.707   2.571  52.533  1.00  0.00     0.115 N 
HETATM    3  C8  UNL     1      28.224   2.459  53.884  1.00  0.00     0.420 C 
HETATM    4  N2  UNL     1      29.094   1.272  53.851  1.00  0.00    -0.245 NA
HETATM    5  C9  UNL     1      28.651   0.090  53.495  1.00  0.00     0.120 C 
HETATM    6  C10 UNL     1      29.685  -1.002  53.521  1.00  0.00     0.093 C 
HETATM    7  N3  UNL     1      27.338  -0.284  53.096  1.00  0.00    -0.219 NA
HETATM    8  C11 UNL     1      26.424   0.528  52.615  1.00  0.00     0.140 C 
HETATM    9  H8  UNL     1      27.681   3.583  52.319  1.00  0.00     0.319 HD
ENDROOT
BRANCH   8  10
HETATM   10  N4  UNL     1      25.229  -0.193  52.335  1.00  0.00    -0.342 N 
HETATM   11  H14 UNL     1      25.179  -0.667  51.399  1.00  0.00     0.167 HD
BRANCH  10  12
HETATM   12  C12 UNL     1      24.118  -0.321  53.206  1.00  0.00     0.039 A 
HETATM   13  C13 UNL     1      24.106  -0.988  54.407  1.00  0.00     0.030 A 
HETATM   14  C14 UNL     1      23.032  -1.094  55.262  1.00  0.00     0.002 A 
HETATM   15  C15 UNL     1      21.848  -0.486  54.907  1.00  0.00     0.001 A 
HETATM   16  C16 UNL     1      21.808   0.195  53.711  1.00  0.00     0.009 A 
HETATM   17  C17 UNL     1      22.915   0.272  52.887  1.00  0.00    -0.031 A 
BRANCH  17  18
HETATM   18  C18 UNL     1      22.680   1.020  51.630  1.00  0.00     0.041 C 
BRANCH  18  19
HETATM   19  C19 UNL     1      21.451   0.451  50.970  1.00  0.00     0.004 C 
BRANCH  19  20
HETATM   20  C20 UNL     1      21.247   0.964  49.561  1.00  0.00    -0.004 C 
HETATM   21  C21 UNL     1      22.355   1.996  49.328  1.00  0.00     0.005 C 
ENDBRANCH  19  20
ENDBRANCH  18  19
ENDBRANCH  17  18
ENDBRANCH  10  12
ENDBRANCH   8  10
BRANCH   1  22
HETATM   22  C6  UNL     1      26.066   2.199  50.873  1.00  0.00     0.095 C 
BRANCH  22  23
HETATM   23  C5  UNL     1      25.479   3.550  50.691  1.00  0.00     0.015 C 
HETATM   24 CL1  UNL     1      24.234   4.182  51.735  1.00  0.00    -0.089 Cl
BRANCH  23  25
HETATM   25  C4  UNL     1      25.784   4.443  49.764  1.00  0.00     0.027 C 
BRANCH  25  26
HETATM   26  C3  UNL     1      27.045   4.202  49.098  1.00  0.00     0.052 C 
BRANCH  26  27
HETATM   27  C2  UNL     1      27.709   5.202  48.578  1.00  0.00    -0.155 C 
HETATM   28  C1  UNL     1      28.589   6.091  48.146  1.00  0.00     0.096 C 
ENDBRANCH  26  27
ENDBRANCH  25  26
ENDBRANCH  23  25
ENDBRANCH  22  23
ENDBRANCH   1  22
TORSDOF 10
ENDMDL
MODEL 2
REMARK VINA RESULT:      -7.6      1.320      2.058
REMARK  10 active torsions:
REMARK  status: ('A' for Active; 'I' for Inactive)
REMARK    1  A    between atoms: C2_2  and  C3_3 
REMARK    2  A    between atoms: C3_3  and  C4_4 
REMARK    3  A    between atoms: C4_4  and  C5_5 
REMARK    4  A    between atoms: C5_5  and  C6_7 
REMARK    5  A    between atoms: C6_7  and  C7_8 
REMARK    6  A    between atoms: C11_15  and  N4_16 
REMARK    7  A    between atoms: N4_16  and  C12_17 
REMARK    8  A    between atoms: C17_22  and  C18_23 
REMARK    9  A    between atoms: C18_23  and  C19_24 
REMARK   10  A    between atoms: C19_24  and  C20_25 
ROOT
HETATM    1  C7  UNL     1      26.664   2.123  52.363  1.00  0.00     0.296 C 
HETATM    2  N1  UNL     1      27.993   2.600  52.595  1.00  0.00     0.115 N 
HETATM    3  C8  UNL     1      28.469   2.407  53.952  1.00  0.00     0.420 C 
HETATM    4  N2  UNL     1      29.231   1.148  53.901  1.00  0.00    -0.245 NA
HETATM    5  C9  UNL     1      28.692   0.020  53.504  1.00  0.00     0.120 C 
HETATM    6  C10 UNL     1      29.624  -1.159  53.518  1.00  0.00     0.093 C 
HETATM    7  N3  UNL     1      27.360  -0.224  53.070  1.00  0.00    -0.219 NA
HETATM    8  C11 UNL     1      26.532   0.678  52.596  1.00  0.00     0.140 C 
HETATM    9  H8  UNL     1      28.061   3.616  52.410  1.00  0.00     0.319 HD
ENDROOT
BRANCH   8  10
HETATM   10  N4  UNL     1      25.284   0.075  52.273  1.00  0.00    -0.342 N 
HETATM   11  H14 UNL     1      25.125  -0.157  51.261  1.00  0.00     0.167 HD
BRANCH  10  12
HETATM   12  C12 UNL     1      24.253  -0.236  53.195  1.00  0.00     0.039 A 
HETATM   13  C13 UNL     1      24.414  -0.877  54.400  1.00  0.00     0.030 A 
HETATM   14  C14 UNL     1      23.415  -1.159  55.305  1.00  0.00     0.002 A 
HETATM   15  C15 UNL     1      22.127  -0.776  55.001  1.00  0.00     0.001 A 
HETATM   16  C16 UNL     1      21.913  -0.130  53.804  1.00  0.00     0.009 A 
HETATM   17  C17 UNL     1      22.951   0.130  52.929  1.00  0.00    -0.031 A 
BRANCH  17  18
HETATM   18  C18 UNL     1      22.531   0.806  51.680  1.00  0.00     0.041 C 
BRANCH  18  19
HETATM   19  C19 UNL     1      21.171   0.282  51.299  1.00  0.00     0.004 C 
BRANCH  19  20
HETATM   20  C20 UNL     1      20.251   1.360  50.766  1.00  0.00    -0.004 C 
HETATM   21  C21 UNL     1      20.597   2.630  51.551  1.00  0.00     0.005 C 
ENDBRANCH  19  20
ENDBRANCH  18  19
ENDBRANCH  17  18
ENDBRANCH  10  12
ENDBRANCH   8  10
BRANCH   1  22
HETATM   22  C6  UNL     1      26.360   2.421  50.895  1.00  0.00     0.095 C 
BRANCH  22  23
HETATM   23  C5  UNL     1      25.210   3.353  50.787  1.00  0.00     0.015 C 
HETATM   24 CL1  UNL     1      24.186   3.742  52.144  1.00  0.00    -0.089 Cl
BRANCH  23  25
HETATM   25  C4  UNL     1      24.797   4.002  49.712  1.00  0.00     0.027 C 
BRANCH  25  26
HETATM   26  C3  UNL     1      23.396   3.815  49.405  1.00  0.00     0.052 C 
BRANCH  26  27
HETATM   27  C2  UNL     1      23.027   2.847  48.607  1.00  0.00    -0.155 C 
HETATM   28  C1  UNL     1      22.425   1.992  47.795  1.00  0.00     0.096 C 
ENDBRANCH  26  27
ENDBRANCH  25  26
ENDBRANCH  23  25
ENDBRANCH  22  23
ENDBRANCH   1  22
TORSDOF 10
ENDMDL
MODEL 3
REMARK VINA RESULT:      -7.5      2.131      5.101
REMARK  10 active torsions:
REMARK  status: ('A' for Active; 'I' for Inactive)
REMARK    1  A    between atoms: C2_2  and  C3_3 
REMARK    2  A    between atoms: C3_3  and  C4_4 
REMARK    3  A    between atoms: C4_4  and  C5_5 
REMARK    4  A    between atoms: C5_5  and  C6_7 
REMARK    5  A    between atoms: C6_7  and  C7_8 
REMARK    6  A    between atoms: C11_15  and  N4_16 
REMARK    7  A    between atoms: N4_16  and  C12_17 
REMARK    8  A    between atoms: C17_22  and  C18_23 
REMARK    9  A    between atoms: C18_23  and  C19_24 
REMARK   10  A    between atoms: C19_24  and  C20_25 
ROOT
HETATM    1  C7  UNL     1      25.445  -0.473  53.144  1.00  0.00     0.296 C 
HETATM    2  N1  UNL     1      25.956  -1.780  53.420  1.00  0.00     0.115 N 
HETATM    3  C8  UNL     1      26.923  -2.261  52.451  1.00  0.00     0.420 C 
HETATM    4  N2  UNL     1      28.232  -1.931  53.038  1.00  0.00    -0.245 NA
HETATM    5  C9  UNL     1      28.566  -0.703  53.357  1.00  0.00     0.120 C 
HETATM    6  C10 UNL     1      29.941  -0.560  53.946  1.00  0.00     0.093 C 
HETATM    7  N3  UNL     1      27.804   0.489  53.218  1.00  0.00    -0.219 NA
HETATM    8  C11 UNL     1      26.494   0.555  53.131  1.00  0.00     0.140 C 
HETATM    9  H8  UNL     1      25.195  -2.482  53.438  1.00  0.00     0.319 HD
ENDROOT
BRANCH   8  10
HETATM   10  N4  UNL     1      26.081   1.910  52.992  1.00  0.00    -0.342 N 
HETATM   11  H14 UNL     1      26.015   2.472  53.877  1.00  0.00     0.167 HD
BRANCH  10  12
HETATM   12  C12 UNL     1      25.758   2.553  51.771  1.00  0.00     0.039 A 
HETATM   13  C13 UNL     1      26.580   2.666  50.675  1.00  0.00     0.030 A 
HETATM   14  C14 UNL     1      26.256   3.273  49.482  1.00  0.00     0.002 A 
HETATM   15  C15 UNL     1      25.002   3.827  49.345  1.00  0.00     0.001 A 
HETATM   16  C16 UNL     1      24.141   3.741  50.416  1.00  0.00     0.009 A 
HETATM   17  C17 UNL     1      24.514   3.121  51.594  1.00  0.00    -0.031 A 
BRANCH  17  18
HETATM   18  C18 UNL     1      23.471   3.148  52.646  1.00  0.00     0.041 C 
BRANCH  18  19
HETATM   19  C19 UNL     1      22.480   4.227  52.294  1.00  0.00     0.004 C 
BRANCH  19  20
HETATM   20  C20 UNL     1      21.045   3.749  52.342  1.00  0.00    -0.004 C 
HETATM   21  C21 UNL     1      20.379   4.300  51.077  1.00  0.00     0.005 C 
ENDBRANCH  19  20
ENDBRANCH  18  19
ENDBRANCH  17  18
ENDBRANCH  10  12
ENDBRANCH   8  10
BRANCH   1  22
HETATM   22  C6  UNL     1      24.456  -0.162  54.267  1.00  0.00     0.095 C 
BRANCH  22  23
HETATM   23  C5  UNL     1      23.088  -0.587  53.879  1.00  0.00     0.015 C 
HETATM   24 CL1  UNL     1      21.801  -0.784  55.039  1.00  0.00    -0.089 Cl
BRANCH  23  25
HETATM   25  C4  UNL     1      22.645  -0.868  52.665  1.00  0.00     0.027 C 
BRANCH  25  26
HETATM   26  C3  UNL     1      21.645   0.052  52.168  1.00  0.00     0.052 C 
BRANCH  26  27
HETATM   27  C2  UNL     1      21.688   0.450  50.924  1.00  0.00    -0.155 C 
HETATM   28  C1  UNL     1      21.504   0.970  49.720  1.00  0.00     0.096 C 
ENDBRANCH  26  27
ENDBRANCH  25  26
ENDBRANCH  23  25
ENDBRANCH  22  23
ENDBRANCH   1  22
TORSDOF 10
ENDMDL
MODEL 4
REMARK VINA RESULT:      -7.3      2.503      6.166
REMARK  10 active torsions:
REMARK  status: ('A' for Active; 'I' for Inactive)
REMARK    1  A    between atoms: C2_2  and  C3_3 
REMARK    2  A    between atoms: C3_3  and  C4_4 
REMARK    3  A    between atoms: C4_4  and  C5_5 
REMARK    4  A    between atoms: C5_5  and  C6_7 
REMARK    5  A    between atoms: C6_7  and  C7_8 
REMARK    6  A    between atoms: C11_15  and  N4_16 
REMARK    7  A    between atoms: N4_16  and  C12_17 
REMARK    8  A    between atoms: C17_22  and  C18_23 
REMARK    9  A    between atoms: C18_23  and  C19_24 
REMARK   10  A    between atoms: C19_24  and  C20_25 
ROOT
HETATM    1  C7  UNL     1      22.912   3.247  50.567  1.00  0.00     0.296 C 
HETATM    2  N1  UNL     1      22.840   3.840  49.267  1.00  0.00     0.115 N 
HETATM    3  C8  UNL     1      23.234   5.236  49.225  1.00  0.00     0.420 C 
HETATM    4  N2  UNL     1      24.651   5.210  48.827  1.00  0.00    -0.245 NA
HETATM    5  C9  UNL     1      25.559   4.561  49.518  1.00  0.00     0.120 C 
HETATM    6  C10 UNL     1      26.951   4.647  48.958  1.00  0.00     0.093 C 
HETATM    7  N3  UNL     1      25.395   3.802  50.708  1.00  0.00    -0.219 NA
HETATM    8  C11 UNL     1      24.271   3.262  51.123  1.00  0.00     0.140 C 
HETATM    9  H8  UNL     1      21.876   3.802  48.893  1.00  0.00     0.319 HD
ENDROOT
BRANCH   8  10
HETATM   10  N4  UNL     1      24.481   2.585  52.357  1.00  0.00    -0.342 N 
HETATM   11  H14 UNL     1      24.067   3.033  53.212  1.00  0.00     0.167 HD
BRANCH  10  12
HETATM   12  C12 UNL     1      25.192   1.370  52.523  1.00  0.00     0.039 A 
HETATM   13  C13 UNL     1      26.471   1.116  52.086  1.00  0.00     0.030 A 
HETATM   14  C14 UNL     1      27.168  -0.057  52.266  1.00  0.00     0.002 A 
HETATM   15  C15 UNL     1      26.554  -1.089  52.942  1.00  0.00     0.001 A 
HETATM   16  C16 UNL     1      25.271  -0.885  53.399  1.00  0.00     0.009 A 
HETATM   17  C17 UNL     1      24.613   0.313  53.193  1.00  0.00    -0.031 A 
BRANCH  17  18
HETATM   18  C18 UNL     1      23.233   0.343  53.728  1.00  0.00     0.041 C 
BRANCH  18  19
HETATM   19  C19 UNL     1      22.551  -0.942  53.336  1.00  0.00     0.004 C 
BRANCH  19  20
HETATM   20  C20 UNL     1      21.356  -1.267  54.207  1.00  0.00    -0.004 C 
HETATM   21  C21 UNL     1      20.895   0.070  54.797  1.00  0.00     0.005 C 
ENDBRANCH  19  20
ENDBRANCH  18  19
ENDBRANCH  17  18
ENDBRANCH  10  12
ENDBRANCH   8  10
BRANCH   1  22
HETATM   22  C6  UNL     1      22.461   1.797  50.394  1.00  0.00     0.095 C 
BRANCH  22  23
HETATM   23  C5  UNL     1      21.147   1.586  51.050  1.00  0.00     0.015 C 
HETATM   24 CL1  UNL     1      20.522   2.663  52.271  1.00  0.00    -0.089 Cl
BRANCH  23  25
HETATM   25  C4  UNL     1      20.285   0.607  50.832  1.00  0.00     0.027 C 
BRANCH  25  26
HETATM   26  C3  UNL     1      19.045   0.730  51.567  1.00  0.00     0.052 C 
BRANCH  26  27
HETATM   27  C2  UNL     1      18.477  -0.335  52.069  1.00  0.00    -0.155 C 
HETATM   28  C1  UNL     1      17.797  -1.247  52.747  1.00  0.00     0.096 C 
ENDBRANCH  26  27
ENDBRANCH  25  26
ENDBRANCH  23  25
ENDBRANCH  22  23
ENDBRANCH   1  22
TORSDOF 10
ENDMDL
MODEL 5
REMARK VINA RESULT:      -7.0      2.177      5.405
REMARK  10 active torsions:
REMARK  status: ('A' for Active; 'I' for Inactive)
REMARK    1  A    between atoms: C2_2  and  C3_3 
REMARK    2  A    between atoms: C3_3  and  C4_4 
REMARK    3  A    between atoms: C4_4  and  C5_5 
REMARK    4  A    between atoms: C5_5  and  C6_7 
REMARK    5  A    between atoms: C6_7  and  C7_8 
REMARK    6  A    between atoms: C11_15  and  N4_16 
REMARK    7  A    between atoms: N4_16  and  C12_17 
REMARK    8  A    between atoms: C17_22  and  C18_23 
REMARK    9  A    between atoms: C18_23  and  C19_24 
REMARK   10  A    between atoms: C19_24  and  C20_25 
ROOT
HETATM    1  C7  UNL     1      25.324   2.479  51.865  1.00  0.00     0.296 C 
HETATM    2  N1  UNL     1      26.525   2.995  51.283  1.00  0.00     0.115 N 
HETATM    3  C8  UNL     1      26.423   3.296  49.868  1.00  0.00     0.420 C 
HETATM    4  N2  UNL     1      26.114   4.735  49.815  1.00  0.00    -0.245 NA
HETATM    5  C9  UNL     1      25.060   5.244  50.408  1.00  0.00     0.120 C 
HETATM    6  C10 UNL     1      24.909   6.732  50.247  1.00  0.00     0.093 C 
HETATM    7  N3  UNL     1      24.060   4.580  51.170  1.00  0.00    -0.219 NA
HETATM    8  C11 UNL     1      24.200   3.420  51.770  1.00  0.00     0.140 C 
HETATM    9  H8  UNL     1      27.304   2.319  51.377  1.00  0.00     0.319 HD
ENDROOT
BRANCH   8  10
HETATM   10  N4  UNL     1      22.990   3.061  52.428  1.00  0.00    -0.342 N 
HETATM   11  H14 UNL     1      22.877   3.402  53.415  1.00  0.00     0.167 HD
BRANCH  10  12
HETATM   12  C12 UNL     1      21.939   2.294  51.865  1.00  0.00     0.039 A 
HETATM   13  C13 UNL     1      21.087   2.701  50.867  1.00  0.00     0.030 A 
HETATM   14  C14 UNL     1      20.081   1.946  50.307  1.00  0.00     0.002 A 
HETATM   15  C15 UNL     1      19.886   0.663  50.769  1.00  0.00     0.001 A 
HETATM   16  C16 UNL     1      20.714   0.208  51.771  1.00  0.00     0.009 A 
HETATM   17  C17 UNL     1      21.711   1.005  52.301  1.00  0.00    -0.031 A 
BRANCH  17  18
HETATM   18  C18 UNL     1      22.485   0.361  53.387  1.00  0.00     0.041 C 
BRANCH  18  19
HETATM   19  C19 UNL     1      21.536  -0.478  54.202  1.00  0.00     0.004 C 
BRANCH  19  20
HETATM   20  C20 UNL     1      22.241  -1.529  55.033  1.00  0.00    -0.004 C 
HETATM   21  C21 UNL     1      23.703  -1.078  55.122  1.00  0.00     0.005 C 
ENDBRANCH  19  20
ENDBRANCH  18  19
ENDBRANCH  17  18
ENDBRANCH  10  12
ENDBRANCH   8  10
BRANCH   1  22
HETATM   22  C6  UNL     1      25.643   2.231  53.338  1.00  0.00     0.095 C 
BRANCH  22  23
HETATM   23  C5  UNL     1      26.360   0.941  53.499  1.00  0.00     0.015 C 
HETATM   24 CL1  UNL     1      26.152  -0.393  52.395  1.00  0.00    -0.089 Cl
BRANCH  23  25
HETATM   25  C4  UNL     1      27.221   0.610  54.446  1.00  0.00     0.027 C 
BRANCH  25  26
HETATM   26  C3  UNL     1      28.605   0.861  54.106  1.00  0.00     0.052 C 
BRANCH  26  27
HETATM   27  C2  UNL     1      29.393  -0.138  53.804  1.00  0.00    -0.155 C 
HETATM   28  C1  UNL     1      30.045  -1.282  53.668  1.00  0.00     0.096 C 
ENDBRANCH  26  27
ENDBRANCH  25  26
ENDBRANCH  23  25
ENDBRANCH  22  23
ENDBRANCH   1  22
TORSDOF 10
ENDMDL
MODEL 6
REMARK VINA RESULT:      -6.9      2.629      5.306
REMARK  10 active torsions:
REMARK  status: ('A' for Active; 'I' for Inactive)
REMARK    1  A    between atoms: C2_2  and  C3_3 
REMARK    2  A    between atoms: C3_3  and  C4_4 
REMARK    3  A    between atoms: C4_4  and  C5_5 
REMARK    4  A    between atoms: C5_5  and  C6_7 
REMARK    5  A    between atoms: C6_7  and  C7_8 
REMARK    6  A    between atoms: C11_15  and  N4_16 
REMARK    7  A    between atoms: N4_16  and  C12_17 
REMARK    8  A    between atoms: C17_22  and  C18_23 
REMARK    9  A    between atoms: C18_23  and  C19_24 
REMARK   10  A    between atoms: C19_24  and  C20_25 
ROOT
HETATM    1  C7  UNL     1      23.209   2.582  50.070  1.00  0.00     0.296 C 
HETATM    2  N1  UNL     1      22.884   2.816  48.696  1.00  0.00     0.115 N 
HETATM    3  C8  UNL     1      22.179   1.723  48.054  1.00  0.00     0.420 C 
HETATM    4  N2  UNL     1      20.756   2.086  48.161  1.00  0.00    -0.245 NA
HETATM    5  C9  UNL     1      20.177   2.308  49.317  1.00  0.00     0.120 C 
HETATM    6  C10 UNL     1      18.720   2.667  49.229  1.00  0.00     0.093 C 
HETATM    7  N3  UNL     1      20.743   2.252  50.620  1.00  0.00    -0.219 NA
HETATM    8  C11 UNL     1      22.020   2.370  50.905  1.00  0.00     0.140 C 
HETATM    9  H8  UNL     1      23.738   2.977  48.134  1.00  0.00     0.319 HD
ENDROOT
BRANCH   8  10
HETATM   10  N4  UNL     1      22.220   2.253  52.309  1.00  0.00    -0.342 N 
HETATM   11  H14 UNL     1      22.475   3.134  52.820  1.00  0.00     0.167 HD
BRANCH  10  12
HETATM   12  C12 UNL     1      22.101   1.059  53.064  1.00  0.00     0.039 A 
HETATM   13  C13 UNL     1      20.942   0.557  53.607  1.00  0.00     0.030 A 
HETATM   14  C14 UNL     1      20.825  -0.613  54.321  1.00  0.00     0.002 A 
HETATM   15  C15 UNL     1      21.956  -1.373  54.528  1.00  0.00     0.001 A 
HETATM   16  C16 UNL     1      23.144  -0.913  54.005  1.00  0.00     0.009 A 
HETATM   17  C17 UNL     1      23.209   0.271  53.294  1.00  0.00    -0.031 A 
BRANCH  17  18
HETATM   18  C18 UNL     1      24.572   0.622  52.832  1.00  0.00     0.041 C 
BRANCH  18  19
HETATM   19  C19 UNL     1      25.491  -0.521  53.176  1.00  0.00     0.004 C 
BRANCH  19  20
HETATM   20  C20 UNL     1      26.734  -0.559  52.313  1.00  0.00    -0.004 C 
HETATM   21  C21 UNL     1      27.798   0.234  53.078  1.00  0.00     0.005 C 
ENDBRANCH  19  20
ENDBRANCH  18  19
ENDBRANCH  17  18
ENDBRANCH  10  12
ENDBRANCH   8  10
BRANCH   1  22
HETATM   22  C6  UNL     1      23.939   3.835  50.550  1.00  0.00     0.095 C 
BRANCH  22  23
HETATM   23  C5  UNL     1      25.328   3.853  50.027  1.00  0.00     0.015 C 
HETATM   24 CL1  UNL     1      26.513   2.652  50.467  1.00  0.00    -0.089 Cl
BRANCH  23  25
HETATM   25  C4  UNL     1      25.864   4.728  49.192  1.00  0.00     0.027 C 
BRANCH  25  26
HETATM   26  C3  UNL     1      27.273   4.523  48.938  1.00  0.00     0.052 C 
BRANCH  26  27
HETATM   27  C2  UNL     1      28.006   5.512  48.497  1.00  0.00    -0.155 C 
HETATM   28  C1  UNL     1      28.804   6.350  47.855  1.00  0.00     0.096 C 
ENDBRANCH  26  27
ENDBRANCH  25  26
ENDBRANCH  23  25
ENDBRANCH  22  23
ENDBRANCH   1  22
TORSDOF 10
ENDMDL
MODEL 7
REMARK VINA RESULT:      -6.9      2.389      5.105
REMARK  10 active torsions:
REMARK  status: ('A' for Active; 'I' for Inactive)
REMARK    1  A    between atoms: C2_2  and  C3_3 
REMARK    2  A    between atoms: C3_3  and  C4_4 
REMARK    3  A    between atoms: C4_4  and  C5_5 
REMARK    4  A    between atoms: C5_5  and  C6_7 
REMARK    5  A    between atoms: C6_7  and  C7_8 
REMARK    6  A    between atoms: C11_15  and  N4_16 
REMARK    7  A    between atoms: N4_16  and  C12_17 
REMARK    8  A    between atoms: C17_22  and  C18_23 
REMARK    9  A    between atoms: C18_23  and  C19_24 
REMARK   10  A    between atoms: C19_24  and  C20_25 
ROOT
HETATM    1  C7  UNL     1      23.683   2.920  49.456  1.00  0.00     0.296 C 
HETATM    2  N1  UNL     1      22.811   3.056  48.330  1.00  0.00     0.115 N 
HETATM    3  C8  UNL     1      22.295   1.801  47.818  1.00  0.00     0.420 C 
HETATM    4  N2  UNL     1      20.980   1.650  48.462  1.00  0.00    -0.245 NA
HETATM    5  C9  UNL     1      20.838   1.636  49.766  1.00  0.00     0.120 C 
HETATM    6  C10 UNL     1      19.421   1.475  50.241  1.00  0.00     0.093 C 
HETATM    7  N3  UNL     1      21.838   1.751  50.770  1.00  0.00    -0.219 NA
HETATM    8  C11 UNL     1      23.023   2.295  50.611  1.00  0.00     0.140 C 
HETATM    9  H8  UNL     1      23.296   3.512  47.537  1.00  0.00     0.319 HD
ENDROOT
BRANCH   8  10
HETATM   10  N4  UNL     1      23.761   2.225  51.826  1.00  0.00    -0.342 N 
HETATM   11  H14 UNL     1      23.627   3.020  52.500  1.00  0.00     0.167 HD
BRANCH  10  12
HETATM   12  C12 UNL     1      24.647   1.183  52.197  1.00  0.00     0.039 A 
HETATM   13  C13 UNL     1      25.931   1.013  51.737  1.00  0.00     0.030 A 
HETATM   14  C14 UNL     1      26.798   0.012  52.114  1.00  0.00     0.002 A 
HETATM   15  C15 UNL     1      26.366  -0.919  53.033  1.00  0.00     0.001 A 
HETATM   16  C16 UNL     1      25.086  -0.794  53.524  1.00  0.00     0.009 A 
HETATM   17  C17 UNL     1      24.254   0.230  53.113  1.00  0.00    -0.031 A 
BRANCH  17  18
HETATM   18  C18 UNL     1      22.905   0.193  53.724  1.00  0.00     0.041 C 
BRANCH  18  19
HETATM   19  C19 UNL     1      22.265  -1.123  53.363  1.00  0.00     0.004 C 
BRANCH  19  20
HETATM   20  C20 UNL     1      20.979  -1.381  54.118  1.00  0.00    -0.004 C 
HETATM   21  C21 UNL     1      19.942  -0.428  53.515  1.00  0.00     0.005 C 
ENDBRANCH  19  20
ENDBRANCH  18  19
ENDBRANCH  17  18
ENDBRANCH  10  12
ENDBRANCH   8  10
BRANCH   1  22
HETATM   22  C6  UNL     1      24.110   4.338  49.833  1.00  0.00     0.095 C 
BRANCH  22  23
HETATM   23  C5  UNL     1      25.515   4.578  49.420  1.00  0.00     0.015 C 
HETATM   24 CL1  UNL     1      26.717   3.315  49.399  1.00  0.00    -0.089 Cl
BRANCH  23  25
HETATM   25  C4  UNL     1      26.055   5.719  49.024  1.00  0.00     0.027 C 
BRANCH  25  26
HETATM   26  C3  UNL     1      27.430   5.608  48.590  1.00  0.00     0.052 C 
BRANCH  26  27
HETATM   27  C2  UNL     1      27.978   6.578  47.906  1.00  0.00    -0.155 C 
HETATM   28  C1  UNL     1      28.513   7.694  47.435  1.00  0.00     0.096 C 
ENDBRANCH  26  27
ENDBRANCH  25  26
ENDBRANCH  23  25
ENDBRANCH  22  23
ENDBRANCH   1  22
TORSDOF 10
ENDMDL
MODEL 8
REMARK VINA RESULT:      -6.7      2.748      5.558
REMARK  10 active torsions:
REMARK  status: ('A' for Active; 'I' for Inactive)
REMARK    1  A    between atoms: C2_2  and  C3_3 
REMARK    2  A    between atoms: C3_3  and  C4_4 
REMARK    3  A    between atoms: C4_4  and  C5_5 
REMARK    4  A    between atoms: C5_5  and  C6_7 
REMARK    5  A    between atoms: C6_7  and  C7_8 
REMARK    6  A    between atoms: C11_15  and  N4_16 
REMARK    7  A    between atoms: N4_16  and  C12_17 
REMARK    8  A    between atoms: C17_22  and  C18_23 
REMARK    9  A    between atoms: C18_23  and  C19_24 
REMARK   10  A    between atoms: C19_24  and  C20_25 
ROOT
HETATM    1  C7  UNL     1      23.631   2.622  50.193  1.00  0.00     0.296 C 
HETATM    2  N1  UNL     1      23.369   3.022  48.844  1.00  0.00     0.115 N 
HETATM    3  C8  UNL     1      22.481   2.133  48.119  1.00  0.00     0.420 C 
HETATM    4  N2  UNL     1      21.149   2.742  48.260  1.00  0.00    -0.245 NA
HETATM    5  C9  UNL     1      20.608   2.975  49.433  1.00  0.00     0.120 C 
HETATM    6  C10 UNL     1      19.243   3.604  49.380  1.00  0.00     0.093 C 
HETATM    7  N3  UNL     1      21.140   2.712  50.725  1.00  0.00    -0.219 NA
HETATM    8  C11 UNL     1      22.413   2.569  51.014  1.00  0.00     0.140 C 
HETATM    9  H8  UNL     1      24.244   3.066  48.292  1.00  0.00     0.319 HD
ENDROOT
BRANCH   8  10
HETATM   10  N4  UNL     1      22.573   2.305  52.403  1.00  0.00    -0.342 N 
HETATM   11  H14 UNL     1      22.991   3.077  52.980  1.00  0.00     0.167 HD
BRANCH  10  12
HETATM   12  C12 UNL     1      22.216   1.102  53.063  1.00  0.00     0.039 A 
HETATM   13  C13 UNL     1      20.960   0.768  53.510  1.00  0.00     0.030 A 
HETATM   14  C14 UNL     1      20.611  -0.410  54.131  1.00  0.00     0.002 A 
HETATM   15  C15 UNL     1      21.588  -1.359  54.337  1.00  0.00     0.001 A 
HETATM   16  C16 UNL     1      22.864  -1.072  53.907  1.00  0.00     0.009 A 
HETATM   17  C17 UNL     1      23.164   0.127  53.288  1.00  0.00    -0.031 A 
BRANCH  17  18
HETATM   18  C18 UNL     1      24.591   0.274  52.919  1.00  0.00     0.041 C 
BRANCH  18  19
HETATM   19  C19 UNL     1      25.340  -0.915  53.463  1.00  0.00     0.004 C 
BRANCH  19  20
HETATM   20  C20 UNL     1      26.388  -1.441  52.507  1.00  0.00    -0.004 C 
HETATM   21  C21 UNL     1      27.740  -1.077  53.129  1.00  0.00     0.005 C 
ENDBRANCH  19  20
ENDBRANCH  18  19
ENDBRANCH  17  18
ENDBRANCH  10  12
ENDBRANCH   8  10
BRANCH   1  22
HETATM   22  C6  UNL     1      24.574   3.677  50.769  1.00  0.00     0.095 C 
BRANCH  22  23
HETATM   23  C5  UNL     1      25.984   3.328  50.463  1.00  0.00     0.015 C 
HETATM   24 CL1  UNL     1      26.878   4.078  49.167  1.00  0.00    -0.089 Cl
BRANCH  23  25
HETATM   25  C4  UNL     1      26.748   2.445  51.083  1.00  0.00     0.027 C 
BRANCH  25  26
HETATM   26  C3  UNL     1      26.659   2.491  52.526  1.00  0.00     0.052 C 
BRANCH  26  27
HETATM   27  C2  UNL     1      27.748   2.423  53.248  1.00  0.00    -0.155 C 
HETATM   28  C1  UNL     1      28.971   2.403  53.755  1.00  0.00     0.096 C 
ENDBRANCH  26  27
ENDBRANCH  25  26
ENDBRANCH  23  25
ENDBRANCH  22  23
ENDBRANCH   1  22
TORSDOF 10
ENDMDL
MODEL 9
REMARK VINA RESULT:      -6.6      2.924      6.677
REMARK  10 active torsions:
REMARK  status: ('A' for Active; 'I' for Inactive)
REMARK    1  A    between atoms: C2_2  and  C3_3 
REMARK    2  A    between atoms: C3_3  and  C4_4 
REMARK    3  A    between atoms: C4_4  and  C5_5 
REMARK    4  A    between atoms: C5_5  and  C6_7 
REMARK    5  A    between atoms: C6_7  and  C7_8 
REMARK    6  A    between atoms: C11_15  and  N4_16 
REMARK    7  A    between atoms: N4_16  and  C12_17 
REMARK    8  A    between atoms: C17_22  and  C18_23 
REMARK    9  A    between atoms: C18_23  and  C19_24 
REMARK   10  A    between atoms: C19_24  and  C20_25 
ROOT
HETATM    1  C7  UNL     1      21.384   2.748  51.273  1.00  0.00     0.296 C 
HETATM    2  N1  UNL     1      21.287   4.127  50.902  1.00  0.00     0.115 N 
HETATM    3  C8  UNL     1      22.002   5.033  51.781  1.00  0.00     0.420 C 
HETATM    4  N2  UNL     1      23.303   5.239  51.122  1.00  0.00    -0.245 NA
HETATM    5  C9  UNL     1      24.107   4.242  50.839  1.00  0.00     0.120 C 
HETATM    6  C10 UNL     1      25.390   4.644  50.166  1.00  0.00     0.093 C 
HETATM    7  N3  UNL     1      23.923   2.854  51.084  1.00  0.00    -0.219 NA
HETATM    8  C11 UNL     1      22.768   2.255  51.262  1.00  0.00     0.140 C 
HETATM    9  H8  UNL     1      20.301   4.444  50.904  1.00  0.00     0.319 HD
ENDROOT
BRANCH   8  10
HETATM   10  N4  UNL     1      22.968   0.865  51.492  1.00  0.00    -0.342 N 
HETATM   11  H14 UNL     1      23.268   0.293  50.664  1.00  0.00     0.167 HD
BRANCH  10  12
HETATM   12  C12 UNL     1      22.800   0.200  52.733  1.00  0.00     0.039 A 
HETATM   13  C13 UNL     1      21.600  -0.109  53.328  1.00  0.00     0.030 A 
HETATM   14  C14 UNL     1      21.438  -0.773  54.522  1.00  0.00     0.002 A 
HETATM   15  C15 UNL     1      22.563  -1.179  55.206  1.00  0.00     0.001 A 
HETATM   16  C16 UNL     1      23.790  -0.893  54.652  1.00  0.00     0.009 A 
HETATM   17  C17 UNL     1      23.900  -0.222  53.449  1.00  0.00    -0.031 A 
BRANCH  17  18
HETATM   18  C18 UNL     1      25.296   0.023  53.020  1.00  0.00     0.041 C 
BRANCH  18  19
HETATM   19  C19 UNL     1      26.075   0.503  54.217  1.00  0.00     0.004 C 
BRANCH  19  20
HETATM   20  C20 UNL     1      27.562   0.248  54.096  1.00  0.00    -0.004 C 
HETATM   21  C21 UNL     1      27.708  -0.893  53.083  1.00  0.00     0.005 C 
ENDBRANCH  19  20
ENDBRANCH  18  19
ENDBRANCH  17  18
ENDBRANCH  10  12
ENDBRANCH   8  10
BRANCH   1  22
HETATM   22  C6  UNL     1      20.571   1.975  50.235  1.00  0.00     0.095 C 
BRANCH  22  23
HETATM   23  C5  UNL     1      19.307   1.482  50.836  1.00  0.00     0.015 C 
HETATM   24 CL1  UNL     1      18.144   2.545  51.582  1.00  0.00    -0.089 Cl
BRANCH  23  25
HETATM   25  C4  UNL     1      18.879   0.233  50.900  1.00  0.00     0.027 C 
BRANCH  25  26
HETATM   26  C3  UNL     1      17.810   0.018  51.850  1.00  0.00     0.052 C 
BRANCH  26  27
HETATM   27  C2  UNL     1      17.918  -0.924  52.751  1.00  0.00    -0.155 C 
HETATM   28  C1  UNL     1      18.057  -2.035  53.458  1.00  0.00     0.096 C 
ENDBRANCH  26  27
ENDBRANCH  25  26
ENDBRANCH  23  25
ENDBRANCH  22  23
ENDBRANCH   1  22
TORSDOF 10
ENDMDL
