MODEL 1
REMARK VINA RESULT:     -10.2      0.000      0.000
REMARK  4 active torsions:
REMARK  status: ('A' for Active; 'I' for Inactive)
REMARK    1  A    between atoms: O1_1  and  C1_2 
REMARK    2  A    between atoms: C4_5  and  C5_6 
REMARK    3  A    between atoms: C5_6  and  C6_7 
REMARK    4  A    between atoms: C6_7  and  O2_8 
ROOT
HETATM    1  O2  UNL     1      25.447   2.497  51.026  1.00  0.00     0.000 OA
HETATM    2  C7  UNL     1      24.754   3.214  50.132  1.00  0.00     0.039 A 
HETATM    3  C8  UNL     1      24.110   2.441  51.031  1.00  0.00    -0.026 A 
HETATM    4  C9  UNL     1      23.566   1.758  51.796  1.00  0.00    -0.018 A 
HETATM    5  C10 UNL     1      23.013   1.028  52.594  1.00  0.00    -0.042 A 
HETATM    6  C11 UNL     1      22.414   2.244  52.939  1.00  0.00     0.148 A 
HETATM    7  N1  UNL     1      21.523   3.093  52.334  1.00  0.00    -0.373 N 
HETATM    8  C12 UNL     1      22.014   3.960  51.419  1.00  0.00     0.086 C 
HETATM    9  C13 UNL     1      22.300   4.126  50.075  1.00  0.00     0.014 C 
HETATM   10  C14 UNL     1      23.503   3.565  49.663  1.00  0.00    -0.008 C 
HETATM   11  C15 UNL     1      20.110   3.410  52.329  1.00  0.00     0.161 C 
HETATM   12  C16 UNL     1      19.388   2.567  51.316  1.00  0.00    -0.044 A 
HETATM   13  C17 UNL     1      18.080   2.461  51.182  1.00  0.00    -0.009 A 
HETATM   14  C18 UNL     1      17.731   1.548  50.092  1.00  0.00     0.035 A 
HETATM   15  C19 UNL     1      19.066   1.114  49.602  1.00  0.00    -0.017 A 
HETATM   16  C20 UNL     1      20.022   1.700  50.299  1.00  0.00     0.005 A 
HETATM   17  C21 UNL     1      17.036   0.281  50.542  1.00  0.00     0.039 C 
HETATM   18  C22 UNL     1      17.759  -0.306  51.736  1.00  0.00    -0.028 C 
HETATM   19  C23 UNL     1      18.444  -1.267  52.413  1.00  0.00    -0.001 C 
HETATM   20  C24 UNL     1      18.877  -0.996  53.833  1.00  0.00     0.296 C 
HETATM   21  N2  UNL     1      20.280  -1.085  54.048  1.00  0.00     0.087 N 
HETATM   22  C25 UNL     1      20.907  -0.031  53.280  1.00  0.00     0.274 C 
HETATM   23  C26 UNL     1      22.354   0.160  53.546  1.00  0.00     0.067 C 
HETATM   24  H24 UNL     1      20.670  -2.016  53.813  1.00  0.00     0.316 HD
ENDROOT
BRANCH   1  25
HETATM   25  C6  UNL     1      26.792   2.382  51.200  1.00  0.00     0.005 C 
BRANCH  25  26
HETATM   26  C5  UNL     1      27.190   1.933  52.564  1.00  0.00     0.038 C 
BRANCH  26  27
HETATM   27  C4  UNL     1      27.483   0.518  52.730  1.00  0.00    -0.058 A 
HETATM   28  C3  UNL     1      28.705   0.210  53.247  1.00  0.00     0.010 A 
HETATM   29  C2  UNL     1      29.114  -1.083  53.457  1.00  0.00     0.037 A 
HETATM   30  C1  UNL     1      28.336  -2.167  53.169  1.00  0.00     0.065 A 
HETATM   31  C28 UNL     1      27.083  -1.875  52.638  1.00  0.00     0.037 A 
HETATM   32  C27 UNL     1      26.649  -0.560  52.417  1.00  0.00     0.010 A 
BRANCH  30  33
HETATM   33  O1  UNL     1      28.668  -3.517  53.351  1.00  0.00    -0.361 OA
HETATM   34  H1  UNL     1      29.570  -3.782  53.761  1.00  0.00     0.217 HD
ENDBRANCH  30  33
ENDBRANCH  26  27
ENDBRANCH  25  26
ENDBRANCH   1  25
TORSDOF 4
ENDMDL
MODEL 2
REMARK VINA RESULT:     -10.1      2.691      5.171
REMARK  4 active torsions:
REMARK  status: ('A' for Active; 'I' for Inactive)
REMARK    1  A    between atoms: O1_1  and  C1_2 
REMARK    2  A    between atoms: C4_5  and  C5_6 
REMARK    3  A    between atoms: C5_6  and  C6_7 
REMARK    4  A    between atoms: C6_7  and  O2_8 
ROOT
HETATM    1  O2  UNL     1      22.586   0.066  53.272  1.00  0.00     0.000 OA
HETATM    2  C7  UNL     1      21.588  -0.159  52.408  1.00  0.00     0.039 A 
HETATM    3  C8  UNL     1      22.264   1.008  52.378  1.00  0.00    -0.026 A 
HETATM    4  C9  UNL     1      22.839   2.017  52.373  1.00  0.00    -0.018 A 
HETATM    5  C10 UNL     1      23.441   3.071  52.391  1.00  0.00    -0.042 A 
HETATM    6  C11 UNL     1      23.691   2.683  51.070  1.00  0.00     0.148 A 
HETATM    7  N1  UNL     1      22.932   2.557  49.935  1.00  0.00    -0.373 N 
HETATM    8  C12 UNL     1      22.208   1.424  49.794  1.00  0.00     0.086 C 
HETATM    9  C13 UNL     1      20.983   0.836  50.063  1.00  0.00     0.014 C 
HETATM   10  C14 UNL     1      20.847   0.338  51.353  1.00  0.00    -0.008 C 
HETATM   11  C15 UNL     1      22.600   3.285  48.727  1.00  0.00     0.161 C 
HETATM   12  C16 UNL     1      21.400   4.161  48.956  1.00  0.00    -0.044 A 
HETATM   13  C17 UNL     1      20.949   5.091  48.138  1.00  0.00    -0.009 A 
HETATM   14  C18 UNL     1      19.761   5.749  48.686  1.00  0.00     0.035 A 
HETATM   15  C19 UNL     1      19.589   5.056  49.991  1.00  0.00    -0.017 A 
HETATM   16  C20 UNL     1      20.525   4.139  50.149  1.00  0.00     0.005 A 
HETATM   17  C21 UNL     1      19.965   7.209  49.031  1.00  0.00     0.039 C 
HETATM   18  C22 UNL     1      21.268   7.383  49.782  1.00  0.00    -0.028 C 
HETATM   19  C23 UNL     1      22.042   7.742  50.843  1.00  0.00    -0.001 C 
HETATM   20  C24 UNL     1      23.535   7.550  50.758  1.00  0.00     0.296 C 
HETATM   21  N2  UNL     1      24.080   6.712  51.769  1.00  0.00     0.087 N 
HETATM   22  C25 UNL     1      23.542   5.383  51.571  1.00  0.00     0.274 C 
HETATM   23  C26 UNL     1      24.160   4.327  52.410  1.00  0.00     0.067 C 
HETATM   24  H24 UNL     1      23.900   7.061  52.728  1.00  0.00     0.316 HD
ENDROOT
BRANCH   1  25
HETATM   25  C6  UNL     1      23.076  -0.725  54.267  1.00  0.00     0.005 C 
BRANCH  25  26
HETATM   26  C5  UNL     1      24.514  -1.078  54.107  1.00  0.00     0.038 C 
BRANCH  26  27
HETATM   27  C4  UNL     1      25.411  -0.011  53.695  1.00  0.00    -0.058 A 
HETATM   28  C3  UNL     1      25.902  -0.088  52.426  1.00  0.00     0.010 A 
HETATM   29  C2  UNL     1      26.758   0.849  51.905  1.00  0.00     0.037 A 
HETATM   30  C1  UNL     1      27.190   1.936  52.609  1.00  0.00     0.065 A 
HETATM   31  C28 UNL     1      26.702   2.035  53.908  1.00  0.00     0.037 A 
HETATM   32  C27 UNL     1      25.826   1.087  54.457  1.00  0.00     0.010 A 
BRANCH  30  33
HETATM   33  O1  UNL     1      28.058   2.942  52.161  1.00  0.00    -0.361 OA
HETATM   34  H1  UNL     1      28.776   3.328  52.785  1.00  0.00     0.217 HD
ENDBRANCH  30  33
ENDBRANCH  26  27
ENDBRANCH  25  26
ENDBRANCH   1  25
TORSDOF 4
ENDMDL
MODEL 3
REMARK VINA RESULT:     -10.0      3.196      6.637
REMARK  4 active torsions:
REMARK  status: ('A' for Active; 'I' for Inactive)
REMARK    1  A    between atoms: O1_1  and  C1_2 
REMARK    2  A    between atoms: C4_5  and  C5_6 
REMARK    3  A    between atoms: C5_6  and  C6_7 
REMARK    4  A    between atoms: C6_7  and  O2_8 
ROOT
HETATM    1  O2  UNL     1      22.659   1.920  52.482  1.00  0.00     0.000 OA
HETATM    2  C7  UNL     1      21.633   2.761  52.295  1.00  0.00     0.039 A 
HETATM    3  C8  UNL     1      22.815   2.980  51.682  1.00  0.00    -0.026 A 
HETATM    4  C9  UNL     1      23.841   3.171  51.173  1.00  0.00    -0.018 A 
HETATM    5  C10 UNL     1      24.925   3.363  50.660  1.00  0.00    -0.042 A 
HETATM    6  C11 UNL     1      24.131   3.304  49.510  1.00  0.00     0.148 A 
HETATM    7  N1  UNL     1      23.165   4.102  48.955  1.00  0.00    -0.373 N 
HETATM    8  C12 UNL     1      21.908   3.986  49.441  1.00  0.00     0.086 C 
HETATM    9  C13 UNL     1      21.029   4.462  50.399  1.00  0.00     0.014 C 
HETATM   10  C14 UNL     1      21.187   3.905  51.662  1.00  0.00    -0.008 C 
HETATM   11  C15 UNL     1      23.007   5.125  47.941  1.00  0.00     0.161 C 
HETATM   12  C16 UNL     1      23.235   6.488  48.532  1.00  0.00    -0.044 A 
HETATM   13  C17 UNL     1      23.357   7.616  47.861  1.00  0.00    -0.009 A 
HETATM   14  C18 UNL     1      23.573   8.749  48.763  1.00  0.00     0.035 A 
HETATM   15  C19 UNL     1      23.572   8.096  50.100  1.00  0.00    -0.017 A 
HETATM   16  C20 UNL     1      23.374   6.797  49.973  1.00  0.00     0.005 A 
HETATM   17  C21 UNL     1      24.936   9.395  48.633  1.00  0.00     0.039 C 
HETATM   18  C22 UNL     1      26.009   8.328  48.587  1.00  0.00    -0.028 C 
HETATM   19  C23 UNL     1      27.125   7.681  49.021  1.00  0.00    -0.001 C 
HETATM   20  C24 UNL     1      27.619   6.478  48.257  1.00  0.00     0.296 C 
HETATM   21  N2  UNL     1      27.697   5.283  49.024  1.00  0.00     0.087 N 
HETATM   22  C25 UNL     1      26.350   4.926  49.414  1.00  0.00     0.274 C 
HETATM   23  C26 UNL     1      26.216   3.592  50.047  1.00  0.00     0.067 C 
HETATM   24  H24 UNL     1      28.325   5.367  49.844  1.00  0.00     0.316 HD
ENDROOT
BRANCH   1  25
HETATM   25  C6  UNL     1      22.741   0.800  53.253  1.00  0.00     0.005 C 
BRANCH  25  26
HETATM   26  C5  UNL     1      23.932  -0.047  52.964  1.00  0.00     0.038 C 
BRANCH  26  27
HETATM   27  C4  UNL     1      25.233   0.593  53.065  1.00  0.00    -0.058 A 
HETATM   28  C3  UNL     1      26.199   0.137  52.219  1.00  0.00     0.010 A 
HETATM   29  C2  UNL     1      27.472   0.649  52.204  1.00  0.00     0.037 A 
HETATM   30  C1  UNL     1      27.880   1.655  53.033  1.00  0.00     0.065 A 
HETATM   31  C28 UNL     1      26.910   2.135  53.907  1.00  0.00     0.037 A 
HETATM   32  C27 UNL     1      25.604   1.624  53.935  1.00  0.00     0.010 A 
BRANCH  30  33
HETATM   33  O1  UNL     1      29.153   2.239  53.088  1.00  0.00    -0.361 OA
HETATM   34  H1  UNL     1      29.749   2.117  53.915  1.00  0.00     0.217 HD
ENDBRANCH  30  33
ENDBRANCH  26  27
ENDBRANCH  25  26
ENDBRANCH   1  25
TORSDOF 4
ENDMDL
MODEL 4
REMARK VINA RESULT:      -9.8      2.755      4.628
REMARK  4 active torsions:
REMARK  status: ('A' for Active; 'I' for Inactive)
REMARK    1  A    between atoms: O1_1  and  C1_2 
REMARK    2  A    between atoms: C4_5  and  C5_6 
REMARK    3  A    between atoms: C5_6  and  C6_7 
REMARK    4  A    between atoms: C6_7  and  O2_8 
ROOT
HETATM    1  O2  UNL     1      26.078   1.911  52.749  1.00  0.00     0.000 OA
HETATM    2  C7  UNL     1      26.637   2.101  51.547  1.00  0.00     0.039 A 
HETATM    3  C8  UNL     1      25.365   2.486  51.775  1.00  0.00    -0.026 A 
HETATM    4  C9  UNL     1      24.264   2.797  51.975  1.00  0.00    -0.018 A 
HETATM    5  C10 UNL     1      23.111   3.104  52.197  1.00  0.00    -0.042 A 
HETATM    6  C11 UNL     1      23.612   4.352  51.813  1.00  0.00     0.148 A 
HETATM    7  N1  UNL     1      24.060   4.899  50.638  1.00  0.00    -0.373 N 
HETATM    8  C12 UNL     1      25.334   4.631  50.274  1.00  0.00     0.086 C 
HETATM    9  C13 UNL     1      26.136   3.746  49.573  1.00  0.00     0.014 C 
HETATM   10  C14 UNL     1      26.468   2.588  50.265  1.00  0.00    -0.008 C 
HETATM   11  C15 UNL     1      23.599   5.735  49.548  1.00  0.00     0.161 C 
HETATM   12  C16 UNL     1      22.988   4.892  48.464  1.00  0.00    -0.044 A 
HETATM   13  C17 UNL     1      22.305   5.335  47.427  1.00  0.00    -0.009 A 
HETATM   14  C18 UNL     1      21.857   4.231  46.576  1.00  0.00     0.035 A 
HETATM   15  C19 UNL     1      22.384   3.041  47.297  1.00  0.00    -0.017 A 
HETATM   16  C20 UNL     1      23.038   3.416  48.381  1.00  0.00     0.005 A 
HETATM   17  C21 UNL     1      20.356   4.045  46.539  1.00  0.00     0.039 C 
HETATM   18  C22 UNL     1      19.794   4.114  47.943  1.00  0.00    -0.028 C 
HETATM   19  C23 UNL     1      19.128   3.637  49.030  1.00  0.00    -0.001 C 
HETATM   20  C24 UNL     1      18.993   4.515  50.250  1.00  0.00     0.296 C 
HETATM   21  N2  UNL     1      19.541   3.960  51.439  1.00  0.00     0.087 N 
HETATM   22  C25 UNL     1      20.970   3.841  51.246  1.00  0.00     0.274 C 
HETATM   23  C26 UNL     1      21.736   3.471  52.462  1.00  0.00     0.067 C 
HETATM   24  H24 UNL     1      19.111   3.054  51.701  1.00  0.00     0.316 HD
ENDROOT
BRANCH   1  25
HETATM   25  C6  UNL     1      26.595   1.339  53.872  1.00  0.00     0.005 C 
BRANCH  25  26
HETATM   26  C5  UNL     1      26.318  -0.119  53.991  1.00  0.00     0.038 C 
BRANCH  26  27
HETATM   27  C4  UNL     1      24.926  -0.514  54.143  1.00  0.00    -0.058 A 
HETATM   28  C3  UNL     1      24.562  -0.990  55.366  1.00  0.00     0.010 A 
HETATM   29  C2  UNL     1      23.283  -1.398  55.650  1.00  0.00     0.037 A 
HETATM   30  C1  UNL     1      22.270  -1.362  54.736  1.00  0.00     0.065 A 
HETATM   31  C28 UNL     1      22.619  -0.881  53.479  1.00  0.00     0.037 A 
HETATM   32  C27 UNL     1      23.921  -0.459  53.171  1.00  0.00     0.010 A 
BRANCH  30  33
HETATM   33  O1  UNL     1      20.938  -1.755  54.936  1.00  0.00    -0.361 OA
HETATM   34  H1  UNL     1      20.649  -2.190  55.819  1.00  0.00     0.217 HD
ENDBRANCH  30  33
ENDBRANCH  26  27
ENDBRANCH  25  26
ENDBRANCH   1  25
TORSDOF 4
ENDMDL
MODEL 5
REMARK VINA RESULT:      -9.6      4.667      8.408
REMARK  4 active torsions:
REMARK  status: ('A' for Active; 'I' for Inactive)
REMARK    1  A    between atoms: O1_1  and  C1_2 
REMARK    2  A    between atoms: C4_5  and  C5_6 
REMARK    3  A    between atoms: C5_6  and  C6_7 
REMARK    4  A    between atoms: C6_7  and  O2_8 
ROOT
HETATM    1  O2  UNL     1      23.444   4.181  51.461  1.00  0.00     0.000 OA
HETATM    2  C7  UNL     1      23.024   5.443  51.617  1.00  0.00     0.039 A 
HETATM    3  C8  UNL     1      24.126   5.177  50.886  1.00  0.00    -0.026 A 
HETATM    4  C9  UNL     1      25.084   4.940  50.274  1.00  0.00    -0.018 A 
HETATM    5  C10 UNL     1      26.092   4.676  49.649  1.00  0.00    -0.042 A 
HETATM    6  C11 UNL     1      25.365   5.334  48.650  1.00  0.00     0.148 A 
HETATM    7  N1  UNL     1      24.964   6.626  48.433  1.00  0.00    -0.373 N 
HETATM    8  C12 UNL     1      23.851   7.048  49.075  1.00  0.00     0.086 C 
HETATM    9  C13 UNL     1      23.383   7.638  50.236  1.00  0.00     0.014 C 
HETATM   10  C14 UNL     1      23.245   6.772  51.314  1.00  0.00    -0.008 C 
HETATM   11  C15 UNL     1      25.357   7.808  47.693  1.00  0.00     0.161 C 
HETATM   12  C16 UNL     1      26.291   8.653  48.513  1.00  0.00    -0.044 A 
HETATM   13  C17 UNL     1      26.984   9.689  48.082  1.00  0.00    -0.009 A 
HETATM   14  C18 UNL     1      27.791  10.271  49.155  1.00  0.00     0.035 A 
HETATM   15  C19 UNL     1      27.469   9.389  50.309  1.00  0.00    -0.017 A 
HETATM   16  C20 UNL     1      26.604   8.460  49.946  1.00  0.00     0.005 A 
HETATM   17  C21 UNL     1      29.284  10.136  48.952  1.00  0.00     0.039 C 
HETATM   18  C22 UNL     1      29.619   8.725  48.516  1.00  0.00    -0.028 C 
HETATM   19  C23 UNL     1      30.225   7.511  48.625  1.00  0.00    -0.001 C 
HETATM   20  C24 UNL     1      29.982   6.473  47.558  1.00  0.00     0.296 C 
HETATM   21  N2  UNL     1      29.426   5.255  48.037  1.00  0.00     0.087 N 
HETATM   22  C25 UNL     1      28.105   5.551  48.549  1.00  0.00     0.274 C 
HETATM   23  C26 UNL     1      27.291   4.362  48.903  1.00  0.00     0.067 C 
HETATM   24  H24 UNL     1      30.018   4.789  48.747  1.00  0.00     0.316 HD
ENDROOT
BRANCH   1  25
HETATM   25  C6  UNL     1      22.931   3.021  51.958  1.00  0.00     0.005 C 
BRANCH  25  26
HETATM   26  C5  UNL     1      23.498   1.792  51.335  1.00  0.00     0.038 C 
BRANCH  26  27
HETATM   27  C4  UNL     1      24.643   1.189  51.998  1.00  0.00    -0.058 A 
HETATM   28  C3  UNL     1      24.368   0.306  52.997  1.00  0.00     0.010 A 
HETATM   29  C2  UNL     1      25.350  -0.338  53.708  1.00  0.00     0.037 A 
HETATM   30  C1  UNL     1      26.682  -0.149  53.476  1.00  0.00     0.065 A 
HETATM   31  C28 UNL     1      26.987   0.751  52.460  1.00  0.00     0.037 A 
HETATM   32  C27 UNL     1      25.996   1.417  51.723  1.00  0.00     0.010 A 
BRANCH  30  33
HETATM   33  O1  UNL     1      27.752  -0.760  54.146  1.00  0.00    -0.361 OA
HETATM   34  H1  UNL     1      28.408  -0.200  54.702  1.00  0.00     0.217 HD
ENDBRANCH  30  33
ENDBRANCH  26  27
ENDBRANCH  25  26
ENDBRANCH   1  25
TORSDOF 4
ENDMDL
MODEL 6
REMARK VINA RESULT:      -9.5      2.738      3.834
REMARK  4 active torsions:
REMARK  status: ('A' for Active; 'I' for Inactive)
REMARK    1  A    between atoms: O1_1  and  C1_2 
REMARK    2  A    between atoms: C4_5  and  C5_6 
REMARK    3  A    between atoms: C5_6  and  C6_7 
REMARK    4  A    between atoms: C6_7  and  O2_8 
ROOT
HETATM    1  O2  UNL     1      26.101   2.764  52.505  1.00  0.00     0.000 OA
HETATM    2  C7  UNL     1      26.593   2.850  51.262  1.00  0.00     0.039 A 
HETATM    3  C8  UNL     1      25.300   3.147  51.505  1.00  0.00    -0.026 A 
HETATM    4  C9  UNL     1      24.183   3.382  51.720  1.00  0.00    -0.018 A 
HETATM    5  C10 UNL     1      23.015   3.611  51.960  1.00  0.00    -0.042 A 
HETATM    6  C11 UNL     1      23.382   4.840  51.402  1.00  0.00     0.148 A 
HETATM    7  N1  UNL     1      23.730   5.272  50.149  1.00  0.00    -0.373 N 
HETATM    8  C12 UNL     1      25.009   5.074  49.757  1.00  0.00     0.086 C 
HETATM    9  C13 UNL     1      25.864   4.183  49.130  1.00  0.00     0.014 C 
HETATM   10  C14 UNL     1      26.329   3.156  49.941  1.00  0.00    -0.008 C 
HETATM   11  C15 UNL     1      23.152   5.920  48.990  1.00  0.00     0.161 C 
HETATM   12  C16 UNL     1      22.582   4.897  48.048  1.00  0.00    -0.044 A 
HETATM   13  C17 UNL     1      21.820   5.143  47.000  1.00  0.00    -0.009 A 
HETATM   14  C18 UNL     1      21.446   3.905  46.313  1.00  0.00     0.035 A 
HETATM   15  C19 UNL     1      22.110   2.867  47.147  1.00  0.00    -0.017 A 
HETATM   16  C20 UNL     1      22.767   3.432  48.143  1.00  0.00     0.005 A 
HETATM   17  C21 UNL     1      19.968   3.585  46.374  1.00  0.00     0.039 C 
HETATM   18  C22 UNL     1      19.457   3.780  47.785  1.00  0.00    -0.028 C 
HETATM   19  C23 UNL     1      18.881   3.386  48.955  1.00  0.00    -0.001 C 
HETATM   20  C24 UNL     1      18.711   4.395  50.063  1.00  0.00     0.296 C 
HETATM   21  N2  UNL     1      19.354   4.045  51.282  1.00  0.00     0.087 N 
HETATM   22  C25 UNL     1      20.780   4.029  51.034  1.00  0.00     0.274 C 
HETATM   23  C26 UNL     1      21.623   3.885  52.246  1.00  0.00     0.067 C 
HETATM   24  H24 UNL     1      19.022   3.145  51.674  1.00  0.00     0.316 HD
ENDROOT
BRANCH   1  25
HETATM   25  C6  UNL     1      26.712   2.387  53.662  1.00  0.00     0.005 C 
BRANCH  25  26
HETATM   26  C5  UNL     1      28.074   1.815  53.469  1.00  0.00     0.038 C 
BRANCH  26  27
HETATM   27  C4  UNL     1      28.168   0.370  53.343  1.00  0.00    -0.058 A 
HETATM   28  C3  UNL     1      29.364  -0.190  53.675  1.00  0.00     0.010 A 
HETATM   29  C2  UNL     1      29.594  -1.541  53.604  1.00  0.00     0.037 A 
HETATM   30  C1  UNL     1      28.648  -2.437  53.196  1.00  0.00     0.065 A 
HETATM   31  C28 UNL     1      27.418  -1.887  52.850  1.00  0.00     0.037 A 
HETATM   32  C27 UNL     1      27.166  -0.509  52.918  1.00  0.00     0.010 A 
BRANCH  30  33
HETATM   33  O1  UNL     1      28.792  -3.828  53.093  1.00  0.00    -0.361 OA
HETATM   34  H1  UNL     1      29.652  -4.238  52.713  1.00  0.00     0.217 HD
ENDBRANCH  30  33
ENDBRANCH  26  27
ENDBRANCH  25  26
ENDBRANCH   1  25
TORSDOF 4
ENDMDL
MODEL 7
REMARK VINA RESULT:      -9.4      3.480      6.579
REMARK  4 active torsions:
REMARK  status: ('A' for Active; 'I' for Inactive)
REMARK    1  A    between atoms: O1_1  and  C1_2 
REMARK    2  A    between atoms: C4_5  and  C5_6 
REMARK    3  A    between atoms: C5_6  and  C6_7 
REMARK    4  A    between atoms: C6_7  and  O2_8 
ROOT
HETATM    1  O2  UNL     1      21.941   5.351  47.109  1.00  0.00     0.000 OA
HETATM    2  C7  UNL     1      20.782   4.706  47.297  1.00  0.00     0.039 A 
HETATM    3  C8  UNL     1      21.789   4.570  48.185  1.00  0.00    -0.026 A 
HETATM    4  C9  UNL     1      22.668   4.444  48.933  1.00  0.00    -0.018 A 
HETATM    5  C10 UNL     1      23.602   4.313  49.698  1.00  0.00    -0.042 A 
HETATM    6  C11 UNL     1      22.636   4.790  50.591  1.00  0.00     0.148 A 
HETATM    7  N1  UNL     1      21.476   4.291  51.124  1.00  0.00    -0.373 N 
HETATM    8  C12 UNL     1      20.358   4.375  50.368  1.00  0.00     0.086 C 
HETATM    9  C13 UNL     1      19.599   3.719  49.414  1.00  0.00     0.014 C 
HETATM   10  C14 UNL     1      20.061   3.854  48.111  1.00  0.00    -0.008 C 
HETATM   11  C15 UNL     1      20.987   3.640  52.323  1.00  0.00     0.161 C 
HETATM   12  C16 UNL     1      21.104   2.148  52.193  1.00  0.00    -0.044 A 
HETATM   13  C17 UNL     1      20.932   1.267  53.158  1.00  0.00    -0.009 A 
HETATM   14  C18 UNL     1      21.127  -0.100  52.671  1.00  0.00     0.035 A 
HETATM   15  C19 UNL     1      21.462   0.119  51.238  1.00  0.00    -0.017 A 
HETATM   16  C20 UNL     1      21.446   1.409  50.957  1.00  0.00     0.005 A 
HETATM   17  C21 UNL     1      22.330  -0.804  53.262  1.00  0.00     0.039 C 
HETATM   18  C22 UNL     1      23.529   0.121  53.240  1.00  0.00    -0.028 C 
HETATM   19  C23 UNL     1      24.790   0.498  52.894  1.00  0.00    -0.001 C 
HETATM   20  C24 UNL     1      25.319   1.822  53.384  1.00  0.00     0.296 C 
HETATM   21  N2  UNL     1      25.714   2.718  52.353  1.00  0.00     0.087 N 
HETATM   22  C25 UNL     1      24.528   3.068  51.602  1.00  0.00     0.274 C 
HETATM   23  C26 UNL     1      24.714   4.157  50.611  1.00  0.00     0.067 C 
HETATM   24  H24 UNL     1      26.456   2.333  51.741  1.00  0.00     0.316 HD
ENDROOT
BRANCH   1  25
HETATM   25  C6  UNL     1      22.329   6.174  46.096  1.00  0.00     0.005 C 
BRANCH  25  26
HETATM   26  C5  UNL     1      22.711   7.543  46.541  1.00  0.00     0.038 C 
BRANCH  26  27
HETATM   27  C4  UNL     1      23.568   7.638  47.712  1.00  0.00    -0.058 A 
HETATM   28  C3  UNL     1      24.840   7.170  47.571  1.00  0.00     0.010 A 
HETATM   29  C2  UNL     1      25.756   7.196  48.591  1.00  0.00     0.037 A 
HETATM   30  C1  UNL     1      25.474   7.691  49.832  1.00  0.00     0.065 A 
HETATM   31  C28 UNL     1      24.180   8.173  50.000  1.00  0.00     0.037 A 
HETATM   32  C27 UNL     1      23.232   8.155  48.968  1.00  0.00     0.010 A 
BRANCH  30  33
HETATM   33  O1  UNL     1      26.343   7.760  50.931  1.00  0.00    -0.361 OA
HETATM   34  H1  UNL     1      26.984   6.986  51.139  1.00  0.00     0.217 HD
ENDBRANCH  30  33
ENDBRANCH  26  27
ENDBRANCH  25  26
ENDBRANCH   1  25
TORSDOF 4
ENDMDL
MODEL 8
REMARK VINA RESULT:      -9.1      2.412      3.484
REMARK  4 active torsions:
REMARK  status: ('A' for Active; 'I' for Inactive)
REMARK    1  A    between atoms: O1_1  and  C1_2 
REMARK    2  A    between atoms: C4_5  and  C5_6 
REMARK    3  A    between atoms: C5_6  and  C6_7 
REMARK    4  A    between atoms: C6_7  and  O2_8 
ROOT
HETATM    1  O2  UNL     1      25.313   2.672  52.298  1.00  0.00     0.000 OA
HETATM    2  C7  UNL     1      25.733   2.988  51.066  1.00  0.00     0.039 A 
HETATM    3  C8  UNL     1      24.433   3.121  51.397  1.00  0.00    -0.026 A 
HETATM    4  C9  UNL     1      23.311   3.215  51.686  1.00  0.00    -0.018 A 
HETATM    5  C10 UNL     1      22.141   3.294  51.999  1.00  0.00    -0.042 A 
HETATM    6  C11 UNL     1      22.370   4.622  51.622  1.00  0.00     0.148 A 
HETATM    7  N1  UNL     1      22.616   5.265  50.437  1.00  0.00    -0.373 N 
HETATM    8  C12 UNL     1      23.887   5.250  49.974  1.00  0.00     0.086 C 
HETATM    9  C13 UNL     1      24.784   4.547  49.189  1.00  0.00     0.014 C 
HETATM   10  C14 UNL     1      25.379   3.459  49.817  1.00  0.00    -0.008 C 
HETATM   11  C15 UNL     1      21.926   6.021  49.411  1.00  0.00     0.161 C 
HETATM   12  C16 UNL     1      21.403   5.099  48.346  1.00  0.00    -0.044 A 
HETATM   13  C17 UNL     1      20.571   5.424  47.376  1.00  0.00    -0.009 A 
HETATM   14  C18 UNL     1      20.275   4.272  46.523  1.00  0.00     0.035 A 
HETATM   15  C19 UNL     1      21.067   3.189  47.164  1.00  0.00    -0.017 A 
HETATM   16  C20 UNL     1      21.721   3.660  48.210  1.00  0.00     0.005 A 
HETATM   17  C21 UNL     1      18.836   3.807  46.586  1.00  0.00     0.039 C 
HETATM   18  C22 UNL     1      18.379   3.742  48.028  1.00  0.00    -0.028 C 
HETATM   19  C23 UNL     1      17.899   3.127  49.144  1.00  0.00    -0.001 C 
HETATM   20  C24 UNL     1      17.696   3.939  50.398  1.00  0.00     0.296 C 
HETATM   21  N2  UNL     1      18.427   3.475  51.526  1.00  0.00     0.087 N 
HETATM   22  C25 UNL     1      19.834   3.631  51.228  1.00  0.00     0.274 C 
HETATM   23  C26 UNL     1      20.746   3.390  52.373  1.00  0.00     0.067 C 
HETATM   24  H24 UNL     1      18.196   2.500  51.788  1.00  0.00     0.316 HD
ENDROOT
BRANCH   1  25
HETATM   25  C6  UNL     1      26.011   2.187  53.362  1.00  0.00     0.005 C 
BRANCH  25  26
HETATM   26  C5  UNL     1      27.437   1.877  53.060  1.00  0.00     0.038 C 
BRANCH  26  27
HETATM   27  C4  UNL     1      27.827   0.477  53.101  1.00  0.00    -0.058 A 
HETATM   28  C3  UNL     1      26.896  -0.423  52.678  1.00  0.00     0.010 A 
HETATM   29  C2  UNL     1      27.128  -1.776  52.663  1.00  0.00     0.037 A 
HETATM   30  C1  UNL     1      28.306  -2.334  53.068  1.00  0.00     0.065 A 
HETATM   31  C28 UNL     1      29.272  -1.433  53.505  1.00  0.00     0.037 A 
HETATM   32  C27 UNL     1      29.052  -0.048  53.527  1.00  0.00     0.010 A 
BRANCH  30  33
HETATM   33  O1  UNL     1      28.633  -3.698  53.086  1.00  0.00    -0.361 OA
HETATM   34  H1  UNL     1      29.409  -4.056  52.519  1.00  0.00     0.217 HD
ENDBRANCH  30  33
ENDBRANCH  26  27
ENDBRANCH  25  26
ENDBRANCH   1  25
TORSDOF 4
ENDMDL
MODEL 9
REMARK VINA RESULT:      -9.0      3.182      5.524
REMARK  4 active torsions:
REMARK  status: ('A' for Active; 'I' for Inactive)
REMARK    1  A    between atoms: O1_1  and  C1_2 
REMARK    2  A    between atoms: C4_5  and  C5_6 
REMARK    3  A    between atoms: C5_6  and  C6_7 
REMARK    4  A    between atoms: C6_7  and  O2_8 
ROOT
HETATM    1  O2  UNL     1      24.168   1.430  52.301  1.00  0.00     0.000 OA
HETATM    2  C7  UNL     1      24.140   2.597  52.958  1.00  0.00     0.039 A 
HETATM    3  C8  UNL     1      23.658   2.511  51.701  1.00  0.00    -0.026 A 
HETATM    4  C9  UNL     1      23.263   2.432  50.612  1.00  0.00    -0.018 A 
HETATM    5  C10 UNL     1      22.868   2.335  49.468  1.00  0.00    -0.042 A 
HETATM    6  C11 UNL     1      21.699   2.803  50.079  1.00  0.00     0.148 A 
HETATM    7  N1  UNL     1      21.308   3.988  50.647  1.00  0.00    -0.373 N 
HETATM    8  C12 UNL     1      21.687   4.220  51.924  1.00  0.00     0.086 C 
HETATM    9  C13 UNL     1      22.687   4.761  52.714  1.00  0.00     0.014 C 
HETATM   10  C14 UNL     1      23.782   3.930  52.916  1.00  0.00    -0.008 C 
HETATM   11  C15 UNL     1      20.567   5.190  50.324  1.00  0.00     0.161 C 
HETATM   12  C16 UNL     1      21.483   6.229  49.740  1.00  0.00    -0.044 A 
HETATM   13  C17 UNL     1      21.113   7.357  49.165  1.00  0.00    -0.009 A 
HETATM   14  C18 UNL     1      22.274   8.124  48.709  1.00  0.00     0.035 A 
HETATM   15  C19 UNL     1      23.409   7.246  49.100  1.00  0.00    -0.017 A 
HETATM   16  C20 UNL     1      22.960   6.157  49.697  1.00  0.00     0.005 A 
HETATM   17  C21 UNL     1      22.373   8.262  47.205  1.00  0.00     0.039 C 
HETATM   18  C22 UNL     1      22.122   6.922  46.547  1.00  0.00    -0.028 C 
HETATM   19  C23 UNL     1      22.441   5.848  45.773  1.00  0.00    -0.001 C 
HETATM   20  C24 UNL     1      21.432   4.739  45.608  1.00  0.00     0.296 C 
HETATM   21  N2  UNL     1      21.889   3.459  46.029  1.00  0.00     0.087 N 
HETATM   22  C25 UNL     1      22.112   3.524  47.457  1.00  0.00     0.274 C 
HETATM   23  C26 UNL     1      22.394   2.220  48.106  1.00  0.00     0.067 C 
HETATM   24  H24 UNL     1      22.735   3.142  45.522  1.00  0.00     0.316 HD
ENDROOT
BRANCH   1  25
HETATM   25  C6  UNL     1      24.646   0.217  52.695  1.00  0.00     0.005 C 
BRANCH  25  26
HETATM   26  C5  UNL     1      26.044  -0.053  52.258  1.00  0.00     0.038 C 
BRANCH  26  27
HETATM   27  C4  UNL     1      27.099   0.667  52.953  1.00  0.00    -0.058 A 
HETATM   28  C3  UNL     1      27.711   0.007  53.976  1.00  0.00     0.010 A 
HETATM   29  C2  UNL     1      28.721   0.565  54.718  1.00  0.00     0.037 A 
HETATM   30  C1  UNL     1      29.200   1.824  54.496  1.00  0.00     0.065 A 
HETATM   31  C28 UNL     1      28.588   2.518  53.457  1.00  0.00     0.037 A 
HETATM   32  C27 UNL     1      27.555   1.964  52.688  1.00  0.00     0.010 A 
BRANCH  30  33
HETATM   33  O1  UNL     1      30.225   2.474  55.199  1.00  0.00    -0.361 OA
HETATM   34  H1  UNL     1      30.056   3.379  55.651  1.00  0.00     0.217 HD
ENDBRANCH  30  33
ENDBRANCH  26  27
ENDBRANCH  25  26
ENDBRANCH   1  25
TORSDOF 4
ENDMDL
