MODEL 1
REMARK VINA RESULT:      -7.3      0.000      0.000
REMARK  9 active torsions:
REMARK  status: ('A' for Active; 'I' for Inactive)
REMARK    1  A    between atoms: C3_4  and  C4_5 
REMARK    2  A    between atoms: C5_6  and  C6_7 
REMARK    3  A    between atoms: C6_7  and  C7_8 
REMARK    4  A    between atoms: C6_7  and  C9_12 
REMARK    5  A    between atoms: N2_9  and  C8_10 
REMARK    6  A    between atoms: C10_13  and  O1_14 
REMARK    7  A    between atoms: O1_14  and  C11_15 
REMARK    8  A    between atoms: C11_15  and  C12_16 
REMARK    9  A    between atoms: C12_16  and  O2_17 
ROOT
HETATM    1  N1  UNL     1      29.580   2.252  54.819  1.00  0.00    -0.191 NA
HETATM    2  C1  UNL     1      29.065   1.378  54.296  1.00  0.00     0.100 C 
HETATM    3  C2  UNL     1      28.396   0.281  53.616  1.00  0.00     0.060 A 
HETATM    4  C3  UNL     1      27.432   0.357  52.682  1.00  0.00     0.023 A 
HETATM    5  C16 UNL     1      27.434  -1.096  52.643  1.00  0.00     0.129 A 
HETATM    6  F1  UNL     1      26.915  -2.222  52.109  1.00  0.00    -0.205 F 
HETATM    7  C17 UNL     1      28.379  -1.166  53.558  1.00  0.00     0.066 A 
ENDROOT
BRANCH   4   8
HETATM    8  C4  UNL     1      26.631   1.308  51.934  1.00  0.00     0.013 C 
HETATM    9  C5  UNL     1      25.332   1.509  51.841  1.00  0.00    -0.011 C 
BRANCH   9  10
HETATM   10  C6  UNL     1      24.028   1.028  52.319  1.00  0.00     0.080 C 
BRANCH  10  11
HETATM   11  C7  UNL     1      24.109   0.454  53.710  1.00  0.00     0.104 C 
HETATM   12  N2  UNL     1      23.968  -0.780  53.971  1.00  0.00    -0.258 NA
BRANCH  12  13
HETATM   13  C8  UNL     1      24.072  -1.183  55.351  1.00  0.00     0.222 C 
HETATM   14  N3  UNL     1      22.981  -1.762  55.743  1.00  0.00    -0.293 NA
HETATM   15  H6  UNL     1      22.155  -1.914  55.149  1.00  0.00     0.187 HD
ENDBRANCH  12  13
ENDBRANCH  10  11
BRANCH  10  16
HETATM   16  C9  UNL     1      22.971   2.094  52.335  1.00  0.00    -0.034 C 
HETATM   17  C10 UNL     1      21.686   1.794  52.207  1.00  0.00     0.073 C 
HETATM   18  C13 UNL     1      20.592   2.806  52.217  1.00  0.00     0.232 C 
HETATM   19  O3  UNL     1      21.048   4.094  52.494  1.00  0.00    -0.384 OA
HETATM   20  C14 UNL     1      22.214   4.365  51.812  1.00  0.00     0.172 C 
HETATM   21  C15 UNL     1      23.305   3.534  52.499  1.00  0.00     0.064 C 
BRANCH  17  22
HETATM   22  O1  UNL     1      21.062   0.588  52.044  1.00  0.00    -0.351 OA
BRANCH  22  23
HETATM   23  C11 UNL     1      19.911   0.083  52.592  1.00  0.00     0.201 C 
BRANCH  23  24
HETATM   24  C12 UNL     1      20.096  -0.877  53.734  1.00  0.00     0.190 C 
BRANCH  24  25
HETATM   25  O2  UNL     1      20.603  -0.201  54.846  1.00  0.00    -0.399 OA
HETATM   26  H11 UNL     1      21.276  -0.705  55.340  1.00  0.00     0.209 HD
ENDBRANCH  24  25
ENDBRANCH  23  24
ENDBRANCH  22  23
ENDBRANCH  17  22
ENDBRANCH  10  16
ENDBRANCH   9  10
ENDBRANCH   4   8
TORSDOF 9
ENDMDL
MODEL 2
REMARK VINA RESULT:      -7.2      2.826      4.706
REMARK  9 active torsions:
REMARK  status: ('A' for Active; 'I' for Inactive)
REMARK    1  A    between atoms: C3_4  and  C4_5 
REMARK    2  A    between atoms: C5_6  and  C6_7 
REMARK    3  A    between atoms: C6_7  and  C7_8 
REMARK    4  A    between atoms: C6_7  and  C9_12 
REMARK    5  A    between atoms: N2_9  and  C8_10 
REMARK    6  A    between atoms: C10_13  and  O1_14 
REMARK    7  A    between atoms: O1_14  and  C11_15 
REMARK    8  A    between atoms: C11_15  and  C12_16 
REMARK    9  A    between atoms: C12_16  and  O2_17 
ROOT
HETATM    1  N1  UNL     1      29.042  -2.847  53.350  1.00  0.00    -0.191 NA
HETATM    2  C1  UNL     1      28.835  -1.728  53.424  1.00  0.00     0.100 C 
HETATM    3  C2  UNL     1      28.547  -0.305  53.519  1.00  0.00     0.060 A 
HETATM    4  C3  UNL     1      27.343   0.293  53.500  1.00  0.00     0.023 A 
HETATM    5  C16 UNL     1      28.037   1.564  53.637  1.00  0.00     0.129 A 
HETATM    6  F1  UNL     1      27.945   2.907  53.735  1.00  0.00    -0.205 F 
HETATM    7  C17 UNL     1      29.214   0.973  53.655  1.00  0.00     0.066 A 
ENDROOT
BRANCH   4   8
HETATM    8  C4  UNL     1      25.923   0.013  53.400  1.00  0.00     0.013 C 
HETATM    9  C5  UNL     1      24.892   0.737  53.010  1.00  0.00    -0.011 C 
BRANCH   9  10
HETATM   10  C6  UNL     1      24.506   2.061  52.504  1.00  0.00     0.080 C 
BRANCH  10  11
HETATM   11  C7  UNL     1      25.090   2.341  51.143  1.00  0.00     0.104 C 
HETATM   12  N2  UNL     1      26.133   3.041  50.957  1.00  0.00    -0.258 NA
BRANCH  12  13
HETATM   13  C8  UNL     1      26.575   3.223  49.596  1.00  0.00     0.222 C 
HETATM   14  N3  UNL     1      27.377   4.238  49.507  1.00  0.00    -0.293 NA
HETATM   15  H6  UNL     1      27.658   4.831  50.300  1.00  0.00     0.187 HD
ENDBRANCH  12  13
ENDBRANCH  10  11
BRANCH  10  16
HETATM   16  C9  UNL     1      23.019   2.247  52.399  1.00  0.00    -0.034 C 
HETATM   17  C10 UNL     1      22.481   3.454  52.290  1.00  0.00     0.073 C 
HETATM   18  C13 UNL     1      21.016   3.702  52.181  1.00  0.00     0.232 C 
HETATM   19  O3  UNL     1      20.272   2.526  52.088  1.00  0.00    -0.384 OA
HETATM   20  C14 UNL     1      20.733   1.576  52.972  1.00  0.00     0.172 C 
HETATM   21  C15 UNL     1      22.078   1.096  52.410  1.00  0.00     0.064 C 
BRANCH  17  22
HETATM   22  O1  UNL     1      23.062   4.690  52.249  1.00  0.00    -0.351 OA
BRANCH  22  23
HETATM   23  C11 UNL     1      23.082   5.650  51.270  1.00  0.00     0.201 C 
BRANCH  23  24
HETATM   24  C12 UNL     1      24.217   6.633  51.340  1.00  0.00     0.190 C 
BRANCH  24  25
HETATM   25  O2  UNL     1      25.373   6.065  50.802  1.00  0.00    -0.399 OA
HETATM   26  H11 UNL     1      25.609   6.411  49.921  1.00  0.00     0.209 HD
ENDBRANCH  24  25
ENDBRANCH  23  24
ENDBRANCH  22  23
ENDBRANCH  17  22
ENDBRANCH  10  16
ENDBRANCH   9  10
ENDBRANCH   4   8
TORSDOF 9
ENDMDL
MODEL 3
REMARK VINA RESULT:      -7.1      1.732      2.123
REMARK  9 active torsions:
REMARK  status: ('A' for Active; 'I' for Inactive)
REMARK    1  A    between atoms: C3_4  and  C4_5 
REMARK    2  A    between atoms: C5_6  and  C6_7 
REMARK    3  A    between atoms: C6_7  and  C7_8 
REMARK    4  A    between atoms: C6_7  and  C9_12 
REMARK    5  A    between atoms: N2_9  and  C8_10 
REMARK    6  A    between atoms: C10_13  and  O1_14 
REMARK    7  A    between atoms: O1_14  and  C11_15 
REMARK    8  A    between atoms: C11_15  and  C12_16 
REMARK    9  A    between atoms: C12_16  and  O2_17 
ROOT
HETATM    1  N1  UNL     1      27.495  -2.686  52.652  1.00  0.00    -0.191 NA
HETATM    2  C1  UNL     1      27.822  -1.632  52.942  1.00  0.00     0.100 C 
HETATM    3  C2  UNL     1      28.222  -0.280  53.295  1.00  0.00     0.060 A 
HETATM    4  C3  UNL     1      27.786   0.874  52.760  1.00  0.00     0.023 A 
HETATM    5  C16 UNL     1      28.674   1.569  53.678  1.00  0.00     0.129 A 
HETATM    6  F1  UNL     1      29.153   2.749  54.124  1.00  0.00    -0.205 F 
HETATM    7  C17 UNL     1      29.099   0.437  54.199  1.00  0.00     0.066 A 
ENDROOT
BRANCH   4   8
HETATM    8  C4  UNL     1      26.882   1.404  51.756  1.00  0.00     0.013 C 
HETATM    9  C5  UNL     1      25.570   1.378  51.628  1.00  0.00    -0.011 C 
BRANCH   9  10
HETATM   10  C6  UNL     1      24.333   0.902  52.262  1.00  0.00     0.080 C 
BRANCH  10  11
HETATM   11  C7  UNL     1      24.573   0.390  53.660  1.00  0.00     0.104 C 
HETATM   12  N2  UNL     1      24.226  -0.766  54.053  1.00  0.00    -0.258 NA
BRANCH  12  13
HETATM   13  C8  UNL     1      24.522  -1.118  55.420  1.00  0.00     0.222 C 
HETATM   14  N3  UNL     1      25.714  -0.727  55.746  1.00  0.00    -0.293 NA
HETATM   15  H6  UNL     1      26.360  -0.234  55.115  1.00  0.00     0.187 HD
ENDBRANCH  12  13
ENDBRANCH  10  11
BRANCH  10  16
HETATM   16  C9  UNL     1      23.266   1.954  52.348  1.00  0.00    -0.034 C 
HETATM   17  C10 UNL     1      21.979   1.635  52.321  1.00  0.00     0.073 C 
HETATM   18  C13 UNL     1      20.875   2.633  52.404  1.00  0.00     0.232 C 
HETATM   19  O3  UNL     1      21.332   3.930  52.631  1.00  0.00    -0.384 OA
HETATM   20  C14 UNL     1      22.438   4.208  51.859  1.00  0.00     0.172 C 
HETATM   21  C15 UNL     1      23.591   3.400  52.469  1.00  0.00     0.064 C 
BRANCH  17  22
HETATM   22  O1  UNL     1      21.362   0.419  52.221  1.00  0.00    -0.351 OA
BRANCH  22  23
HETATM   23  C11 UNL     1      20.492  -0.227  53.061  1.00  0.00     0.201 C 
BRANCH  23  24
HETATM   24  C12 UNL     1      20.847  -0.193  54.522  1.00  0.00     0.190 C 
BRANCH  24  25
HETATM   25  O2  UNL     1      21.142  -1.483  54.970  1.00  0.00    -0.399 OA
HETATM   26  H11 UNL     1      20.593  -1.774  55.721  1.00  0.00     0.209 HD
ENDBRANCH  24  25
ENDBRANCH  23  24
ENDBRANCH  22  23
ENDBRANCH  17  22
ENDBRANCH  10  16
ENDBRANCH   9  10
ENDBRANCH   4   8
TORSDOF 9
ENDMDL
MODEL 4
REMARK VINA RESULT:      -7.1      2.884      4.262
REMARK  9 active torsions:
REMARK  status: ('A' for Active; 'I' for Inactive)
REMARK    1  A    between atoms: C3_4  and  C4_5 
REMARK    2  A    between atoms: C5_6  and  C6_7 
REMARK    3  A    between atoms: C6_7  and  C7_8 
REMARK    4  A    between atoms: C6_7  and  C9_12 
REMARK    5  A    between atoms: N2_9  and  C8_10 
REMARK    6  A    between atoms: C10_13  and  O1_14 
REMARK    7  A    between atoms: O1_14  and  C11_15 
REMARK    8  A    between atoms: C11_15  and  C12_16 
REMARK    9  A    between atoms: C12_16  and  O2_17 
ROOT
HETATM    1  N1  UNL     1      28.014  -2.798  52.881  1.00  0.00    -0.191 NA
HETATM    2  C1  UNL     1      28.188  -1.685  53.065  1.00  0.00     0.100 C 
HETATM    3  C2  UNL     1      28.392  -0.262  53.284  1.00  0.00     0.060 A 
HETATM    4  C3  UNL     1      27.760   0.761  52.682  1.00  0.00     0.023 A 
HETATM    5  C16 UNL     1      28.572   1.660  53.487  1.00  0.00     0.129 A 
HETATM    6  F1  UNL     1      28.883   2.933  53.808  1.00  0.00    -0.205 F 
HETATM    7  C17 UNL     1      29.188   0.654  54.073  1.00  0.00     0.066 A 
ENDROOT
BRANCH   4   8
HETATM    8  C4  UNL     1      26.742   1.060  51.692  1.00  0.00     0.013 C 
HETATM    9  C5  UNL     1      25.516   1.534  51.783  1.00  0.00    -0.011 C 
BRANCH   9  10
HETATM   10  C6  UNL     1      24.502   2.005  52.737  1.00  0.00     0.080 C 
BRANCH  10  11
HETATM   11  C7  UNL     1      24.048   3.410  52.435  1.00  0.00     0.104 C 
HETATM   12  N2  UNL     1      24.366   4.040  51.380  1.00  0.00    -0.258 NA
BRANCH  12  13
HETATM   13  C8  UNL     1      23.857   5.380  51.228  1.00  0.00     0.222 C 
HETATM   14  N3  UNL     1      24.122   6.093  52.278  1.00  0.00    -0.293 NA
HETATM   15  H6  UNL     1      24.627   5.748  53.105  1.00  0.00     0.187 HD
ENDBRANCH  12  13
ENDBRANCH  10  11
BRANCH  10  16
HETATM   16  C9  UNL     1      23.276   1.138  52.777  1.00  0.00    -0.034 C 
HETATM   17  C10 UNL     1      23.340  -0.128  53.164  1.00  0.00     0.073 C 
HETATM   18  C13 UNL     1      22.161  -1.038  53.226  1.00  0.00     0.232 C 
HETATM   19  O3  UNL     1      20.959  -0.387  52.949  1.00  0.00    -0.384 OA
HETATM   20  C14 UNL     1      21.095   0.472  51.880  1.00  0.00     0.172 C 
HETATM   21  C15 UNL     1      21.935   1.650  52.392  1.00  0.00     0.064 C 
BRANCH  17  22
HETATM   22  O1  UNL     1      24.402  -0.885  53.574  1.00  0.00    -0.351 OA
BRANCH  22  23
HETATM   23  C11 UNL     1      25.118  -0.882  54.744  1.00  0.00     0.201 C 
BRANCH  23  24
HETATM   24  C12 UNL     1      24.324  -1.134  55.996  1.00  0.00     0.190 C 
BRANCH  24  25
HETATM   25  O2  UNL     1      25.187  -1.303  57.081  1.00  0.00    -0.399 OA
HETATM   26  H11 UNL     1      25.485  -0.465  57.481  1.00  0.00     0.209 HD
ENDBRANCH  24  25
ENDBRANCH  23  24
ENDBRANCH  22  23
ENDBRANCH  17  22
ENDBRANCH  10  16
ENDBRANCH   9  10
ENDBRANCH   4   8
TORSDOF 9
ENDMDL
MODEL 5
REMARK VINA RESULT:      -6.9      2.201      3.379
REMARK  9 active torsions:
REMARK  status: ('A' for Active; 'I' for Inactive)
REMARK    1  A    between atoms: C3_4  and  C4_5 
REMARK    2  A    between atoms: C5_6  and  C6_7 
REMARK    3  A    between atoms: C6_7  and  C7_8 
REMARK    4  A    between atoms: C6_7  and  C9_12 
REMARK    5  A    between atoms: N2_9  and  C8_10 
REMARK    6  A    between atoms: C10_13  and  O1_14 
REMARK    7  A    between atoms: O1_14  and  C11_15 
REMARK    8  A    between atoms: C11_15  and  C12_16 
REMARK    9  A    between atoms: C12_16  and  O2_17 
ROOT
HETATM    1  N1  UNL     1      29.814   2.227  55.005  1.00  0.00    -0.191 NA
HETATM    2  C1  UNL     1      29.138   1.466  54.488  1.00  0.00     0.100 C 
HETATM    3  C2  UNL     1      28.258   0.514  53.831  1.00  0.00     0.060 A 
HETATM    4  C3  UNL     1      26.945   0.649  53.572  1.00  0.00     0.023 A 
HETATM    5  C16 UNL     1      26.986  -0.672  52.968  1.00  0.00     0.129 A 
HETATM    6  F1  UNL     1      26.311  -1.661  52.345  1.00  0.00    -0.205 F 
HETATM    7  C17 UNL     1      28.272  -0.801  53.223  1.00  0.00     0.066 A 
ENDROOT
BRANCH   4   8
HETATM    8  C4  UNL     1      25.833   1.568  53.728  1.00  0.00     0.013 C 
HETATM    9  C5  UNL     1      24.624   1.610  53.203  1.00  0.00    -0.011 C 
BRANCH   9  10
HETATM   10  C6  UNL     1      23.715   0.914  52.282  1.00  0.00     0.080 C 
BRANCH  10  11
HETATM   11  C7  UNL     1      22.869  -0.114  52.988  1.00  0.00     0.104 C 
HETATM   12  N2  UNL     1      23.115  -0.543  54.158  1.00  0.00    -0.258 NA
BRANCH  12  13
HETATM   13  C8  UNL     1      22.215  -1.528  54.706  1.00  0.00     0.222 C 
HETATM   14  N3  UNL     1      21.035  -1.021  54.884  1.00  0.00    -0.293 NA
HETATM   15  H6  UNL     1      20.777  -0.050  54.663  1.00  0.00     0.187 HD
ENDBRANCH  12  13
ENDBRANCH  10  11
BRANCH  10  16
HETATM   16  C9  UNL     1      22.781   1.840  51.557  1.00  0.00    -0.034 C 
HETATM   17  C10 UNL     1      23.209   2.616  50.571  1.00  0.00     0.073 C 
HETATM   18  C13 UNL     1      22.332   3.554  49.813  1.00  0.00     0.232 C 
HETATM   19  O3  UNL     1      20.988   3.446  50.168  1.00  0.00    -0.384 OA
HETATM   20  C14 UNL     1      20.843   3.339  51.534  1.00  0.00     0.172 C 
HETATM   21  C15 UNL     1      21.338   1.933  51.900  1.00  0.00     0.064 C 
BRANCH  17  22
HETATM   22  O1  UNL     1      24.453   2.763  50.024  1.00  0.00    -0.351 OA
BRANCH  22  23
HETATM   23  C11 UNL     1      25.130   3.877  49.599  1.00  0.00     0.201 C 
BRANCH  23  24
HETATM   24  C12 UNL     1      26.630   3.798  49.672  1.00  0.00     0.190 C 
BRANCH  24  25
HETATM   25  O2  UNL     1      27.023   3.374  50.943  1.00  0.00    -0.399 OA
HETATM   26  H11 UNL     1      26.811   4.008  51.653  1.00  0.00     0.209 HD
ENDBRANCH  24  25
ENDBRANCH  23  24
ENDBRANCH  22  23
ENDBRANCH  17  22
ENDBRANCH  10  16
ENDBRANCH   9  10
ENDBRANCH   4   8
TORSDOF 9
ENDMDL
MODEL 6
REMARK VINA RESULT:      -6.9      2.183      3.083
REMARK  9 active torsions:
REMARK  status: ('A' for Active; 'I' for Inactive)
REMARK    1  A    between atoms: C3_4  and  C4_5 
REMARK    2  A    between atoms: C5_6  and  C6_7 
REMARK    3  A    between atoms: C6_7  and  C7_8 
REMARK    4  A    between atoms: C6_7  and  C9_12 
REMARK    5  A    between atoms: N2_9  and  C8_10 
REMARK    6  A    between atoms: C10_13  and  O1_14 
REMARK    7  A    between atoms: O1_14  and  C11_15 
REMARK    8  A    between atoms: C11_15  and  C12_16 
REMARK    9  A    between atoms: C12_16  and  O2_17 
ROOT
HETATM    1  N1  UNL     1      28.510   2.657  54.080  1.00  0.00    -0.191 NA
HETATM    2  C1  UNL     1      28.436   1.549  53.819  1.00  0.00     0.100 C 
HETATM    3  C2  UNL     1      28.317   0.139  53.484  1.00  0.00     0.060 A 
HETATM    4  C3  UNL     1      27.190  -0.570  53.295  1.00  0.00     0.023 A 
HETATM    5  C16 UNL     1      28.030  -1.728  53.037  1.00  0.00     0.129 A 
HETATM    6  F1  UNL     1      28.097  -3.041  52.730  1.00  0.00    -0.205 F 
HETATM    7  C17 UNL     1      29.131  -1.030  53.225  1.00  0.00     0.066 A 
ENDROOT
BRANCH   4   8
HETATM    8  C4  UNL     1      25.744  -0.448  53.295  1.00  0.00     0.013 C 
HETATM    9  C5  UNL     1      24.929   0.550  53.018  1.00  0.00    -0.011 C 
BRANCH   9  10
HETATM   10  C6  UNL     1      24.889   1.958  52.601  1.00  0.00     0.080 C 
BRANCH  10  11
HETATM   11  C7  UNL     1      25.498   2.164  51.237  1.00  0.00     0.104 C 
HETATM   12  N2  UNL     1      26.219   3.163  50.934  1.00  0.00    -0.258 NA
BRANCH  12  13
HETATM   13  C8  UNL     1      26.734   3.225  49.588  1.00  0.00     0.222 C 
HETATM   14  N3  UNL     1      27.383   4.331  49.396  1.00  0.00    -0.293 NA
HETATM   15  H6  UNL     1      27.513   5.062  50.108  1.00  0.00     0.187 HD
ENDBRANCH  12  13
ENDBRANCH  10  11
BRANCH  10  16
HETATM   16  C9  UNL     1      23.499   2.527  52.560  1.00  0.00    -0.034 C 
HETATM   17  C10 UNL     1      22.434   1.739  52.512  1.00  0.00     0.073 C 
HETATM   18  C13 UNL     1      21.031   2.243  52.472  1.00  0.00     0.232 C 
HETATM   19  O3  UNL     1      20.948   3.628  52.609  1.00  0.00    -0.384 OA
HETATM   20  C14 UNL     1      21.915   4.259  51.858  1.00  0.00     0.172 C 
HETATM   21  C15 UNL     1      23.246   3.992  52.575  1.00  0.00     0.064 C 
BRANCH  17  22
HETATM   22  O1  UNL     1      22.330   0.377  52.489  1.00  0.00    -0.351 OA
BRANCH  22  23
HETATM   23  C11 UNL     1      21.405  -0.471  53.043  1.00  0.00     0.201 C 
BRANCH  23  24
HETATM   24  C12 UNL     1      21.893  -1.311  54.190  1.00  0.00     0.190 C 
BRANCH  24  25
HETATM   25  O2  UNL     1      20.807  -1.785  54.929  1.00  0.00    -0.399 OA
HETATM   26  H11 UNL     1      19.942  -1.486  54.593  1.00  0.00     0.209 HD
ENDBRANCH  24  25
ENDBRANCH  23  24
ENDBRANCH  22  23
ENDBRANCH  17  22
ENDBRANCH  10  16
ENDBRANCH   9  10
ENDBRANCH   4   8
TORSDOF 9
ENDMDL
MODEL 7
REMARK VINA RESULT:      -6.8      2.642      4.165
REMARK  9 active torsions:
REMARK  status: ('A' for Active; 'I' for Inactive)
REMARK    1  A    between atoms: C3_4  and  C4_5 
REMARK    2  A    between atoms: C5_6  and  C6_7 
REMARK    3  A    between atoms: C6_7  and  C7_8 
REMARK    4  A    between atoms: C6_7  and  C9_12 
REMARK    5  A    between atoms: N2_9  and  C8_10 
REMARK    6  A    between atoms: C10_13  and  O1_14 
REMARK    7  A    between atoms: O1_14  and  C11_15 
REMARK    8  A    between atoms: C11_15  and  C12_16 
REMARK    9  A    between atoms: C12_16  and  O2_17 
ROOT
HETATM    1  N1  UNL     1      26.813  -2.156  52.464  1.00  0.00    -0.191 NA
HETATM    2  C1  UNL     1      27.393  -1.276  52.902  1.00  0.00     0.100 C 
HETATM    3  C2  UNL     1      28.111  -0.142  53.463  1.00  0.00     0.060 A 
HETATM    4  C3  UNL     1      27.606   1.043  53.847  1.00  0.00     0.023 A 
HETATM    5  C16 UNL     1      28.956   1.433  54.219  1.00  0.00     0.129 A 
HETATM    6  F1  UNL     1      29.768   2.386  54.724  1.00  0.00    -0.205 F 
HETATM    7  C17 UNL     1      29.447   0.271  53.841  1.00  0.00     0.066 A 
ENDROOT
BRANCH   4   8
HETATM    8  C4  UNL     1      26.363   1.786  53.938  1.00  0.00     0.013 C 
HETATM    9  C5  UNL     1      25.195   1.656  53.340  1.00  0.00    -0.011 C 
BRANCH   9  10
HETATM   10  C6  UNL     1      24.456   0.846  52.362  1.00  0.00     0.080 C 
BRANCH  10  11
HETATM   11  C7  UNL     1      23.632  -0.230  53.022  1.00  0.00     0.104 C 
HETATM   12  N2  UNL     1      23.219  -0.162  54.221  1.00  0.00    -0.258 NA
BRANCH  12  13
HETATM   13  C8  UNL     1      22.439  -1.268  54.718  1.00  0.00     0.222 C 
HETATM   14  N3  UNL     1      23.002  -1.793  55.762  1.00  0.00    -0.293 NA
HETATM   15  H6  UNL     1      23.883  -1.463  56.178  1.00  0.00     0.187 HD
ENDBRANCH  12  13
ENDBRANCH  10  11
BRANCH  10  16
HETATM   16  C9  UNL     1      23.528   1.654  51.501  1.00  0.00    -0.034 C 
HETATM   17  C10 UNL     1      23.953   2.729  50.851  1.00  0.00     0.073 C 
HETATM   18  C13 UNL     1      23.082   3.570  49.981  1.00  0.00     0.232 C 
HETATM   19  O3  UNL     1      21.801   3.044  49.826  1.00  0.00    -0.384 OA
HETATM   20  C14 UNL     1      21.308   2.575  51.024  1.00  0.00     0.172 C 
HETATM   21  C15 UNL     1      22.096   1.294  51.329  1.00  0.00     0.064 C 
BRANCH  17  22
HETATM   22  O1  UNL     1      25.188   3.313  50.800  1.00  0.00    -0.351 OA
BRANCH  22  23
HETATM   23  C11 UNL     1      26.270   3.073  49.992  1.00  0.00     0.201 C 
BRANCH  23  24
HETATM   24  C12 UNL     1      26.801   4.262  49.241  1.00  0.00     0.190 C 
BRANCH  24  25
HETATM   25  O2  UNL     1      26.595   5.426  49.985  1.00  0.00    -0.399 OA
HETATM   26  H11 UNL     1      27.212   5.530  50.733  1.00  0.00     0.209 HD
ENDBRANCH  24  25
ENDBRANCH  23  24
ENDBRANCH  22  23
ENDBRANCH  17  22
ENDBRANCH  10  16
ENDBRANCH   9  10
ENDBRANCH   4   8
TORSDOF 9
ENDMDL
MODEL 8
REMARK VINA RESULT:      -6.7      3.849      6.523
REMARK  9 active torsions:
REMARK  status: ('A' for Active; 'I' for Inactive)
REMARK    1  A    between atoms: C3_4  and  C4_5 
REMARK    2  A    between atoms: C5_6  and  C6_7 
REMARK    3  A    between atoms: C6_7  and  C7_8 
REMARK    4  A    between atoms: C6_7  and  C9_12 
REMARK    5  A    between atoms: N2_9  and  C8_10 
REMARK    6  A    between atoms: C10_13  and  O1_14 
REMARK    7  A    between atoms: O1_14  and  C11_15 
REMARK    8  A    between atoms: C11_15  and  C12_16 
REMARK    9  A    between atoms: C12_16  and  O2_17 
ROOT
HETATM    1  N1  UNL     1      24.990  -1.158  55.670  1.00  0.00    -0.191 NA
HETATM    2  C1  UNL     1      24.207  -0.927  54.873  1.00  0.00     0.100 C 
HETATM    3  C2  UNL     1      23.221  -0.610  53.852  1.00  0.00     0.060 A 
HETATM    4  C3  UNL     1      23.121   0.517  53.126  1.00  0.00     0.023 A 
HETATM    5  C16 UNL     1      21.964  -0.074  52.473  1.00  0.00     0.129 A 
HETATM    6  F1  UNL     1      20.980   0.060  51.559  1.00  0.00    -0.205 F 
HETATM    7  C17 UNL     1      22.066  -1.176  53.187  1.00  0.00     0.066 A 
ENDROOT
BRANCH   4   8
HETATM    8  C4  UNL     1      23.745   1.811  52.924  1.00  0.00     0.013 C 
HETATM    9  C5  UNL     1      24.855   2.186  52.320  1.00  0.00    -0.011 C 
BRANCH   9  10
HETATM   10  C6  UNL     1      26.019   1.686  51.574  1.00  0.00     0.080 C 
BRANCH  10  11
HETATM   11  C7  UNL     1      26.479   2.660  50.520  1.00  0.00     0.104 C 
HETATM   12  N2  UNL     1      25.963   3.808  50.351  1.00  0.00    -0.258 NA
BRANCH  12  13
HETATM   13  C8  UNL     1      26.509   4.632  49.302  1.00  0.00     0.222 C 
HETATM   14  N3  UNL     1      27.799   4.709  49.404  1.00  0.00    -0.293 NA
HETATM   15  H6  UNL     1      28.356   4.245  50.134  1.00  0.00     0.187 HD
ENDBRANCH  12  13
ENDBRANCH  10  11
BRANCH  10  16
HETATM   16  C9  UNL     1      27.200   1.383  52.450  1.00  0.00    -0.034 C 
HETATM   17  C10 UNL     1      27.420   0.160  52.912  1.00  0.00     0.073 C 
HETATM   18  C13 UNL     1      28.573  -0.203  53.783  1.00  0.00     0.232 C 
HETATM   19  O3  UNL     1      29.467   0.851  53.967  1.00  0.00    -0.384 OA
HETATM   20  C14 UNL     1      28.798   2.035  54.190  1.00  0.00     0.172 C 
HETATM   21  C15 UNL     1      28.182   2.429  52.841  1.00  0.00     0.064 C 
BRANCH  17  22
HETATM   22  O1  UNL     1      26.718  -1.000  52.738  1.00  0.00    -0.351 OA
BRANCH  22  23
HETATM   23  C11 UNL     1      27.115  -2.313  52.778  1.00  0.00     0.201 C 
BRANCH  23  24
HETATM   24  C12 UNL     1      28.598  -2.550  52.708  1.00  0.00     0.190 C 
BRANCH  24  25
HETATM   25  O2  UNL     1      28.948  -3.619  53.535  1.00  0.00    -0.399 OA
HETATM   26  H11 UNL     1      29.846  -3.966  53.372  1.00  0.00     0.209 HD
ENDBRANCH  24  25
ENDBRANCH  23  24
ENDBRANCH  22  23
ENDBRANCH  17  22
ENDBRANCH  10  16
ENDBRANCH   9  10
ENDBRANCH   4   8
TORSDOF 9
ENDMDL
MODEL 9
REMARK VINA RESULT:      -6.7      2.536      3.819
REMARK  9 active torsions:
REMARK  status: ('A' for Active; 'I' for Inactive)
REMARK    1  A    between atoms: C3_4  and  C4_5 
REMARK    2  A    between atoms: C5_6  and  C6_7 
REMARK    3  A    between atoms: C6_7  and  C7_8 
REMARK    4  A    between atoms: C6_7  and  C9_12 
REMARK    5  A    between atoms: N2_9  and  C8_10 
REMARK    6  A    between atoms: C10_13  and  O1_14 
REMARK    7  A    between atoms: O1_14  and  C11_15 
REMARK    8  A    between atoms: C11_15  and  C12_16 
REMARK    9  A    between atoms: C12_16  and  O2_17 
ROOT
HETATM    1  N1  UNL     1      25.161  -1.156  55.450  1.00  0.00    -0.191 NA
HETATM    2  C1  UNL     1      25.862  -0.381  54.993  1.00  0.00     0.100 C 
HETATM    3  C2  UNL     1      26.737   0.622  54.405  1.00  0.00     0.060 A 
HETATM    4  C3  UNL     1      26.386   1.792  53.843  1.00  0.00     0.023 A 
HETATM    5  C16 UNL     1      27.799   2.031  53.596  1.00  0.00     0.129 A 
HETATM    6  F1  UNL     1      28.744   2.853  53.093  1.00  0.00    -0.205 F 
HETATM    7  C17 UNL     1      28.138   0.884  54.148  1.00  0.00     0.066 A 
ENDROOT
BRANCH   4   8
HETATM    8  C4  UNL     1      25.233   2.614  53.528  1.00  0.00     0.013 C 
HETATM    9  C5  UNL     1      24.072   2.350  52.963  1.00  0.00    -0.011 C 
BRANCH   9  10
HETATM   10  C6  UNL     1      23.268   1.273  52.368  1.00  0.00     0.080 C 
BRANCH  10  11
HETATM   11  C7  UNL     1      22.437   0.550  53.398  1.00  0.00     0.104 C 
HETATM   12  N2  UNL     1      22.342  -0.714  53.462  1.00  0.00    -0.258 NA
BRANCH  12  13
HETATM   13  C8  UNL     1      21.510  -1.265  54.503  1.00  0.00     0.222 C 
HETATM   14  N3  UNL     1      22.207  -2.013  55.299  1.00  0.00    -0.293 NA
HETATM   15  H6  UNL     1      23.216  -2.188  55.201  1.00  0.00     0.187 HD
ENDBRANCH  12  13
ENDBRANCH  10  11
BRANCH  10  16
HETATM   16  C9  UNL     1      22.332   1.752  51.296  1.00  0.00    -0.034 C 
HETATM   17  C10 UNL     1      21.851   2.987  51.303  1.00  0.00     0.073 C 
HETATM   18  C13 UNL     1      20.922   3.522  50.267  1.00  0.00     0.232 C 
HETATM   19  O3  UNL     1      20.702   2.625  49.222  1.00  0.00    -0.384 OA
HETATM   20  C14 UNL     1      20.521   1.345  49.697  1.00  0.00     0.172 C 
HETATM   21  C15 UNL     1      21.902   0.875  50.175  1.00  0.00     0.064 C 
BRANCH  17  22
HETATM   22  O1  UNL     1      22.051   4.020  52.176  1.00  0.00    -0.351 OA
BRANCH  22  23
HETATM   23  C11 UNL     1      22.326   5.346  51.963  1.00  0.00     0.201 C 
BRANCH  23  24
HETATM   24  C12 UNL     1      23.722   5.658  51.500  1.00  0.00     0.190 C 
BRANCH  24  25
HETATM   25  O2  UNL     1      24.274   6.664  52.296  1.00  0.00    -0.399 OA
HETATM   26  H11 UNL     1      24.997   6.357  52.875  1.00  0.00     0.209 HD
ENDBRANCH  24  25
ENDBRANCH  23  24
ENDBRANCH  22  23
ENDBRANCH  17  22
ENDBRANCH  10  16
ENDBRANCH   9  10
ENDBRANCH   4   8
TORSDOF 9
ENDMDL
