MODEL 1
REMARK VINA RESULT:      -8.3      0.000      0.000
REMARK  5 active torsions:
REMARK  status: ('A' for Active; 'I' for Inactive)
REMARK    1  A    between atoms: N1_2  and  C1_3 
REMARK    2  A    between atoms: C3_6  and  C4_7 
REMARK       I    between atoms: C4_7  and  N3_9 
REMARK    3  A    between atoms: N3_9  and  C5_10 
REMARK    4  A    between atoms: N4_17  and  C12_18 
REMARK    5  A    between atoms: C12_18  and  C13_19 
ROOT
HETATM    1  C1  UNL     1      20.914  -0.213  53.503  1.00  0.00     0.175 A 
HETATM    2  C2  UNL     1      21.490  -1.267  54.057  1.00  0.00     0.141 A 
HETATM    3  N2  UNL     1      22.930  -1.366  54.062  1.00  0.00    -0.357 N 
HETATM    4  C3  UNL     1      23.719  -0.338  53.475  1.00  0.00     0.116 A 
HETATM    5  C11 UNL     1      23.116   0.691  52.935  1.00  0.00     0.128 A 
HETATM    6  N4  UNL     1      21.681   0.827  52.911  1.00  0.00    -0.332 N 
HETATM    7  H2  UNL     1      23.315  -2.220  54.514  1.00  0.00     0.165 HD
ENDROOT
BRANCH   4   8
HETATM    8  C4  UNL     1      25.164  -0.526  53.528  1.00  0.00     0.274 C 
HETATM    9  O2  UNL     1      25.672  -0.984  54.583  1.00  0.00    -0.266 OA
HETATM   10  N3  UNL     1      26.082  -0.238  52.484  1.00  0.00    -0.322 N 
HETATM   11  H3  UNL     1      25.688   0.143  51.597  1.00  0.00     0.169 HD
BRANCH  10  12
HETATM   12  C5  UNL     1      27.420  -0.550  52.895  1.00  0.00     0.035 A 
HETATM   13  C6  UNL     1      28.115   0.579  53.330  1.00  0.00     0.029 A 
HETATM   14  C7  UNL     1      29.432   0.487  53.771  1.00  0.00     0.002 A 
HETATM   15  C8  UNL     1      30.060  -0.755  53.775  1.00  0.00     0.000 A 
HETATM   16  C9  UNL     1      29.353  -1.849  53.343  1.00  0.00     0.002 A 
HETATM   17  C10 UNL     1      28.064  -1.770  52.908  1.00  0.00     0.029 A 
ENDBRANCH  10  12
ENDBRANCH   4   8
BRANCH   6  18
HETATM   18  C12 UNL     1      21.208   2.031  52.271  1.00  0.00     0.168 C 
BRANCH  18  19
HETATM   19  C13 UNL     1      21.583   2.078  50.836  1.00  0.00    -0.038 A 
HETATM   20  C14 UNL     1      21.187   1.029  50.014  1.00  0.00     0.009 A 
HETATM   21  C15 UNL     1      21.538   1.076  48.679  1.00  0.00     0.002 A 
HETATM   22  C16 UNL     1      22.269   2.134  48.144  1.00  0.00     0.024 A 
HETATM   23  C17 UNL     1      22.648   3.165  48.990  1.00  0.00     0.034 A 
HETATM   24 CL1  UNL     1      23.570   4.558  48.449  1.00  0.00    -0.084 Cl
HETATM   25  C18 UNL     1      22.315   3.156  50.337  1.00  0.00     0.032 A 
ENDBRANCH  18  19
ENDBRANCH   6  18
BRANCH   1  26
HETATM   26  N1  UNL     1      19.506  -0.035  53.454  1.00  0.00    -0.078 NA
HETATM   27  O1  UNL     1      18.809  -0.570  52.556  1.00  0.00    -0.059 OA
ENDBRANCH   1  26
TORSDOF 5
ENDMDL
MODEL 2
REMARK VINA RESULT:      -7.9      3.445      6.208
REMARK  5 active torsions:
REMARK  status: ('A' for Active; 'I' for Inactive)
REMARK    1  A    between atoms: N1_2  and  C1_3 
REMARK    2  A    between atoms: C3_6  and  C4_7 
REMARK       I    between atoms: C4_7  and  N3_9 
REMARK    3  A    between atoms: N3_9  and  C5_10 
REMARK    4  A    between atoms: N4_17  and  C12_18 
REMARK    5  A    between atoms: C12_18  and  C13_19 
ROOT
HETATM    1  C1  UNL     1      22.455  -0.484  53.071  1.00  0.00     0.175 A 
HETATM    2  C2  UNL     1      21.793   0.131  52.106  1.00  0.00     0.141 A 
HETATM    3  N2  UNL     1      22.423   1.219  51.397  1.00  0.00    -0.357 N 
HETATM    4  C3  UNL     1      23.743   1.624  51.737  1.00  0.00     0.116 A 
HETATM    5  C11 UNL     1      24.370   0.994  52.699  1.00  0.00     0.128 A 
HETATM    6  N4  UNL     1      23.776  -0.097  53.429  1.00  0.00    -0.332 N 
HETATM    7  H2  UNL     1      21.845   1.656  50.651  1.00  0.00     0.165 HD
ENDROOT
BRANCH   4   8
HETATM    8  C4  UNL     1      24.295   2.732  50.966  1.00  0.00     0.274 C 
HETATM    9  O2  UNL     1      23.782   3.003  49.851  1.00  0.00    -0.266 OA
HETATM   10  N3  UNL     1      25.381   3.560  51.355  1.00  0.00    -0.322 N 
HETATM   11  H3  UNL     1      25.827   3.358  52.276  1.00  0.00     0.169 HD
BRANCH  10  12
HETATM   12  C5  UNL     1      25.646   4.545  50.347  1.00  0.00     0.035 A 
HETATM   13  C6  UNL     1      26.805   4.264  49.624  1.00  0.00     0.029 A 
HETATM   14  C7  UNL     1      27.234   5.101  48.599  1.00  0.00     0.002 A 
HETATM   15  C8  UNL     1      26.490   6.237  48.295  1.00  0.00     0.000 A 
HETATM   16  C9  UNL     1      25.353   6.490  49.021  1.00  0.00     0.002 A 
HETATM   17  C10 UNL     1      24.924   5.677  50.027  1.00  0.00     0.029 A 
ENDBRANCH  10  12
ENDBRANCH   4   8
BRANCH   6  18
HETATM   18  C12 UNL     1      24.625  -0.662  54.450  1.00  0.00     0.168 C 
BRANCH  18  19
HETATM   19  C13 UNL     1      26.051  -0.671  54.040  1.00  0.00    -0.038 A 
HETATM   20  C14 UNL     1      26.473  -1.635  53.133  1.00  0.00     0.009 A 
HETATM   21  C15 UNL     1      27.802  -1.641  52.754  1.00  0.00     0.002 A 
HETATM   22  C16 UNL     1      28.715  -0.714  53.251  1.00  0.00     0.024 A 
HETATM   23  C17 UNL     1      28.262   0.236  54.154  1.00  0.00     0.034 A 
HETATM   24 CL1  UNL     1      29.305   1.461  54.858  1.00  0.00    -0.084 Cl
HETATM   25  C18 UNL     1      26.936   0.274  54.560  1.00  0.00     0.032 A 
ENDBRANCH  18  19
ENDBRANCH   6  18
BRANCH   1  26
HETATM   26  N1  UNL     1      21.913  -1.563  53.819  1.00  0.00    -0.078 NA
HETATM   27  O1  UNL     1      21.349  -1.375  54.925  1.00  0.00    -0.059 OA
ENDBRANCH   1  26
TORSDOF 5
ENDMDL
MODEL 3
REMARK VINA RESULT:      -7.8      2.873      4.082
REMARK  5 active torsions:
REMARK  status: ('A' for Active; 'I' for Inactive)
REMARK    1  A    between atoms: N1_2  and  C1_3 
REMARK    2  A    between atoms: C3_6  and  C4_7 
REMARK       I    between atoms: C4_7  and  N3_9 
REMARK    3  A    between atoms: N3_9  and  C5_10 
REMARK    4  A    between atoms: N4_17  and  C12_18 
REMARK    5  A    between atoms: C12_18  and  C13_19 
ROOT
HETATM    1  C1  UNL     1      22.274   3.521  51.710  1.00  0.00     0.175 A 
HETATM    2  C2  UNL     1      23.252   4.145  52.345  1.00  0.00     0.141 A 
HETATM    3  N2  UNL     1      24.481   3.439  52.622  1.00  0.00    -0.357 N 
HETATM    4  C3  UNL     1      24.633   2.084  52.216  1.00  0.00     0.116 A 
HETATM    5  C11 UNL     1      23.644   1.497  51.590  1.00  0.00     0.128 A 
HETATM    6  N4  UNL     1      22.404   2.168  51.294  1.00  0.00    -0.332 N 
HETATM    7  H2  UNL     1      25.206   3.991  53.123  1.00  0.00     0.165 HD
ENDROOT
BRANCH   4   8
HETATM    8  C4  UNL     1      25.908   1.455  52.540  1.00  0.00     0.274 C 
HETATM    9  O2  UNL     1      26.912   1.733  51.837  1.00  0.00    -0.266 OA
HETATM   10  N3  UNL     1      26.140   0.537  53.598  1.00  0.00    -0.322 N 
HETATM   11  H3  UNL     1      25.325   0.288  54.199  1.00  0.00     0.169 HD
BRANCH  10  12
HETATM   12  C5  UNL     1      27.515   0.128  53.613  1.00  0.00     0.035 A 
HETATM   13  C6  UNL     1      27.684  -1.176  53.149  1.00  0.00     0.029 A 
HETATM   14  C7  UNL     1      28.946  -1.759  53.085  1.00  0.00     0.002 A 
HETATM   15  C8  UNL     1      30.054  -1.022  53.494  1.00  0.00     0.000 A 
HETATM   16  C9  UNL     1      29.859   0.259  53.946  1.00  0.00     0.002 A 
HETATM   17  C10 UNL     1      28.628   0.839  54.013  1.00  0.00     0.029 A 
ENDBRANCH  10  12
ENDBRANCH   4   8
BRANCH   6  18
HETATM   18  C12 UNL     1      21.437   1.352  50.598  1.00  0.00     0.168 C 
BRANCH  18  19
HETATM   19  C13 UNL     1      20.618   0.545  51.536  1.00  0.00    -0.038 A 
HETATM   20  C14 UNL     1      19.247   0.472  51.323  1.00  0.00     0.009 A 
HETATM   21  C15 UNL     1      18.487  -0.279  52.198  1.00  0.00     0.002 A 
HETATM   22  C16 UNL     1      19.055  -0.957  53.275  1.00  0.00     0.024 A 
HETATM   23  C17 UNL     1      20.426  -0.864  53.460  1.00  0.00     0.034 A 
HETATM   24 CL1  UNL     1      21.271  -1.666  54.774  1.00  0.00    -0.084 Cl
HETATM   25  C18 UNL     1      21.224  -0.120  52.603  1.00  0.00     0.032 A 
ENDBRANCH  18  19
ENDBRANCH   6  18
BRANCH   1  26
HETATM   26  N1  UNL     1      21.034   4.139  51.396  1.00  0.00    -0.078 NA
HETATM   27  O1  UNL     1      20.027   3.995  52.132  1.00  0.00    -0.059 OA
ENDBRANCH   1  26
TORSDOF 5
ENDMDL
MODEL 4
REMARK VINA RESULT:      -7.8      2.549      3.363
REMARK  5 active torsions:
REMARK  status: ('A' for Active; 'I' for Inactive)
REMARK    1  A    between atoms: N1_2  and  C1_3 
REMARK    2  A    between atoms: C3_6  and  C4_7 
REMARK       I    between atoms: C4_7  and  N3_9 
REMARK    3  A    between atoms: N3_9  and  C5_10 
REMARK    4  A    between atoms: N4_17  and  C12_18 
REMARK    5  A    between atoms: C12_18  and  C13_19 
ROOT
HETATM    1  C1  UNL     1      21.683   2.526  51.769  1.00  0.00     0.175 A 
HETATM    2  C2  UNL     1      21.832   1.664  52.761  1.00  0.00     0.141 A 
HETATM    3  N2  UNL     1      23.115   1.034  52.965  1.00  0.00    -0.357 N 
HETATM    4  C3  UNL     1      24.205   1.339  52.105  1.00  0.00     0.116 A 
HETATM    5  C11 UNL     1      24.023   2.196  51.132  1.00  0.00     0.128 A 
HETATM    6  N4  UNL     1      22.759   2.846  50.896  1.00  0.00    -0.332 N 
HETATM    7  H2  UNL     1      23.160   0.369  53.763  1.00  0.00     0.165 HD
ENDROOT
BRANCH   4   8
HETATM    8  C4  UNL     1      25.460   0.653  52.389  1.00  0.00     0.274 C 
HETATM    9  O2  UNL     1      26.423   0.805  51.595  1.00  0.00    -0.266 OA
HETATM   10  N3  UNL     1      25.715  -0.192  53.502  1.00  0.00    -0.322 N 
HETATM   11  H3  UNL     1      24.935  -0.337  54.178  1.00  0.00     0.169 HD
BRANCH  10  12
HETATM   12  C5  UNL     1      27.060  -0.690  53.453  1.00  0.00     0.035 A 
HETATM   13  C6  UNL     1      27.971   0.190  54.037  1.00  0.00     0.029 A 
HETATM   14  C7  UNL     1      29.329  -0.111  54.091  1.00  0.00     0.002 A 
HETATM   15  C8  UNL     1      29.778  -1.312  53.550  1.00  0.00     0.000 A 
HETATM   16  C9  UNL     1      28.861  -2.160  52.982  1.00  0.00     0.002 A 
HETATM   17  C10 UNL     1      27.529  -1.874  52.924  1.00  0.00     0.029 A 
ENDBRANCH  10  12
ENDBRANCH   4   8
BRANCH   6  18
HETATM   18  C12 UNL     1      22.758   3.758  49.777  1.00  0.00     0.168 C 
BRANCH  18  19
HETATM   19  C13 UNL     1      23.714   4.875  49.974  1.00  0.00    -0.038 A 
HETATM   20  C14 UNL     1      23.406   5.851  50.915  1.00  0.00     0.009 A 
HETATM   21  C15 UNL     1      24.297   6.891  51.096  1.00  0.00     0.002 A 
HETATM   22  C16 UNL     1      25.482   6.983  50.368  1.00  0.00     0.024 A 
HETATM   23  C17 UNL     1      25.760   5.993  49.438  1.00  0.00     0.034 A 
HETATM   24 CL1  UNL     1      27.215   5.986  48.454  1.00  0.00    -0.084 Cl
HETATM   25  C18 UNL     1      24.890   4.933  49.226  1.00  0.00     0.032 A 
ENDBRANCH  18  19
ENDBRANCH   6  18
BRANCH   1  26
HETATM   26  N1  UNL     1      20.458   3.191  51.496  1.00  0.00    -0.078 NA
HETATM   27  O1  UNL     1      19.540   3.250  52.351  1.00  0.00    -0.059 OA
ENDBRANCH   1  26
TORSDOF 5
ENDMDL
MODEL 5
REMARK VINA RESULT:      -7.6      4.463      6.419
REMARK  5 active torsions:
REMARK  status: ('A' for Active; 'I' for Inactive)
REMARK    1  A    between atoms: N1_2  and  C1_3 
REMARK    2  A    between atoms: C3_6  and  C4_7 
REMARK       I    between atoms: C4_7  and  N3_9 
REMARK    3  A    between atoms: N3_9  and  C5_10 
REMARK    4  A    between atoms: N4_17  and  C12_18 
REMARK    5  A    between atoms: C12_18  and  C13_19 
ROOT
HETATM    1  C1  UNL     1      21.520   3.773  52.032  1.00  0.00     0.175 A 
HETATM    2  C2  UNL     1      21.837   5.051  52.147  1.00  0.00     0.141 A 
HETATM    3  N2  UNL     1      23.004   5.555  51.463  1.00  0.00    -0.357 N 
HETATM    4  C3  UNL     1      23.804   4.682  50.676  1.00  0.00     0.116 A 
HETATM    5  C11 UNL     1      23.462   3.421  50.585  1.00  0.00     0.128 A 
HETATM    6  N4  UNL     1      22.304   2.881  51.251  1.00  0.00    -0.332 N 
HETATM    7  H2  UNL     1      23.193   6.569  51.598  1.00  0.00     0.165 HD
ENDROOT
BRANCH   4   8
HETATM    8  C4  UNL     1      24.962   5.282  50.024  1.00  0.00     0.274 C 
HETATM    9  O2  UNL     1      25.394   6.381  50.457  1.00  0.00    -0.266 OA
HETATM   10  N3  UNL     1      25.674   4.740  48.922  1.00  0.00    -0.322 N 
HETATM   11  H3  UNL     1      25.339   3.828  48.542  1.00  0.00     0.169 HD
BRANCH  10  12
HETATM   12  C5  UNL     1      26.755   5.606  48.549  1.00  0.00     0.035 A 
HETATM   13  C6  UNL     1      27.993   4.969  48.629  1.00  0.00     0.029 A 
HETATM   14  C7  UNL     1      29.169   5.641  48.307  1.00  0.00     0.002 A 
HETATM   15  C8  UNL     1      29.100   6.970  47.901  1.00  0.00     0.000 A 
HETATM   16  C9  UNL     1      27.869   7.572  47.832  1.00  0.00     0.002 A 
HETATM   17  C10 UNL     1      26.712   6.924  48.145  1.00  0.00     0.029 A 
ENDBRANCH  10  12
ENDBRANCH   4   8
BRANCH   6  18
HETATM   18  C12 UNL     1      22.094   1.470  51.027  1.00  0.00     0.168 C 
BRANCH  18  19
HETATM   19  C13 UNL     1      22.539   0.655  52.184  1.00  0.00    -0.038 A 
HETATM   20  C14 UNL     1      21.590  -0.091  52.873  1.00  0.00     0.009 A 
HETATM   21  C15 UNL     1      22.007  -0.848  53.950  1.00  0.00     0.002 A 
HETATM   22  C16 UNL     1      23.340  -0.881  54.357  1.00  0.00     0.024 A 
HETATM   23  C17 UNL     1      24.262  -0.126  53.649  1.00  0.00     0.034 A 
HETATM   24 CL1  UNL     1      25.970  -0.075  54.054  1.00  0.00    -0.084 Cl
HETATM   25  C18 UNL     1      23.882   0.648  52.562  1.00  0.00     0.032 A 
ENDBRANCH  18  19
ENDBRANCH   6  18
BRANCH   1  26
HETATM   26  N1  UNL     1      20.391   3.193  52.669  1.00  0.00    -0.078 NA
HETATM   27  O1  UNL     1      19.223   3.421  52.266  1.00  0.00    -0.059 OA
ENDBRANCH   1  26
TORSDOF 5
ENDMDL
MODEL 6
REMARK VINA RESULT:      -7.3      4.612      5.758
REMARK  5 active torsions:
REMARK  status: ('A' for Active; 'I' for Inactive)
REMARK    1  A    between atoms: N1_2  and  C1_3 
REMARK    2  A    between atoms: C3_6  and  C4_7 
REMARK       I    between atoms: C4_7  and  N3_9 
REMARK    3  A    between atoms: N3_9  and  C5_10 
REMARK    4  A    between atoms: N4_17  and  C12_18 
REMARK    5  A    between atoms: C12_18  and  C13_19 
ROOT
HETATM    1  C1  UNL     1      23.583   5.600  50.982  1.00  0.00     0.175 A 
HETATM    2  C2  UNL     1      23.445   4.967  52.135  1.00  0.00     0.141 A 
HETATM    3  N2  UNL     1      24.323   3.866  52.449  1.00  0.00    -0.357 N 
HETATM    4  C3  UNL     1      25.328   3.467  51.524  1.00  0.00     0.116 A 
HETATM    5  C11 UNL     1      25.438   4.116  50.392  1.00  0.00     0.128 A 
HETATM    6  N4  UNL     1      24.580   5.220  50.042  1.00  0.00    -0.332 N 
HETATM    7  H2  UNL     1      24.157   3.415  53.371  1.00  0.00     0.165 HD
ENDROOT
BRANCH   4   8
HETATM    8  C4  UNL     1      26.167   2.346  51.929  1.00  0.00     0.274 C 
HETATM    9  O2  UNL     1      26.807   1.723  51.044  1.00  0.00    -0.266 OA
HETATM   10  N3  UNL     1      26.341   1.870  53.256  1.00  0.00    -0.322 N 
HETATM   11  H3  UNL     1      25.821   2.368  54.011  1.00  0.00     0.169 HD
BRANCH  10  12
HETATM   12  C5  UNL     1      27.238   0.752  53.272  1.00  0.00     0.035 A 
HETATM   13  C6  UNL     1      28.546   1.128  53.578  1.00  0.00     0.029 A 
HETATM   14  C7  UNL     1      29.569   0.186  53.644  1.00  0.00     0.002 A 
HETATM   15  C8  UNL     1      29.274  -1.152  53.399  1.00  0.00     0.000 A 
HETATM   16  C9  UNL     1      27.980  -1.495  53.101  1.00  0.00     0.002 A 
HETATM   17  C10 UNL     1      26.971  -0.581  53.033  1.00  0.00     0.029 A 
ENDBRANCH  10  12
ENDBRANCH   4   8
BRANCH   6  18
HETATM   18  C12 UNL     1      24.859   5.804  48.752  1.00  0.00     0.168 C 
BRANCH  18  19
HETATM   19  C13 UNL     1      26.152   6.530  48.742  1.00  0.00    -0.038 A 
HETATM   20  C14 UNL     1      26.168   7.861  49.142  1.00  0.00     0.009 A 
HETATM   21  C15 UNL     1      27.374   8.534  49.131  1.00  0.00     0.002 A 
HETATM   22  C16 UNL     1      28.559   7.919  48.734  1.00  0.00     0.024 A 
HETATM   23  C17 UNL     1      28.511   6.590  48.342  1.00  0.00     0.034 A 
HETATM   24 CL1  UNL     1      29.927   5.694  47.819  1.00  0.00    -0.084 Cl
HETATM   25  C18 UNL     1      27.319   5.879  48.339  1.00  0.00     0.032 A 
ENDBRANCH  18  19
ENDBRANCH   6  18
BRANCH   1  26
HETATM   26  N1  UNL     1      22.764   6.692  50.592  1.00  0.00    -0.078 NA
HETATM   27  O1  UNL     1      21.707   6.971  51.211  1.00  0.00    -0.059 OA
ENDBRANCH   1  26
TORSDOF 5
ENDMDL
MODEL 7
REMARK VINA RESULT:      -7.3      4.223      6.836
REMARK  5 active torsions:
REMARK  status: ('A' for Active; 'I' for Inactive)
REMARK    1  A    between atoms: N1_2  and  C1_3 
REMARK    2  A    between atoms: C3_6  and  C4_7 
REMARK       I    between atoms: C4_7  and  N3_9 
REMARK    3  A    between atoms: N3_9  and  C5_10 
REMARK    4  A    between atoms: N4_17  and  C12_18 
REMARK    5  A    between atoms: C12_18  and  C13_19 
ROOT
HETATM    1  C1  UNL     1      22.510   1.229  51.183  1.00  0.00     0.175 A 
HETATM    2  C2  UNL     1      22.211   1.752  50.006  1.00  0.00     0.141 A 
HETATM    3  N2  UNL     1      22.946   2.901  49.534  1.00  0.00    -0.357 N 
HETATM    4  C3  UNL     1      23.981   3.464  50.331  1.00  0.00     0.116 A 
HETATM    5  C11 UNL     1      24.251   2.921  51.492  1.00  0.00     0.128 A 
HETATM    6  N4  UNL     1      23.541   1.774  51.997  1.00  0.00    -0.332 N 
HETATM    7  H2  UNL     1      22.658   3.259  48.601  1.00  0.00     0.165 HD
ENDROOT
BRANCH   4   8
HETATM    8  C4  UNL     1      24.666   4.622  49.771  1.00  0.00     0.274 C 
HETATM    9  O2  UNL     1      24.239   5.112  48.695  1.00  0.00    -0.266 OA
HETATM   10  N3  UNL     1      25.797   5.274  50.331  1.00  0.00    -0.322 N 
HETATM   11  H3  UNL     1      26.173   4.890  51.224  1.00  0.00     0.169 HD
BRANCH  10  12
HETATM   12  C5  UNL     1      26.199   6.376  49.505  1.00  0.00     0.035 A 
HETATM   13  C6  UNL     1      25.720   7.596  49.982  1.00  0.00     0.029 A 
HETATM   14  C7  UNL     1      26.001   8.788  49.320  1.00  0.00     0.002 A 
HETATM   15  C8  UNL     1      26.773   8.753  48.163  1.00  0.00     0.000 A 
HETATM   16  C9  UNL     1      27.231   7.540  47.715  1.00  0.00     0.002 A 
HETATM   17  C10 UNL     1      26.962   6.368  48.355  1.00  0.00     0.029 A 
ENDBRANCH  10  12
ENDBRANCH   4   8
BRANCH   6  18
HETATM   18  C12 UNL     1      23.985   1.323  53.295  1.00  0.00     0.168 C 
BRANCH  18  19
HETATM   19  C13 UNL     1      25.388   0.843  53.262  1.00  0.00    -0.038 A 
HETATM   20  C14 UNL     1      25.628  -0.476  52.893  1.00  0.00     0.009 A 
HETATM   21  C15 UNL     1      26.935  -0.920  52.864  1.00  0.00     0.002 A 
HETATM   22  C16 UNL     1      28.005  -0.089  53.191  1.00  0.00     0.024 A 
HETATM   23  C17 UNL     1      27.732   1.221  53.555  1.00  0.00     0.034 A 
HETATM   24 CL1  UNL     1      28.984   2.373  53.991  1.00  0.00    -0.084 Cl
HETATM   25  C18 UNL     1      26.433   1.705  53.596  1.00  0.00     0.032 A 
ENDBRANCH  18  19
ENDBRANCH   6  18
BRANCH   1  26
HETATM   26  N1  UNL     1      21.839   0.100  51.724  1.00  0.00    -0.078 NA
HETATM   27  O1  UNL     1      20.705   0.204  52.254  1.00  0.00    -0.059 OA
ENDBRANCH   1  26
TORSDOF 5
ENDMDL
MODEL 8
REMARK VINA RESULT:      -7.2      6.297      8.181
REMARK  5 active torsions:
REMARK  status: ('A' for Active; 'I' for Inactive)
REMARK    1  A    between atoms: N1_2  and  C1_3 
REMARK    2  A    between atoms: C3_6  and  C4_7 
REMARK       I    between atoms: C4_7  and  N3_9 
REMARK    3  A    between atoms: N3_9  and  C5_10 
REMARK    4  A    between atoms: N4_17  and  C12_18 
REMARK    5  A    between atoms: C12_18  and  C13_19 
ROOT
HETATM    1  C1  UNL     1      25.267   8.150  49.725  1.00  0.00     0.175 A 
HETATM    2  C2  UNL     1      24.526   7.971  50.806  1.00  0.00     0.141 A 
HETATM    3  N2  UNL     1      24.308   6.634  51.303  1.00  0.00    -0.357 N 
HETATM    4  C3  UNL     1      24.885   5.520  50.632  1.00  0.00     0.116 A 
HETATM    5  C11 UNL     1      25.612   5.732  49.564  1.00  0.00     0.128 A 
HETATM    6  N4  UNL     1      25.854   7.052  49.039  1.00  0.00    -0.332 N 
HETATM    7  H2  UNL     1      23.717   6.568  52.156  1.00  0.00     0.165 HD
ENDROOT
BRANCH   4   8
HETATM    8  C4  UNL     1      24.609   4.209  51.208  1.00  0.00     0.274 C 
HETATM    9  O2  UNL     1      24.556   3.214  50.441  1.00  0.00    -0.266 OA
HETATM   10  N3  UNL     1      24.388   3.931  52.583  1.00  0.00    -0.322 N 
HETATM   11  H3  UNL     1      24.426   4.738  53.243  1.00  0.00     0.169 HD
BRANCH  10  12
HETATM   12  C5  UNL     1      24.148   2.530  52.777  1.00  0.00     0.035 A 
HETATM   13  C6  UNL     1      25.290   1.853  53.203  1.00  0.00     0.029 A 
HETATM   14  C7  UNL     1      25.263   0.483  53.449  1.00  0.00     0.002 A 
HETATM   15  C8  UNL     1      24.074  -0.216  53.264  1.00  0.00     0.000 A 
HETATM   16  C9  UNL     1      22.965   0.476  52.844  1.00  0.00     0.002 A 
HETATM   17  C10 UNL     1      22.980   1.816  52.600  1.00  0.00     0.029 A 
ENDBRANCH  10  12
ENDBRANCH   4   8
BRANCH   6  18
HETATM   18  C12 UNL     1      26.680   7.079  47.855  1.00  0.00     0.168 C 
BRANCH  18  19
HETATM   19  C13 UNL     1      28.124   7.013  48.189  1.00  0.00    -0.038 A 
HETATM   20  C14 UNL     1      28.771   5.787  48.093  1.00  0.00     0.009 A 
HETATM   21  C15 UNL     1      30.115   5.729  48.405  1.00  0.00     0.002 A 
HETATM   22  C16 UNL     1      30.829   6.856  48.807  1.00  0.00     0.024 A 
HETATM   23  C17 UNL     1      30.155   8.065  48.891  1.00  0.00     0.034 A 
HETATM   24 CL1  UNL     1      30.932   9.561  49.383  1.00  0.00    -0.084 Cl
HETATM   25  C18 UNL     1      28.805   8.164  48.587  1.00  0.00     0.032 A 
ENDBRANCH  18  19
ENDBRANCH   6  18
BRANCH   1  26
HETATM   26  N1  UNL     1      25.533   9.429  49.169  1.00  0.00    -0.078 NA
HETATM   27  O1  UNL     1      26.316  10.236  49.729  1.00  0.00    -0.059 OA
ENDBRANCH   1  26
TORSDOF 5
ENDMDL
MODEL 9
REMARK VINA RESULT:      -7.0      3.789      4.990
REMARK  5 active torsions:
REMARK  status: ('A' for Active; 'I' for Inactive)
REMARK    1  A    between atoms: N1_2  and  C1_3 
REMARK    2  A    between atoms: C3_6  and  C4_7 
REMARK       I    between atoms: C4_7  and  N3_9 
REMARK    3  A    between atoms: N3_9  and  C5_10 
REMARK    4  A    between atoms: N4_17  and  C12_18 
REMARK    5  A    between atoms: C12_18  and  C13_19 
ROOT
HETATM    1  C1  UNL     1      22.023   4.687  50.944  1.00  0.00     0.175 A 
HETATM    2  C2  UNL     1      21.921   3.963  52.045  1.00  0.00     0.141 A 
HETATM    3  N2  UNL     1      23.080   3.258  52.540  1.00  0.00    -0.357 N 
HETATM    4  C3  UNL     1      24.318   3.343  51.845  1.00  0.00     0.116 A 
HETATM    5  C11 UNL     1      24.384   4.069  50.757  1.00  0.00     0.128 A 
HETATM    6  N4  UNL     1      23.250   4.788  50.233  1.00  0.00    -0.332 N 
HETATM    7  H2  UNL     1      22.927   2.708  53.409  1.00  0.00     0.165 HD
ENDROOT
BRANCH   4   8
HETATM    8  C4  UNL     1      25.430   2.596  52.420  1.00  0.00     0.274 C 
HETATM    9  O2  UNL     1      25.360   2.245  53.625  1.00  0.00    -0.266 OA
HETATM   10  N3  UNL     1      26.617   2.213  51.742  1.00  0.00    -0.322 N 
HETATM   11  H3  UNL     1      26.703   2.491  50.740  1.00  0.00     0.169 HD
BRANCH  10  12
HETATM   12  C5  UNL     1      27.487   1.491  52.624  1.00  0.00     0.035 A 
HETATM   13  C6  UNL     1      27.287   0.112  52.552  1.00  0.00     0.029 A 
HETATM   14  C7  UNL     1      28.035  -0.765  53.333  1.00  0.00     0.002 A 
HETATM   15  C8  UNL     1      28.996  -0.251  54.198  1.00  0.00     0.000 A 
HETATM   16  C9  UNL     1      29.172   1.109  54.249  1.00  0.00     0.002 A 
HETATM   17  C10 UNL     1      28.445   1.977  53.490  1.00  0.00     0.029 A 
ENDBRANCH  10  12
ENDBRANCH   4   8
BRANCH   6  18
HETATM   18  C12 UNL     1      23.524   5.531  49.026  1.00  0.00     0.168 C 
BRANCH  18  19
HETATM   19  C13 UNL     1      24.690   6.433  49.185  1.00  0.00    -0.038 A 
HETATM   20  C14 UNL     1      24.539   7.582  49.953  1.00  0.00     0.009 A 
HETATM   21  C15 UNL     1      25.626   8.421  50.100  1.00  0.00     0.002 A 
HETATM   22  C16 UNL     1      26.856   8.146  49.504  1.00  0.00     0.024 A 
HETATM   23  C17 UNL     1      26.975   6.992  48.745  1.00  0.00     0.034 A 
HETATM   24 CL1  UNL     1      28.464   6.525  47.940  1.00  0.00    -0.084 Cl
HETATM   25  C18 UNL     1      25.906   6.124  48.574  1.00  0.00     0.032 A 
ENDBRANCH  18  19
ENDBRANCH   6  18
BRANCH   1  26
HETATM   26  N1  UNL     1      20.936   5.413  50.388  1.00  0.00    -0.078 NA
HETATM   27  O1  UNL     1      20.020   4.835  49.754  1.00  0.00    -0.059 OA
ENDBRANCH   1  26
TORSDOF 5
ENDMDL
