MODEL 1
REMARK VINA RESULT:      -8.4      0.000      0.000
REMARK  5 active torsions:
REMARK  status: ('A' for Active; 'I' for Inactive)
REMARK    1  A    between atoms: C3_3  and  O1_4 
REMARK    2  A    between atoms: O1_4  and  C4_5 
REMARK    3  A    between atoms: C7_8  and  N1_9 
REMARK    4  A    between atoms: N1_9  and  C8_10 
REMARK    5  A    between atoms: C17_23  and  O2_24 
ROOT
HETATM    1  C1  UNL     1      23.096   3.271  49.151  1.00  0.00     0.014 C 
HETATM    2  C2  UNL     1      22.369   2.315  49.183  1.00  0.00    -0.091 C 
HETATM    3  C3  UNL     1      21.488   1.129  49.203  1.00  0.00     0.268 C 
ENDROOT
BRANCH   3   4
HETATM    4  O1  UNL     1      20.698   1.168  50.348  1.00  0.00    -0.337 OA
BRANCH   4   5
HETATM    5  C4  UNL     1      21.060   0.555  51.523  1.00  0.00     0.104 A 
HETATM    6  C5  UNL     1      22.339   0.405  52.013  1.00  0.00     0.057 A 
HETATM    7  C6  UNL     1      22.663  -0.218  53.199  1.00  0.00     0.042 A 
HETATM    8  C7  UNL     1      23.950  -0.351  53.662  1.00  0.00     0.142 A 
HETATM    9  C15 UNL     1      21.572  -0.693  53.876  1.00  0.00     0.075 A 
HETATM   10  N2  UNL     1      24.024  -0.988  54.830  1.00  0.00    -0.224 NA
HETATM   11  C14 UNL     1      23.020  -1.481  55.555  1.00  0.00     0.236 A 
HETATM   12  N3  UNL     1      21.764  -1.322  55.051  1.00  0.00    -0.241 NA
HETATM   13  C16 UNL     1      20.281  -0.584  53.459  1.00  0.00     0.072 A 
HETATM   14  C17 UNL     1      19.999   0.049  52.261  1.00  0.00     0.103 A 
BRANCH   8  15
HETATM   15  N1  UNL     1      25.018   0.157  52.927  1.00  0.00    -0.340 N 
HETATM   16  H5  UNL     1      24.874   0.746  52.109  1.00  0.00     0.167 HD
BRANCH  15  17
HETATM   17  C8  UNL     1      26.415  -0.012  53.130  1.00  0.00     0.035 A 
HETATM   18  C9  UNL     1      27.055  -1.191  52.821  1.00  0.00     0.032 A 
HETATM   19  C10 UNL     1      28.403  -1.411  53.000  1.00  0.00     0.046 A 
HETATM   20  C11 UNL     1      29.198  -0.434  53.513  1.00  0.00     0.138 A 
HETATM   21  F1  UNL     1      30.530  -0.548  53.728  1.00  0.00    -0.204 F 
HETATM   22  C12 UNL     1      28.610   0.757  53.836  1.00  0.00     0.074 A 
HETATM   23 CL1  UNL     1      29.558   2.063  54.499  1.00  0.00    -0.081 Cl
HETATM   24  C13 UNL     1      27.260   0.928  53.638  1.00  0.00     0.056 A 
ENDBRANCH  15  17
ENDBRANCH   8  15
BRANCH  14  25
HETATM   25  O2  UNL     1      18.688   0.157  51.842  1.00  0.00    -0.353 OA
HETATM   26  C18 UNL     1      17.757  -0.814  52.280  1.00  0.00     0.210 C 
ENDBRANCH  14  25
ENDBRANCH   4   5
ENDBRANCH   3   4
TORSDOF 5
ENDMDL
MODEL 2
REMARK VINA RESULT:      -8.1      2.208      3.329
REMARK  5 active torsions:
REMARK  status: ('A' for Active; 'I' for Inactive)
REMARK    1  A    between atoms: C3_3  and  O1_4 
REMARK    2  A    between atoms: O1_4  and  C4_5 
REMARK    3  A    between atoms: C7_8  and  N1_9 
REMARK    4  A    between atoms: N1_9  and  C8_10 
REMARK    5  A    between atoms: C17_23  and  O2_24 
ROOT
HETATM    1  C1  UNL     1      26.817   5.458  48.931  1.00  0.00     0.014 C 
HETATM    2  C2  UNL     1      25.678   5.263  49.259  1.00  0.00    -0.091 C 
HETATM    3  C3  UNL     1      24.275   5.049  49.670  1.00  0.00     0.268 C 
ENDROOT
BRANCH   3   4
HETATM    4  O1  UNL     1      23.844   3.814  49.195  1.00  0.00    -0.337 OA
BRANCH   4   5
HETATM    5  C4  UNL     1      23.438   2.798  50.024  1.00  0.00     0.104 A 
HETATM    6  C5  UNL     1      24.117   2.308  51.119  1.00  0.00     0.057 A 
HETATM    7  C6  UNL     1      23.676   1.284  51.929  1.00  0.00     0.042 A 
HETATM    8  C7  UNL     1      24.376   0.817  53.015  1.00  0.00     0.142 A 
HETATM    9  C15 UNL     1      22.464   0.774  51.545  1.00  0.00     0.075 A 
HETATM   10  N2  UNL     1      23.757  -0.178  53.651  1.00  0.00    -0.224 NA
HETATM   11  C14 UNL     1      22.583  -0.733  53.349  1.00  0.00     0.236 A 
HETATM   12  N3  UNL     1      21.930  -0.233  52.262  1.00  0.00    -0.241 NA
HETATM   13  C16 UNL     1      21.735   1.203  50.479  1.00  0.00     0.072 A 
HETATM   14  C17 UNL     1      22.214   2.234  49.692  1.00  0.00     0.103 A 
BRANCH   8  15
HETATM   15  N1  UNL     1      25.603   1.381  53.357  1.00  0.00    -0.340 N 
HETATM   16  H5  UNL     1      25.695   2.370  53.579  1.00  0.00     0.167 HD
BRANCH  15  17
HETATM   17  C8  UNL     1      26.880   0.765  53.463  1.00  0.00     0.035 A 
HETATM   18  C9  UNL     1      28.000   1.478  53.829  1.00  0.00     0.032 A 
HETATM   19  C10 UNL     1      29.261   0.934  53.945  1.00  0.00     0.046 A 
HETATM   20  C11 UNL     1      29.468  -0.386  53.691  1.00  0.00     0.138 A 
HETATM   21  F1  UNL     1      30.663  -1.016  53.776  1.00  0.00    -0.204 F 
HETATM   22  C12 UNL     1      28.386  -1.137  53.324  1.00  0.00     0.074 A 
HETATM   23 CL1  UNL     1      28.565  -2.839  52.981  1.00  0.00    -0.081 Cl
HETATM   24  C13 UNL     1      27.148  -0.548  53.223  1.00  0.00     0.056 A 
ENDBRANCH  15  17
ENDBRANCH   8  15
BRANCH  14  25
HETATM   25  O2  UNL     1      21.471   2.666  48.611  1.00  0.00    -0.353 OA
HETATM   26  C18 UNL     1      20.329   3.466  48.853  1.00  0.00     0.210 C 
ENDBRANCH  14  25
ENDBRANCH   4   5
ENDBRANCH   3   4
TORSDOF 5
ENDMDL
MODEL 3
REMARK VINA RESULT:      -8.0      3.944      6.187
REMARK  5 active torsions:
REMARK  status: ('A' for Active; 'I' for Inactive)
REMARK    1  A    between atoms: C3_3  and  O1_4 
REMARK    2  A    between atoms: O1_4  and  C4_5 
REMARK    3  A    between atoms: C7_8  and  N1_9 
REMARK    4  A    between atoms: N1_9  and  C8_10 
REMARK    5  A    between atoms: C17_23  and  O2_24 
ROOT
HETATM    1  C1  UNL     1      26.351   3.392  49.467  1.00  0.00     0.014 C 
HETATM    2  C2  UNL     1      26.631   2.904  50.528  1.00  0.00    -0.091 C 
HETATM    3  C3  UNL     1      26.982   2.328  51.843  1.00  0.00     0.268 C 
ENDROOT
BRANCH   3   4
HETATM    4  O1  UNL     1      26.631   0.981  51.858  1.00  0.00    -0.337 OA
BRANCH   4   5
HETATM    5  C4  UNL     1      25.546   0.503  52.550  1.00  0.00     0.104 A 
HETATM    6  C5  UNL     1      24.253   0.976  52.483  1.00  0.00     0.057 A 
HETATM    7  C6  UNL     1      23.188   0.468  53.195  1.00  0.00     0.042 A 
HETATM    8  C7  UNL     1      21.908   0.961  53.105  1.00  0.00     0.142 A 
HETATM    9  C15 UNL     1      23.529  -0.582  54.004  1.00  0.00     0.075 A 
HETATM   10  N2  UNL     1      21.041   0.314  53.885  1.00  0.00    -0.224 NA
HETATM   11  C14 UNL     1      21.285  -0.712  54.699  1.00  0.00     0.236 A 
HETATM   12  N3  UNL     1      22.570  -1.163  54.751  1.00  0.00    -0.241 NA
HETATM   13  C16 UNL     1      24.780  -1.105  54.125  1.00  0.00     0.072 A 
HETATM   14  C17 UNL     1      25.822  -0.566  53.392  1.00  0.00     0.103 A 
BRANCH   8  15
HETATM   15  N1  UNL     1      21.623   2.030  52.260  1.00  0.00    -0.340 N 
HETATM   16  H5  UNL     1      21.217   2.895  52.609  1.00  0.00     0.167 HD
BRANCH  15  17
HETATM   17  C8  UNL     1      21.817   2.148  50.856  1.00  0.00     0.035 A 
HETATM   18  C9  UNL     1      21.463   1.138  49.989  1.00  0.00     0.032 A 
HETATM   19  C10 UNL     1      21.630   1.197  48.623  1.00  0.00     0.046 A 
HETATM   20  C11 UNL     1      22.177   2.299  48.042  1.00  0.00     0.138 A 
HETATM   21  F1  UNL     1      22.384   2.456  46.714  1.00  0.00    -0.204 F 
HETATM   22  C12 UNL     1      22.545   3.329  48.861  1.00  0.00     0.074 A 
HETATM   23 CL1  UNL     1      23.253   4.779  48.198  1.00  0.00    -0.081 Cl
HETATM   24  C13 UNL     1      22.357   3.223  50.220  1.00  0.00     0.056 A 
ENDBRANCH  15  17
ENDBRANCH   8  15
BRANCH  14  25
HETATM   25  O2  UNL     1      27.089  -1.099  53.519  1.00  0.00    -0.353 OA
HETATM   26  C18 UNL     1      27.400  -2.280  52.804  1.00  0.00     0.210 C 
ENDBRANCH  14  25
ENDBRANCH   4   5
ENDBRANCH   3   4
TORSDOF 5
ENDMDL
MODEL 4
REMARK VINA RESULT:      -8.0      2.513      4.707
REMARK  5 active torsions:
REMARK  status: ('A' for Active; 'I' for Inactive)
REMARK    1  A    between atoms: C3_3  and  O1_4 
REMARK    2  A    between atoms: O1_4  and  C4_5 
REMARK    3  A    between atoms: C7_8  and  N1_9 
REMARK    4  A    between atoms: N1_9  and  C8_10 
REMARK    5  A    between atoms: C17_23  and  O2_24 
ROOT
HETATM    1  C1  UNL     1      21.228  -0.418  54.600  1.00  0.00     0.014 C 
HETATM    2  C2  UNL     1      21.099   0.505  53.842  1.00  0.00    -0.091 C 
HETATM    3  C3  UNL     1      20.934   1.655  52.930  1.00  0.00     0.268 C 
ENDROOT
BRANCH   3   4
HETATM    4  O1  UNL     1      21.395   1.304  51.665  1.00  0.00    -0.337 OA
BRANCH   4   5
HETATM    5  C4  UNL     1      22.457   1.930  51.060  1.00  0.00     0.104 A 
HETATM    6  C5  UNL     1      23.741   2.032  51.552  1.00  0.00     0.057 A 
HETATM    7  C6  UNL     1      24.783   2.670  50.913  1.00  0.00     0.042 A 
HETATM    8  C7  UNL     1      26.054   2.754  51.428  1.00  0.00     0.142 A 
HETATM    9  C15 UNL     1      24.427   3.214  49.708  1.00  0.00     0.075 A 
HETATM   10  N2  UNL     1      26.898   3.418  50.638  1.00  0.00    -0.224 NA
HETATM   11  C14 UNL     1      26.639   3.977  49.456  1.00  0.00     0.236 A 
HETATM   12  N3  UNL     1      25.363   3.864  48.990  1.00  0.00    -0.241 NA
HETATM   13  C16 UNL     1      23.184   3.156  49.157  1.00  0.00     0.072 A 
HETATM   14  C17 UNL     1      22.166   2.505  49.831  1.00  0.00     0.103 A 
BRANCH   8  15
HETATM   15  N1  UNL     1      26.354   2.176  52.660  1.00  0.00    -0.340 N 
HETATM   16  H5  UNL     1      25.833   2.411  53.502  1.00  0.00     0.167 HD
BRANCH  15  17
HETATM   17  C8  UNL     1      27.355   1.222  52.989  1.00  0.00     0.035 A 
HETATM   18  C9  UNL     1      28.553   1.596  53.555  1.00  0.00     0.032 A 
HETATM   19  C10 UNL     1      29.559   0.716  53.891  1.00  0.00     0.046 A 
HETATM   20  C11 UNL     1      29.409  -0.618  53.670  1.00  0.00     0.138 A 
HETATM   21  F1  UNL     1      30.333  -1.563  53.962  1.00  0.00    -0.204 F 
HETATM   22  C12 UNL     1      28.236  -1.040  53.109  1.00  0.00     0.074 A 
HETATM   23 CL1  UNL     1      27.964  -2.733  52.791  1.00  0.00    -0.081 Cl
HETATM   24  C13 UNL     1      27.262  -0.122  52.791  1.00  0.00     0.056 A 
ENDBRANCH  15  17
ENDBRANCH   8  15
BRANCH  14  25
HETATM   25  O2  UNL     1      20.906   2.449  49.269  1.00  0.00    -0.353 OA
HETATM   26  C18 UNL     1      20.791   2.522  47.860  1.00  0.00     0.210 C 
ENDBRANCH  14  25
ENDBRANCH   4   5
ENDBRANCH   3   4
TORSDOF 5
ENDMDL
MODEL 5
REMARK VINA RESULT:      -7.8      4.547      7.635
REMARK  5 active torsions:
REMARK  status: ('A' for Active; 'I' for Inactive)
REMARK    1  A    between atoms: C3_3  and  O1_4 
REMARK    2  A    between atoms: O1_4  and  C4_5 
REMARK    3  A    between atoms: C7_8  and  N1_9 
REMARK    4  A    between atoms: N1_9  and  C8_10 
REMARK    5  A    between atoms: C17_23  and  O2_24 
ROOT
HETATM    1  C1  UNL     1      21.935  -1.392  54.443  1.00  0.00     0.014 C 
HETATM    2  C2  UNL     1      23.000  -1.260  54.982  1.00  0.00    -0.091 C 
HETATM    3  C3  UNL     1      24.299  -1.098  55.668  1.00  0.00     0.268 C 
ENDROOT
BRANCH   3   4
HETATM    4  O1  UNL     1      25.326  -1.246  54.740  1.00  0.00    -0.337 OA
BRANCH   4   5
HETATM    5  C4  UNL     1      25.638  -0.279  53.815  1.00  0.00     0.104 A 
HETATM    6  C5  UNL     1      24.808   0.723  53.361  1.00  0.00     0.057 A 
HETATM    7  C6  UNL     1      25.158   1.677  52.430  1.00  0.00     0.042 A 
HETATM    8  C7  UNL     1      24.308   2.666  51.996  1.00  0.00     0.142 A 
HETATM    9  C15 UNL     1      26.443   1.544  51.976  1.00  0.00     0.075 A 
HETATM   10  N2  UNL     1      24.862   3.475  51.093  1.00  0.00    -0.224 NA
HETATM   11  C14 UNL     1      26.098   3.420  50.598  1.00  0.00     0.236 A 
HETATM   12  N3  UNL     1      26.900   2.421  51.061  1.00  0.00    -0.241 NA
HETATM   13  C16 UNL     1      27.321   0.584  52.376  1.00  0.00     0.072 A 
HETATM   14  C17 UNL     1      26.929  -0.355  53.313  1.00  0.00     0.103 A 
BRANCH   8  15
HETATM   15  N1  UNL     1      23.012   2.749  52.499  1.00  0.00    -0.340 N 
HETATM   16  H5  UNL     1      22.803   3.250  53.360  1.00  0.00     0.167 HD
BRANCH  15  17
HETATM   17  C8  UNL     1      21.805   2.209  51.976  1.00  0.00     0.035 A 
HETATM   18  C9  UNL     1      21.769   0.980  51.356  1.00  0.00     0.032 A 
HETATM   19  C10 UNL     1      20.631   0.411  50.830  1.00  0.00     0.046 A 
HETATM   20  C11 UNL     1      19.439   1.063  50.900  1.00  0.00     0.138 A 
HETATM   21  F1  UNL     1      18.266   0.592  50.416  1.00  0.00    -0.204 F 
HETATM   22  C12 UNL     1      19.421   2.288  51.507  1.00  0.00     0.074 A 
HETATM   23 CL1  UNL     1      17.934   3.190  51.640  1.00  0.00    -0.081 Cl
HETATM   24  C13 UNL     1      20.585   2.814  52.017  1.00  0.00     0.056 A 
ENDBRANCH  15  17
ENDBRANCH   8  15
BRANCH  14  25
HETATM   25  O2  UNL     1      27.823  -1.328  53.715  1.00  0.00    -0.353 OA
HETATM   26  C18 UNL     1      29.208  -1.060  53.605  1.00  0.00     0.210 C 
ENDBRANCH  14  25
ENDBRANCH   4   5
ENDBRANCH   3   4
TORSDOF 5
ENDMDL
MODEL 6
REMARK VINA RESULT:      -7.6      4.098      5.695
REMARK  5 active torsions:
REMARK  status: ('A' for Active; 'I' for Inactive)
REMARK    1  A    between atoms: C3_3  and  O1_4 
REMARK    2  A    between atoms: O1_4  and  C4_5 
REMARK    3  A    between atoms: C7_8  and  N1_9 
REMARK    4  A    between atoms: N1_9  and  C8_10 
REMARK    5  A    between atoms: C17_23  and  O2_24 
ROOT
HETATM    1  C1  UNL     1      21.990   2.968  47.111  1.00  0.00     0.014 C 
HETATM    2  C2  UNL     1      21.803   2.172  47.990  1.00  0.00    -0.091 C 
HETATM    3  C3  UNL     1      21.573   1.172  49.053  1.00  0.00     0.268 C 
ENDROOT
BRANCH   3   4
HETATM    4  O1  UNL     1      21.684   1.793  50.294  1.00  0.00    -0.337 OA
BRANCH   4   5
HETATM    5  C4  UNL     1      22.835   1.758  51.043  1.00  0.00     0.104 A 
HETATM    6  C5  UNL     1      24.087   2.178  50.648  1.00  0.00     0.057 A 
HETATM    7  C6  UNL     1      25.220   2.127  51.430  1.00  0.00     0.042 A 
HETATM    8  C7  UNL     1      26.456   2.555  51.008  1.00  0.00     0.142 A 
HETATM    9  C15 UNL     1      24.995   1.605  52.676  1.00  0.00     0.075 A 
HETATM   10  N2  UNL     1      27.406   2.409  51.932  1.00  0.00    -0.224 NA
HETATM   11  C14 UNL     1      27.276   1.915  53.163  1.00  0.00     0.236 A 
HETATM   12  N3  UNL     1      26.030   1.505  53.532  1.00  0.00    -0.241 NA
HETATM   13  C16 UNL     1      23.791   1.170  53.138  1.00  0.00     0.072 A 
HETATM   14  C17 UNL     1      22.678   1.240  52.321  1.00  0.00     0.103 A 
BRANCH   8  15
HETATM   15  N1  UNL     1      26.620   3.079  49.728  1.00  0.00    -0.340 N 
HETATM   16  H5  UNL     1      26.673   2.479  48.907  1.00  0.00     0.167 HD
BRANCH  15  17
HETATM   17  C8  UNL     1      26.739   4.434  49.316  1.00  0.00     0.035 A 
HETATM   18  C9  UNL     1      25.764   5.365  49.598  1.00  0.00     0.032 A 
HETATM   19  C10 UNL     1      25.825   6.689  49.222  1.00  0.00     0.046 A 
HETATM   20  C11 UNL     1      26.894   7.158  48.524  1.00  0.00     0.138 A 
HETATM   21  F1  UNL     1      27.050   8.437  48.108  1.00  0.00    -0.204 F 
HETATM   22  C12 UNL     1      27.890   6.272  48.219  1.00  0.00     0.074 A 
HETATM   23 CL1  UNL     1      29.296   6.793  47.328  1.00  0.00    -0.081 Cl
HETATM   24  C13 UNL     1      27.782   4.961  48.618  1.00  0.00     0.056 A 
ENDBRANCH  15  17
ENDBRANCH   8  15
BRANCH  14  25
HETATM   25  O2  UNL     1      21.459   0.796  52.794  1.00  0.00    -0.353 OA
HETATM   26  C18 UNL     1      21.388   0.297  54.116  1.00  0.00     0.210 C 
ENDBRANCH  14  25
ENDBRANCH   4   5
ENDBRANCH   3   4
TORSDOF 5
ENDMDL
MODEL 7
REMARK VINA RESULT:      -7.6      4.447      7.026
REMARK  5 active torsions:
REMARK  status: ('A' for Active; 'I' for Inactive)
REMARK    1  A    between atoms: C3_3  and  O1_4 
REMARK    2  A    between atoms: O1_4  and  C4_5 
REMARK    3  A    between atoms: C7_8  and  N1_9 
REMARK    4  A    between atoms: N1_9  and  C8_10 
REMARK    5  A    between atoms: C17_23  and  O2_24 
ROOT
HETATM    1  C1  UNL     1      29.696   0.021  53.209  1.00  0.00     0.014 C 
HETATM    2  C2  UNL     1      29.017   0.998  53.370  1.00  0.00    -0.091 C 
HETATM    3  C3  UNL     1      28.197   2.214  53.551  1.00  0.00     0.268 C 
ENDROOT
BRANCH   3   4
HETATM    4  O1  UNL     1      27.021   1.876  54.213  1.00  0.00    -0.337 OA
BRANCH   4   5
HETATM    5  C4  UNL     1      25.802   1.819  53.581  1.00  0.00     0.104 A 
HETATM    6  C5  UNL     1      25.075   2.886  53.098  1.00  0.00     0.057 A 
HETATM    7  C6  UNL     1      23.853   2.788  52.468  1.00  0.00     0.042 A 
HETATM    8  C7  UNL     1      23.151   3.871  51.996  1.00  0.00     0.142 A 
HETATM    9  C15 UNL     1      23.403   1.499  52.356  1.00  0.00     0.075 A 
HETATM   10  N2  UNL     1      21.994   3.538  51.424  1.00  0.00    -0.224 NA
HETATM   11  C14 UNL     1      21.482   2.317  51.272  1.00  0.00     0.236 A 
HETATM   12  N3  UNL     1      22.218   1.277  51.757  1.00  0.00    -0.241 NA
HETATM   13  C16 UNL     1      24.062   0.397  52.806  1.00  0.00     0.072 A 
HETATM   14  C17 UNL     1      25.287   0.539  53.433  1.00  0.00     0.103 A 
BRANCH   8  15
HETATM   15  N1  UNL     1      23.664   5.158  52.138  1.00  0.00    -0.340 N 
HETATM   16  H5  UNL     1      23.545   5.690  52.998  1.00  0.00     0.167 HD
BRANCH  15  17
HETATM   17  C8  UNL     1      24.398   5.944  51.208  1.00  0.00     0.035 A 
HETATM   18  C9  UNL     1      24.224   7.307  51.116  1.00  0.00     0.032 A 
HETATM   19  C10 UNL     1      24.905   8.117  50.233  1.00  0.00     0.046 A 
HETATM   20  C11 UNL     1      25.817   7.586  49.375  1.00  0.00     0.138 A 
HETATM   21  F1  UNL     1      26.536   8.291  48.471  1.00  0.00    -0.204 F 
HETATM   22  C12 UNL     1      26.026   6.236  49.428  1.00  0.00     0.074 A 
HETATM   23 CL1  UNL     1      27.179   5.475  48.362  1.00  0.00    -0.081 Cl
HETATM   24  C13 UNL     1      25.321   5.471  50.327  1.00  0.00     0.056 A 
ENDBRANCH  15  17
ENDBRANCH   8  15
BRANCH  14  25
HETATM   25  O2  UNL     1      25.952  -0.582  53.889  1.00  0.00    -0.353 OA
HETATM   26  C18 UNL     1      26.426  -1.518  52.940  1.00  0.00     0.210 C 
ENDBRANCH  14  25
ENDBRANCH   4   5
ENDBRANCH   3   4
TORSDOF 5
ENDMDL
MODEL 8
REMARK VINA RESULT:      -7.5      4.048      5.760
REMARK  5 active torsions:
REMARK  status: ('A' for Active; 'I' for Inactive)
REMARK    1  A    between atoms: C3_3  and  O1_4 
REMARK    2  A    between atoms: O1_4  and  C4_5 
REMARK    3  A    between atoms: C7_8  and  N1_9 
REMARK    4  A    between atoms: N1_9  and  C8_10 
REMARK    5  A    between atoms: C17_23  and  O2_24 
ROOT
HETATM    1  C1  UNL     1      18.859   2.860  51.521  1.00  0.00     0.014 C 
HETATM    2  C2  UNL     1      19.790   2.227  51.100  1.00  0.00    -0.091 C 
HETATM    3  C3  UNL     1      20.933   1.463  50.560  1.00  0.00     0.268 C 
ENDROOT
BRANCH   3   4
HETATM    4  O1  UNL     1      21.492   0.698  51.579  1.00  0.00    -0.337 OA
BRANCH   4   5
HETATM    5  C4  UNL     1      22.804   0.820  51.966  1.00  0.00     0.104 A 
HETATM    6  C5  UNL     1      23.776   1.581  51.353  1.00  0.00     0.057 A 
HETATM    7  C6  UNL     1      25.085   1.679  51.773  1.00  0.00     0.042 A 
HETATM    8  C7  UNL     1      26.032   2.447  51.141  1.00  0.00     0.142 A 
HETATM    9  C15 UNL     1      25.352   0.931  52.889  1.00  0.00     0.075 A 
HETATM   10  N2  UNL     1      27.230   2.389  51.723  1.00  0.00    -0.224 NA
HETATM   11  C14 UNL     1      27.577   1.692  52.805  1.00  0.00     0.236 A 
HETATM   12  N3  UNL     1      26.601   0.947  53.394  1.00  0.00    -0.241 NA
HETATM   13  C16 UNL     1      24.449   0.157  53.550  1.00  0.00     0.072 A 
HETATM   14  C17 UNL     1      23.144   0.087  53.095  1.00  0.00     0.103 A 
BRANCH   8  15
HETATM   15  N1  UNL     1      25.696   3.188  50.010  1.00  0.00    -0.340 N 
HETATM   16  H5  UNL     1      25.088   2.813  49.285  1.00  0.00     0.167 HD
BRANCH  15  17
HETATM   17  C8  UNL     1      26.086   4.506  49.646  1.00  0.00     0.035 A 
HETATM   18  C9  UNL     1      27.175   4.743  48.837  1.00  0.00     0.032 A 
HETATM   19  C10 UNL     1      27.599   5.997  48.455  1.00  0.00     0.046 A 
HETATM   20  C11 UNL     1      26.935   7.106  48.879  1.00  0.00     0.138 A 
HETATM   21  F1  UNL     1      27.269   8.379  48.562  1.00  0.00    -0.204 F 
HETATM   22  C12 UNL     1      25.847   6.924  49.685  1.00  0.00     0.074 A 
HETATM   23 CL1  UNL     1      24.939   8.294  50.271  1.00  0.00    -0.081 Cl
HETATM   24  C13 UNL     1      25.463   5.652  50.037  1.00  0.00     0.056 A 
ENDBRANCH  15  17
ENDBRANCH   8  15
BRANCH  14  25
HETATM   25  O2  UNL     1      22.231  -0.700  53.768  1.00  0.00    -0.353 OA
HETATM   26  C18 UNL     1      22.593  -1.225  55.031  1.00  0.00     0.210 C 
ENDBRANCH  14  25
ENDBRANCH   4   5
ENDBRANCH   3   4
TORSDOF 5
ENDMDL
MODEL 9
REMARK VINA RESULT:      -7.5      1.734      2.143
REMARK  5 active torsions:
REMARK  status: ('A' for Active; 'I' for Inactive)
REMARK    1  A    between atoms: C3_3  and  O1_4 
REMARK    2  A    between atoms: O1_4  and  C4_5 
REMARK    3  A    between atoms: C7_8  and  N1_9 
REMARK    4  A    between atoms: N1_9  and  C8_10 
REMARK    5  A    between atoms: C17_23  and  O2_24 
ROOT
HETATM    1  C1  UNL     1      17.284   3.344  49.585  1.00  0.00     0.014 C 
HETATM    2  C2  UNL     1      18.281   3.150  50.226  1.00  0.00    -0.091 C 
HETATM    3  C3  UNL     1      19.505   2.936  51.026  1.00  0.00     0.268 C 
ENDROOT
BRANCH   3   4
HETATM    4  O1  UNL     1      19.946   1.629  50.844  1.00  0.00    -0.337 OA
BRANCH   4   5
HETATM    5  C4  UNL     1      20.443   0.862  51.868  1.00  0.00     0.104 A 
HETATM    6  C5  UNL     1      21.765   0.741  52.240  1.00  0.00     0.057 A 
HETATM    7  C6  UNL     1      22.226  -0.041  53.277  1.00  0.00     0.042 A 
HETATM    8  C7  UNL     1      23.552  -0.140  53.624  1.00  0.00     0.142 A 
HETATM    9  C15 UNL     1      21.229  -0.713  53.932  1.00  0.00     0.075 A 
HETATM   10  N2  UNL     1      23.764  -0.954  54.658  1.00  0.00    -0.224 NA
HETATM   11  C14 UNL     1      22.859  -1.644  55.351  1.00  0.00     0.236 A 
HETATM   12  N3  UNL     1      21.559  -1.511  54.967  1.00  0.00    -0.241 NA
HETATM   13  C16 UNL     1      19.905  -0.646  53.626  1.00  0.00     0.072 A 
HETATM   14  C17 UNL     1      19.484   0.152  52.577  1.00  0.00     0.103 A 
BRANCH   8  15
HETATM   15  N1  UNL     1      24.519   0.572  52.919  1.00  0.00    -0.340 N 
HETATM   16  H5  UNL     1      24.278   1.157  52.121  1.00  0.00     0.167 HD
BRANCH  15  17
HETATM   17  C8  UNL     1      25.923   0.640  53.131  1.00  0.00     0.035 A 
HETATM   18  C9  UNL     1      26.561   1.834  53.386  1.00  0.00     0.032 A 
HETATM   19  C10 UNL     1      27.917   1.958  53.595  1.00  0.00     0.046 A 
HETATM   20  C11 UNL     1      28.723   0.863  53.559  1.00  0.00     0.138 A 
HETATM   21  F1  UNL     1      30.063   0.877  53.751  1.00  0.00    -0.204 F 
HETATM   22  C12 UNL     1      28.137  -0.347  53.309  1.00  0.00     0.074 A 
HETATM   23 CL1  UNL     1      29.099  -1.801  53.245  1.00  0.00    -0.081 Cl
HETATM   24  C13 UNL     1      26.779  -0.419  53.107  1.00  0.00     0.056 A 
ENDBRANCH  15  17
ENDBRANCH   8  15
BRANCH  14  25
HETATM   25  O2  UNL     1      18.139   0.216  52.270  1.00  0.00    -0.353 OA
HETATM   26  C18 UNL     1      17.449  -0.989  52.002  1.00  0.00     0.210 C 
ENDBRANCH  14  25
ENDBRANCH   4   5
ENDBRANCH   3   4
TORSDOF 5
ENDMDL
