MODEL 1
REMARK VINA RESULT:      -8.8      0.000      0.000
REMARK  5 active torsions:
REMARK  status: ('A' for Active; 'I' for Inactive)
REMARK    1  A    between atoms: C5_6  and  N1_7 
REMARK    2  A    between atoms: N1_7  and  O1_8 
REMARK    3  A    between atoms: O1_8  and  C6_9 
REMARK    4  A    between atoms: C8_11  and  N2_12 
REMARK    5  A    between atoms: N2_12  and  C9_13 
ROOT
HETATM    1  C6  UNL     1      27.434   1.396  52.816  1.00  0.00     0.101 A 
HETATM    2  C7  UNL     1      26.505   1.023  53.680  1.00  0.00     0.066 A 
HETATM    3  C8  UNL     1      26.569   0.245  54.938  1.00  0.00     0.253 A 
HETATM    4  O2  UNL     1      27.886  -0.124  55.185  1.00  0.00    -0.334 OA
HETATM    5  C17 UNL     1      28.902   0.238  54.316  1.00  0.00     0.140 A 
HETATM    6  C18 UNL     1      28.761   0.937  53.208  1.00  0.00     0.063 A 
ENDROOT
BRANCH   1   7
HETATM    7  O1  UNL     1      27.215   2.136  51.662  1.00  0.00    -0.238 OA
BRANCH   7   8
HETATM    8  N1  UNL     1      26.410   3.251  51.642  1.00  0.00    -0.261 N 
HETATM    9  H4  UNL     1      26.836   4.221  51.726  1.00  0.00     0.195 HD
BRANCH   8  10
HETATM   10  C5  UNL     1      24.996   3.171  51.509  1.00  0.00     0.056 A 
HETATM   11  C4  UNL     1      24.066   3.382  52.528  1.00  0.00     0.031 A 
HETATM   12  C3  UNL     1      22.715   3.274  52.270  1.00  0.00     0.004 A 
HETATM   13  C2  UNL     1      22.225   2.958  51.009  1.00  0.00     0.019 A 
HETATM   14  C1  UNL     1      23.107   2.736  49.958  1.00  0.00     0.013 A 
HETATM   15 BR1  UNL     1      22.555   2.297  48.192  1.00  0.00    -0.051 Br
HETATM   16  C19 UNL     1      24.442   2.860  50.284  1.00  0.00     0.050 A 
ENDBRANCH   8  10
ENDBRANCH   7   8
ENDBRANCH   1   7
BRANCH   3  17
HETATM   17  N2  UNL     1      25.673  -0.898  54.841  1.00  0.00    -0.360 N 
HETATM   18  H7  UNL     1      26.004  -1.854  55.142  1.00  0.00     0.162 HD
BRANCH  17  19
HETATM   19  C9  UNL     1      24.332  -0.821  54.349  1.00  0.00     0.026 C 
HETATM   20  C10 UNL     1      24.096  -0.354  53.133  1.00  0.00     0.003 C 
HETATM   21  C11 UNL     1      22.674  -0.312  52.686  1.00  0.00     0.044 C 
HETATM   22  C12 UNL     1      21.754  -0.075  53.770  1.00  0.00    -0.005 A 
HETATM   23  C13 UNL     1      20.426   0.529  53.666  1.00  0.00     0.025 A 
HETATM   24  C14 UNL     1      20.652  -0.842  54.338  1.00  0.00     0.029 A 
HETATM   25  C15 UNL     1      22.054  -1.060  54.908  1.00  0.00    -0.063 A 
HETATM   26  C16 UNL     1      23.298  -1.216  55.323  1.00  0.00     0.033 C 
ENDBRANCH  17  19
ENDBRANCH   3  17
TORSDOF 5
ENDMDL
MODEL 2
REMARK VINA RESULT:      -8.8      1.861      2.182
REMARK  5 active torsions:
REMARK  status: ('A' for Active; 'I' for Inactive)
REMARK    1  A    between atoms: C5_6  and  N1_7 
REMARK    2  A    between atoms: N1_7  and  O1_8 
REMARK    3  A    between atoms: O1_8  and  C6_9 
REMARK    4  A    between atoms: C8_11  and  N2_12 
REMARK    5  A    between atoms: N2_12  and  C9_13 
ROOT
HETATM    1  C6  UNL     1      27.696   1.543  53.025  1.00  0.00     0.101 A 
HETATM    2  C7  UNL     1      26.696   1.100  53.768  1.00  0.00     0.066 A 
HETATM    3  C8  UNL     1      26.652   0.200  54.944  1.00  0.00     0.253 A 
HETATM    4  O2  UNL     1      27.942  -0.209  55.260  1.00  0.00    -0.334 OA
HETATM    5  C17 UNL     1      29.027   0.223  54.517  1.00  0.00     0.140 A 
HETATM    6  C18 UNL     1      28.983   1.029  53.476  1.00  0.00     0.063 A 
ENDROOT
BRANCH   1   7
HETATM    7  O1  UNL     1      27.577   2.396  51.936  1.00  0.00    -0.238 OA
BRANCH   7   8
HETATM    8  N1  UNL     1      26.660   2.189  50.932  1.00  0.00    -0.261 N 
HETATM    9  H4  UNL     1      26.389   1.201  50.649  1.00  0.00     0.195 HD
BRANCH   8  10
HETATM   10  C5  UNL     1      26.038   3.260  50.232  1.00  0.00     0.056 A 
HETATM   11  C4  UNL     1      24.665   3.434  50.058  1.00  0.00     0.031 A 
HETATM   12  C3  UNL     1      24.184   4.519  49.354  1.00  0.00     0.004 A 
HETATM   13  C2  UNL     1      25.028   5.472  48.796  1.00  0.00     0.019 A 
HETATM   14  C1  UNL     1      26.405   5.346  48.938  1.00  0.00     0.013 A 
HETATM   15 BR1  UNL     1      27.657   6.585  48.219  1.00  0.00    -0.051 Br
HETATM   16  C19 UNL     1      26.817   4.240  49.651  1.00  0.00     0.050 A 
ENDBRANCH   8  10
ENDBRANCH   7   8
ENDBRANCH   1   7
BRANCH   3  17
HETATM   17  N2  UNL     1      25.760  -0.915  54.661  1.00  0.00    -0.360 N 
HETATM   18  H7  UNL     1      26.110  -1.906  54.754  1.00  0.00     0.162 HD
BRANCH  17  19
HETATM   19  C9  UNL     1      24.399  -0.763  54.250  1.00  0.00     0.026 C 
HETATM   20  C10 UNL     1      24.113  -0.153  53.109  1.00  0.00     0.003 C 
HETATM   21  C11 UNL     1      22.672  -0.041  52.742  1.00  0.00     0.044 C 
HETATM   22  C12 UNL     1      21.810   0.078  53.892  1.00  0.00    -0.005 A 
HETATM   23  C13 UNL     1      20.490   0.708  53.925  1.00  0.00     0.025 A 
HETATM   24  C14 UNL     1      20.723  -0.735  54.421  1.00  0.00     0.029 A 
HETATM   25  C15 UNL     1      22.146  -1.037  54.890  1.00  0.00    -0.063 A 
HETATM   26  C16 UNL     1      23.406  -1.256  55.222  1.00  0.00     0.033 C 
ENDBRANCH  17  19
ENDBRANCH   3  17
TORSDOF 5
ENDMDL
MODEL 3
REMARK VINA RESULT:      -8.8      2.430      5.083
REMARK  5 active torsions:
REMARK  status: ('A' for Active; 'I' for Inactive)
REMARK    1  A    between atoms: C5_6  and  N1_7 
REMARK    2  A    between atoms: N1_7  and  O1_8 
REMARK    3  A    between atoms: O1_8  and  C6_9 
REMARK    4  A    between atoms: C8_11  and  N2_12 
REMARK    5  A    between atoms: N2_12  and  C9_13 
ROOT
HETATM    1  C6  UNL     1      22.125   1.319  52.835  1.00  0.00     0.101 A 
HETATM    2  C7  UNL     1      23.061   0.390  52.932  1.00  0.00     0.066 A 
HETATM    3  C8  UNL     1      23.126  -0.884  53.685  1.00  0.00     0.253 A 
HETATM    4  O2  UNL     1      21.944  -1.060  54.395  1.00  0.00    -0.334 OA
HETATM    5  C17 UNL     1      20.928  -0.120  54.331  1.00  0.00     0.140 A 
HETATM    6  C18 UNL     1      20.948   0.996  53.633  1.00  0.00     0.063 A 
ENDROOT
BRANCH   1   7
HETATM    7  O1  UNL     1      22.212   2.478  52.076  1.00  0.00    -0.238 OA
BRANCH   7   8
HETATM    8  N1  UNL     1      23.202   3.414  52.267  1.00  0.00    -0.261 N 
HETATM    9  H4  UNL     1      23.097   4.159  53.017  1.00  0.00     0.195 HD
BRANCH   8  10
HETATM   10  C5  UNL     1      24.393   3.436  51.490  1.00  0.00     0.056 A 
HETATM   11  C4  UNL     1      25.400   2.470  51.510  1.00  0.00     0.031 A 
HETATM   12  C3  UNL     1      26.513   2.608  50.705  1.00  0.00     0.004 A 
HETATM   13  C2  UNL     1      26.680   3.693  49.852  1.00  0.00     0.019 A 
HETATM   14  C1  UNL     1      25.708   4.685  49.793  1.00  0.00     0.013 A 
HETATM   15 BR1  UNL     1      25.827   6.212  48.668  1.00  0.00    -0.051 Br
HETATM   16  C19 UNL     1      24.624   4.485  50.623  1.00  0.00     0.050 A 
ENDBRANCH   8  10
ENDBRANCH   7   8
ENDBRANCH   1   7
BRANCH   3  17
HETATM   17  N2  UNL     1      24.302  -0.874  54.542  1.00  0.00    -0.360 N 
HETATM   18  H7  UNL     1      24.204  -1.079  55.573  1.00  0.00     0.162 HD
BRANCH  17  19
HETATM   19  C9  UNL     1      25.625  -0.596  54.077  1.00  0.00     0.026 C 
HETATM   20  C10 UNL     1      26.056  -1.125  52.942  1.00  0.00     0.003 C 
HETATM   21  C11 UNL     1      27.444  -0.782  52.518  1.00  0.00     0.044 C 
HETATM   22  C12 UNL     1      28.335  -0.573  53.632  1.00  0.00    -0.005 A 
HETATM   23  C13 UNL     1      29.787  -0.743  53.626  1.00  0.00     0.025 A 
HETATM   24  C14 UNL     1      29.117   0.567  54.093  1.00  0.00     0.029 A 
HETATM   25  C15 UNL     1      27.688   0.412  54.614  1.00  0.00    -0.063 A 
HETATM   26  C16 UNL     1      26.436   0.228  54.993  1.00  0.00     0.033 C 
ENDBRANCH  17  19
ENDBRANCH   3  17
TORSDOF 5
ENDMDL
MODEL 4
REMARK VINA RESULT:      -8.5      3.317      5.441
REMARK  5 active torsions:
REMARK  status: ('A' for Active; 'I' for Inactive)
REMARK    1  A    between atoms: C5_6  and  N1_7 
REMARK    2  A    between atoms: N1_7  and  O1_8 
REMARK    3  A    between atoms: O1_8  and  C6_9 
REMARK    4  A    between atoms: C8_11  and  N2_12 
REMARK    5  A    between atoms: N2_12  and  C9_13 
ROOT
HETATM    1  C6  UNL     1      25.519   2.525  51.564  1.00  0.00     0.101 A 
HETATM    2  C7  UNL     1      25.111   1.275  51.704  1.00  0.00     0.066 A 
HETATM    3  C8  UNL     1      23.991   0.672  52.462  1.00  0.00     0.253 A 
HETATM    4  O2  UNL     1      23.288   1.673  53.121  1.00  0.00    -0.334 OA
HETATM    5  C17 UNL     1      23.669   3.000  53.011  1.00  0.00     0.140 A 
HETATM    6  C18 UNL     1      24.686   3.459  52.311  1.00  0.00     0.063 A 
ENDROOT
BRANCH   1   7
HETATM    7  O1  UNL     1      26.605   2.941  50.806  1.00  0.00    -0.238 OA
BRANCH   7   8
HETATM    8  N1  UNL     1      26.493   3.279  49.477  1.00  0.00    -0.261 N 
HETATM    9  H4  UNL     1      26.209   2.547  48.761  1.00  0.00     0.195 HD
BRANCH   8  10
HETATM   10  C5  UNL     1      26.745   4.594  48.999  1.00  0.00     0.056 A 
HETATM   11  C4  UNL     1      25.799   5.612  48.869  1.00  0.00     0.031 A 
HETATM   12  C3  UNL     1      26.172   6.851  48.389  1.00  0.00     0.004 A 
HETATM   13  C2  UNL     1      27.480   7.139  48.021  1.00  0.00     0.019 A 
HETATM   14  C1  UNL     1      28.463   6.162  48.129  1.00  0.00     0.013 A 
HETATM   15 BR1  UNL     1      30.283   6.440  47.656  1.00  0.00    -0.051 Br
HETATM   16  C19 UNL     1      28.022   4.948  48.615  1.00  0.00     0.050 A 
ENDBRANCH   8  10
ENDBRANCH   7   8
ENDBRANCH   1   7
BRANCH   3  17
HETATM   17  N2  UNL     1      24.517  -0.339  53.369  1.00  0.00    -0.360 N 
HETATM   18  H7  UNL     1      23.859  -1.018  53.839  1.00  0.00     0.162 HD
BRANCH  17  19
HETATM   19  C9  UNL     1      25.904  -0.483  53.685  1.00  0.00     0.026 C 
HETATM   20  C10 UNL     1      26.456   0.277  54.619  1.00  0.00     0.003 C 
HETATM   21  C11 UNL     1      27.905   0.062  54.899  1.00  0.00     0.044 C 
HETATM   22  C12 UNL     1      28.646  -0.348  53.733  1.00  0.00    -0.005 A 
HETATM   23  C13 UNL     1      30.074  -0.144  53.496  1.00  0.00     0.025 A 
HETATM   24  C14 UNL     1      29.418  -1.538  53.400  1.00  0.00     0.029 A 
HETATM   25  C15 UNL     1      27.925  -1.529  53.069  1.00  0.00    -0.063 A 
HETATM   26  C16 UNL     1      26.625  -1.456  52.845  1.00  0.00     0.033 C 
ENDBRANCH  17  19
ENDBRANCH   3  17
TORSDOF 5
ENDMDL
MODEL 5
REMARK VINA RESULT:      -8.4      4.832      7.141
REMARK  5 active torsions:
REMARK  status: ('A' for Active; 'I' for Inactive)
REMARK    1  A    between atoms: C5_6  and  N1_7 
REMARK    2  A    between atoms: N1_7  and  O1_8 
REMARK    3  A    between atoms: O1_8  and  C6_9 
REMARK    4  A    between atoms: C8_11  and  N2_12 
REMARK    5  A    between atoms: N2_12  and  C9_13 
ROOT
HETATM    1  C6  UNL     1      26.809   4.318  49.248  1.00  0.00     0.101 A 
HETATM    2  C7  UNL     1      26.670   3.308  50.090  1.00  0.00     0.066 A 
HETATM    3  C8  UNL     1      25.514   2.820  50.878  1.00  0.00     0.253 A 
HETATM    4  O2  UNL     1      24.412   3.629  50.629  1.00  0.00    -0.334 OA
HETATM    5  C17 UNL     1      24.499   4.701  49.756  1.00  0.00     0.140 A 
HETATM    6  C18 UNL     1      25.572   5.073  49.089  1.00  0.00     0.063 A 
ENDROOT
BRANCH   1   7
HETATM    7  O1  UNL     1      27.976   4.654  48.575  1.00  0.00    -0.238 OA
BRANCH   7   8
HETATM    8  N1  UNL     1      28.637   5.841  48.790  1.00  0.00    -0.261 N 
HETATM    9  H4  UNL     1      28.137   6.658  49.250  1.00  0.00     0.195 HD
BRANCH   8  10
HETATM   10  C5  UNL     1      29.997   6.037  48.419  1.00  0.00     0.056 A 
HETATM   11  C4  UNL     1      30.777   7.150  48.733  1.00  0.00     0.031 A 
HETATM   12  C3  UNL     1      32.089   7.221  48.311  1.00  0.00     0.004 A 
HETATM   13  C2  UNL     1      32.684   6.208  47.570  1.00  0.00     0.019 A 
HETATM   14  C1  UNL     1      31.952   5.077  47.228  1.00  0.00     0.013 A 
HETATM   15 BR1  UNL     1      32.658   3.629  46.218  1.00  0.00    -0.051 Br
HETATM   16  C19 UNL     1      30.649   5.071  47.680  1.00  0.00     0.050 A 
ENDBRANCH   8  10
ENDBRANCH   7   8
ENDBRANCH   1   7
BRANCH   3  17
HETATM   17  N2  UNL     1      25.878   2.781  52.287  1.00  0.00    -0.360 N 
HETATM   18  H7  UNL     1      25.486   3.501  52.952  1.00  0.00     0.162 HD
BRANCH  17  19
HETATM   19  C9  UNL     1      26.759   1.809  52.856  1.00  0.00     0.026 C 
HETATM   20  C10 UNL     1      27.686   2.180  53.726  1.00  0.00     0.003 C 
HETATM   21  C11 UNL     1      28.561   1.108  54.284  1.00  0.00     0.044 C 
HETATM   22  C12 UNL     1      28.796   0.035  53.350  1.00  0.00    -0.005 A 
HETATM   23  C13 UNL     1      29.951  -0.861  53.331  1.00  0.00     0.025 A 
HETATM   24  C14 UNL     1      28.502  -1.392  53.365  1.00  0.00     0.029 A 
HETATM   25  C15 UNL     1      27.452  -0.444  52.786  1.00  0.00    -0.063 A 
HETATM   26  C16 UNL     1      26.583   0.441  52.333  1.00  0.00     0.033 C 
ENDBRANCH  17  19
ENDBRANCH   3  17
TORSDOF 5
ENDMDL
MODEL 6
REMARK VINA RESULT:      -8.2      2.702      5.481
REMARK  5 active torsions:
REMARK  status: ('A' for Active; 'I' for Inactive)
REMARK    1  A    between atoms: C5_6  and  N1_7 
REMARK    2  A    between atoms: N1_7  and  O1_8 
REMARK    3  A    between atoms: O1_8  and  C6_9 
REMARK    4  A    between atoms: C8_11  and  N2_12 
REMARK    5  A    between atoms: N2_12  and  C9_13 
ROOT
HETATM    1  C6  UNL     1      21.153   0.324  52.896  1.00  0.00     0.101 A 
HETATM    2  C7  UNL     1      22.414   0.081  52.581  1.00  0.00     0.066 A 
HETATM    3  C8  UNL     1      23.523  -0.553  53.330  1.00  0.00     0.253 A 
HETATM    4  O2  UNL     1      23.071  -0.936  54.587  1.00  0.00    -0.334 OA
HETATM    5  C17 UNL     1      21.761  -0.707  54.972  1.00  0.00     0.140 A 
HETATM    6  C18 UNL     1      20.827  -0.131  54.242  1.00  0.00     0.063 A 
ENDROOT
BRANCH   1   7
HETATM    7  O1  UNL     1      20.218   0.938  52.074  1.00  0.00    -0.238 OA
BRANCH   7   8
HETATM    8  N1  UNL     1      20.460   2.139  51.448  1.00  0.00    -0.261 N 
HETATM    9  H4  UNL     1      20.137   3.049  51.892  1.00  0.00     0.195 HD
BRANCH   8  10
HETATM   10  C5  UNL     1      21.139   2.228  50.201  1.00  0.00     0.056 A 
HETATM   11  C4  UNL     1      21.197   1.229  49.228  1.00  0.00     0.031 A 
HETATM   12  C3  UNL     1      21.892   1.439  48.055  1.00  0.00     0.004 A 
HETATM   13  C2  UNL     1      22.554   2.632  47.791  1.00  0.00     0.019 A 
HETATM   14  C1  UNL     1      22.530   3.661  48.726  1.00  0.00     0.013 A 
HETATM   15 BR1  UNL     1      23.398   5.334  48.476  1.00  0.00    -0.051 Br
HETATM   16  C19 UNL     1      21.818   3.384  49.875  1.00  0.00     0.050 A 
ENDBRANCH   8  10
ENDBRANCH   7   8
ENDBRANCH   1   7
BRANCH   3  17
HETATM   17  N2  UNL     1      24.649   0.368  53.391  1.00  0.00    -0.360 N 
HETATM   18  H7  UNL     1      24.497   1.397  53.211  1.00  0.00     0.162 HD
BRANCH  17  19
HETATM   19  C9  UNL     1      25.990  -0.030  53.685  1.00  0.00     0.026 C 
HETATM   20  C10 UNL     1      26.662   0.566  54.659  1.00  0.00     0.003 C 
HETATM   21  C11 UNL     1      28.053   0.091  54.912  1.00  0.00     0.044 C 
HETATM   22  C12 UNL     1      28.715  -0.366  53.716  1.00  0.00    -0.005 A 
HETATM   23  C13 UNL     1      30.158  -0.395  53.479  1.00  0.00     0.025 A 
HETATM   24  C14 UNL     1      29.273  -1.648  53.304  1.00  0.00     0.029 A 
HETATM   25  C15 UNL     1      27.805  -1.364  52.988  1.00  0.00    -0.063 A 
HETATM   26  C16 UNL     1      26.537  -1.058  52.780  1.00  0.00     0.033 C 
ENDBRANCH  17  19
ENDBRANCH   3  17
TORSDOF 5
ENDMDL
MODEL 7
REMARK VINA RESULT:      -8.2      2.890      5.238
REMARK  5 active torsions:
REMARK  status: ('A' for Active; 'I' for Inactive)
REMARK    1  A    between atoms: C5_6  and  N1_7 
REMARK    2  A    between atoms: N1_7  and  O1_8 
REMARK    3  A    between atoms: O1_8  and  C6_9 
REMARK    4  A    between atoms: C8_11  and  N2_12 
REMARK    5  A    between atoms: N2_12  and  C9_13 
ROOT
HETATM    1  C6  UNL     1      24.034   3.645  51.117  1.00  0.00     0.101 A 
HETATM    2  C7  UNL     1      22.960   3.318  50.418  1.00  0.00     0.066 A 
HETATM    3  C8  UNL     1      21.525   3.643  50.588  1.00  0.00     0.253 A 
HETATM    4  O2  UNL     1      21.363   4.443  51.712  1.00  0.00    -0.334 OA
HETATM    5  C17 UNL     1      22.452   4.817  52.482  1.00  0.00     0.140 A 
HETATM    6  C18 UNL     1      23.708   4.484  52.263  1.00  0.00     0.063 A 
ENDROOT
BRANCH   1   7
HETATM    7  O1  UNL     1      25.335   3.257  50.827  1.00  0.00    -0.238 OA
BRANCH   7   8
HETATM    8  N1  UNL     1      26.237   2.908  51.806  1.00  0.00    -0.261 N 
HETATM    9  H4  UNL     1      26.879   3.641  52.230  1.00  0.00     0.195 HD
BRANCH   8  10
HETATM   10  C5  UNL     1      26.358   1.577  52.294  1.00  0.00     0.056 A 
HETATM   11  C4  UNL     1      25.315   0.663  52.443  1.00  0.00     0.031 A 
HETATM   12  C3  UNL     1      25.563  -0.604  52.931  1.00  0.00     0.004 A 
HETATM   13  C2  UNL     1      26.839  -1.022  53.289  1.00  0.00     0.019 A 
HETATM   14  C1  UNL     1      27.915  -0.151  53.162  1.00  0.00     0.013 A 
HETATM   15 BR1  UNL     1      29.702  -0.610  53.620  1.00  0.00    -0.051 Br
HETATM   16  C19 UNL     1      27.596   1.097  52.669  1.00  0.00     0.050 A 
ENDBRANCH   8  10
ENDBRANCH   7   8
ENDBRANCH   1   7
BRANCH   3  17
HETATM   17  N2  UNL     1      20.760   2.407  50.660  1.00  0.00    -0.360 N 
HETATM   18  H7  UNL     1      20.078   2.163  49.892  1.00  0.00     0.162 HD
BRANCH  17  19
HETATM   19  C9  UNL     1      20.863   1.466  51.733  1.00  0.00     0.026 C 
HETATM   20  C10 UNL     1      20.332   1.744  52.914  1.00  0.00     0.003 C 
HETATM   21  C11 UNL     1      20.472   0.711  53.980  1.00  0.00     0.044 C 
HETATM   22  C12 UNL     1      21.693  -0.048  53.868  1.00  0.00    -0.005 A 
HETATM   23  C13 UNL     1      22.396  -0.727  54.955  1.00  0.00     0.025 A 
HETATM   24  C14 UNL     1      21.983  -1.461  53.662  1.00  0.00     0.029 A 
HETATM   25  C15 UNL     1      21.831  -0.567  52.431  1.00  0.00    -0.063 A 
HETATM   26  C16 UNL     1      21.654   0.263  51.418  1.00  0.00     0.033 C 
ENDBRANCH  17  19
ENDBRANCH   3  17
TORSDOF 5
ENDMDL
MODEL 8
REMARK VINA RESULT:      -8.2      5.390      7.504
REMARK  5 active torsions:
REMARK  status: ('A' for Active; 'I' for Inactive)
REMARK    1  A    between atoms: C5_6  and  N1_7 
REMARK    2  A    between atoms: N1_7  and  O1_8 
REMARK    3  A    between atoms: O1_8  and  C6_9 
REMARK    4  A    between atoms: C8_11  and  N2_12 
REMARK    5  A    between atoms: N2_12  and  C9_13 
ROOT
HETATM    1  C6  UNL     1      27.720   5.416  48.542  1.00  0.00     0.101 A 
HETATM    2  C7  UNL     1      27.135   4.386  49.129  1.00  0.00     0.066 A 
HETATM    3  C8  UNL     1      25.733   4.136  49.538  1.00  0.00     0.253 A 
HETATM    4  O2  UNL     1      24.953   5.238  49.205  1.00  0.00    -0.334 OA
HETATM    5  C17 UNL     1      25.512   6.345  48.588  1.00  0.00     0.140 A 
HETATM    6  C18 UNL     1      26.778   6.491  48.256  1.00  0.00     0.063 A 
ENDROOT
BRANCH   1   7
HETATM    7  O1  UNL     1      29.067   5.503  48.218  1.00  0.00    -0.238 OA
BRANCH   7   8
HETATM    8  N1  UNL     1      29.968   6.204  48.986  1.00  0.00    -0.261 N 
HETATM    9  H4  UNL     1      29.630   6.794  49.803  1.00  0.00     0.195 HD
BRANCH   8  10
HETATM   10  C5  UNL     1      31.368   6.180  48.736  1.00  0.00     0.056 A 
HETATM   11  C4  UNL     1      32.253   7.239  48.941  1.00  0.00     0.031 A 
HETATM   12  C3  UNL     1      33.595   7.090  48.658  1.00  0.00     0.004 A 
HETATM   13  C2  UNL     1      34.119   5.900  48.166  1.00  0.00     0.019 A 
HETATM   14  C1  UNL     1      33.282   4.813  47.942  1.00  0.00     0.013 A 
HETATM   15 BR1  UNL     1      33.884   3.139  47.272  1.00  0.00    -0.051 Br
HETATM   16  C19 UNL     1      31.954   5.032  48.246  1.00  0.00     0.050 A 
ENDBRANCH   8  10
ENDBRANCH   7   8
ENDBRANCH   1   7
BRANCH   3  17
HETATM   17  N2  UNL     1      25.696   3.828  50.960  1.00  0.00    -0.360 N 
HETATM   18  H7  UNL     1      25.839   4.596  51.669  1.00  0.00     0.162 HD
BRANCH  17  19
HETATM   19  C9  UNL     1      25.476   2.516  51.486  1.00  0.00     0.026 C 
HETATM   20  C10 UNL     1      24.284   2.179  51.953  1.00  0.00     0.003 C 
HETATM   21  C11 UNL     1      24.129   0.791  52.477  1.00  0.00     0.044 C 
HETATM   22  C12 UNL     1      25.338   0.278  53.070  1.00  0.00    -0.005 A 
HETATM   23  C13 UNL     1      25.429  -0.756  54.101  1.00  0.00     0.025 A 
HETATM   24  C14 UNL     1      26.203  -0.855  52.769  1.00  0.00     0.029 A 
HETATM   25  C15 UNL     1      26.503   0.482  52.093  1.00  0.00    -0.063 A 
HETATM   26  C16 UNL     1      26.677   1.662  51.524  1.00  0.00     0.033 C 
ENDBRANCH  17  19
ENDBRANCH   3  17
TORSDOF 5
ENDMDL
MODEL 9
REMARK VINA RESULT:      -7.9      2.715      6.132
REMARK  5 active torsions:
REMARK  status: ('A' for Active; 'I' for Inactive)
REMARK    1  A    between atoms: C5_6  and  N1_7 
REMARK    2  A    between atoms: N1_7  and  O1_8 
REMARK    3  A    between atoms: O1_8  and  C6_9 
REMARK    4  A    between atoms: C8_11  and  N2_12 
REMARK    5  A    between atoms: N2_12  and  C9_13 
ROOT
HETATM    1  C6  UNL     1      22.650   3.300  51.758  1.00  0.00     0.101 A 
HETATM    2  C7  UNL     1      23.899   3.019  52.093  1.00  0.00     0.066 A 
HETATM    3  C8  UNL     1      25.201   3.458  51.541  1.00  0.00     0.253 A 
HETATM    4  O2  UNL     1      24.982   4.325  50.477  1.00  0.00    -0.334 OA
HETATM    5  C17 UNL     1      23.696   4.655  50.081  1.00  0.00     0.140 A 
HETATM    6  C18 UNL     1      22.580   4.219  50.628  1.00  0.00     0.063 A 
ENDROOT
BRANCH   1   7
HETATM    7  O1  UNL     1      21.515   2.802  52.382  1.00  0.00    -0.238 OA
BRANCH   7   8
HETATM    8  N1  UNL     1      21.007   1.554  52.105  1.00  0.00    -0.261 N 
HETATM    9  H4  UNL     1      20.447   1.387  51.218  1.00  0.00     0.195 HD
BRANCH   8  10
HETATM   10  C5  UNL     1      21.200   0.441  52.970  1.00  0.00     0.056 A 
HETATM   11  C4  UNL     1      20.219  -0.472  53.358  1.00  0.00     0.031 A 
HETATM   12  C3  UNL     1      20.534  -1.513  54.207  1.00  0.00     0.004 A 
HETATM   13  C2  UNL     1      21.818  -1.699  54.706  1.00  0.00     0.019 A 
HETATM   14  C1  UNL     1      22.833  -0.818  54.353  1.00  0.00     0.013 A 
HETATM   15 BR1  UNL     1      24.624  -0.971  54.972  1.00  0.00    -0.051 Br
HETATM   16  C19 UNL     1      22.450   0.198  53.503  1.00  0.00     0.050 A 
ENDBRANCH   8  10
ENDBRANCH   7   8
ENDBRANCH   1   7
BRANCH   3  17
HETATM   17  N2  UNL     1      25.980   2.288  51.163  1.00  0.00    -0.360 N 
HETATM   18  H7  UNL     1      25.942   1.927  50.172  1.00  0.00     0.162 HD
BRANCH  17  19
HETATM   19  C9  UNL     1      26.820   1.564  52.066  1.00  0.00     0.026 C 
HETATM   20  C10 UNL     1      27.640   2.214  52.877  1.00  0.00     0.003 C 
HETATM   21  C11 UNL     1      28.479   1.392  53.797  1.00  0.00     0.044 C 
HETATM   22  C12 UNL     1      28.839   0.115  53.234  1.00  0.00    -0.005 A 
HETATM   23  C13 UNL     1      30.012  -0.687  53.580  1.00  0.00     0.025 A 
HETATM   24  C14 UNL     1      28.582  -1.265  53.627  1.00  0.00     0.029 A 
HETATM   25  C15 UNL     1      27.575  -0.576  52.706  1.00  0.00    -0.063 A 
HETATM   26  C16 UNL     1      26.735   0.097  51.940  1.00  0.00     0.033 C 
ENDBRANCH  17  19
ENDBRANCH   3  17
TORSDOF 5
ENDMDL
