MODEL 1
REMARK VINA RESULT:      -7.6      0.000      0.000
REMARK  6 active torsions:
REMARK  status: ('A' for Active; 'I' for Inactive)
REMARK    1  A    between atoms: C1_2  and  C2_3 
REMARK    2  A    between atoms: C2_3  and  N1_4 
REMARK    3  A    between atoms: N1_4  and  C3_5 
REMARK    4  A    between atoms: C6_9  and  C7_10 
REMARK    5  A    between atoms: C8_12  and  N4_13 
REMARK    6  A    between atoms: N4_13  and  C9_14 
ROOT
HETATM    1  C7  UNL     1      25.436  -0.869  53.298  1.00  0.00     0.284 C 
HETATM    2  N3  UNL     1      25.827  -0.005  52.205  1.00  0.00    -0.235 NA
HETATM    3  C8  UNL     1      26.482   1.097  52.310  1.00  0.00     0.143 C 
HETATM    4  C15 UNL     1      27.054   1.880  53.429  1.00  0.00     0.163 C 
HETATM    5  N5  UNL     1      26.935   1.495  54.680  1.00  0.00    -0.272 NA
HETATM    6  C16 UNL     1      26.257   0.295  55.155  1.00  0.00     0.319 C 
HETATM    7  O1  UNL     1      26.359  -0.755  54.299  1.00  0.00    -0.340 OA
ENDROOT
BRANCH   1   8
HETATM    8  C6  UNL     1      24.038  -0.550  53.688  1.00  0.00     0.011 A 
HETATM    9  C5  UNL     1      23.466  -1.277  54.737  1.00  0.00     0.128 A 
HETATM   10  N2  UNL     1      22.197  -1.009  55.110  1.00  0.00    -0.270 NA
HETATM   11  C4  UNL     1      21.469  -0.055  54.489  1.00  0.00     0.145 A 
HETATM   12  C3  UNL     1      21.957   0.704  53.450  1.00  0.00     0.046 A 
HETATM   13  C17 UNL     1      23.251   0.406  53.095  1.00  0.00     0.043 A 
BRANCH  12  14
HETATM   14  N1  UNL     1      21.277   1.736  52.766  1.00  0.00    -0.388 N 
HETATM   15  H5  UNL     1      21.613   2.719  52.938  1.00  0.00     0.159 HD
BRANCH  14  16
HETATM   16  C2  UNL     1      20.189   1.770  51.858  1.00  0.00     0.135 C 
BRANCH  16  17
HETATM   17  C1  UNL     1      20.182   0.730  50.791  1.00  0.00     0.134 C 
HETATM   18 CL1  UNL     1      21.498   0.850  49.626  1.00  0.00    -0.129 Cl
ENDBRANCH  16  17
ENDBRANCH  14  16
ENDBRANCH  12  14
ENDBRANCH   1   8
BRANCH   3  19
HETATM   19  N4  UNL     1      26.725   1.738  51.037  1.00  0.00    -0.340 N 
HETATM   20  H9  UNL     1      27.504   1.484  50.395  1.00  0.00     0.167 HD
BRANCH  19  21
HETATM   21  C9  UNL     1      25.894   2.796  50.550  1.00  0.00     0.035 A 
HETATM   22  C10 UNL     1      24.542   2.992  50.679  1.00  0.00     0.029 A 
HETATM   23  C11 UNL     1      23.970   4.105  50.107  1.00  0.00     0.004 A 
HETATM   24  C12 UNL     1      24.703   5.042  49.402  1.00  0.00     0.024 A 
HETATM   25  C13 UNL     1      26.077   4.840  49.272  1.00  0.00     0.036 A 
HETATM   26 CL2  UNL     1      26.956   6.056  48.370  1.00  0.00    -0.084 Cl
HETATM   27  C14 UNL     1      26.647   3.723  49.847  1.00  0.00     0.053 A 
ENDBRANCH  19  21
ENDBRANCH   3  19
TORSDOF 6
ENDMDL
MODEL 2
REMARK VINA RESULT:      -7.3      3.169      4.743
REMARK  6 active torsions:
REMARK  status: ('A' for Active; 'I' for Inactive)
REMARK    1  A    between atoms: C1_2  and  C2_3 
REMARK    2  A    between atoms: C2_3  and  N1_4 
REMARK    3  A    between atoms: N1_4  and  C3_5 
REMARK    4  A    between atoms: C6_9  and  C7_10 
REMARK    5  A    between atoms: C8_12  and  N4_13 
REMARK    6  A    between atoms: N4_13  and  C9_14 
ROOT
HETATM    1  C7  UNL     1      23.307   3.068  52.681  1.00  0.00     0.284 C 
HETATM    2  N3  UNL     1      24.745   3.020  52.523  1.00  0.00    -0.235 NA
HETATM    3  C8  UNL     1      25.382   3.001  51.406  1.00  0.00     0.143 C 
HETATM    4  C15 UNL     1      25.001   3.016  49.975  1.00  0.00     0.163 C 
HETATM    5  N5  UNL     1      23.745   3.039  49.590  1.00  0.00    -0.272 NA
HETATM    6  C16 UNL     1      22.574   3.053  50.458  1.00  0.00     0.319 C 
HETATM    7  O1  UNL     1      22.771   3.736  51.616  1.00  0.00    -0.340 OA
ENDROOT
BRANCH   1   8
HETATM    8  C6  UNL     1      22.798   1.686  52.881  1.00  0.00     0.011 A 
HETATM    9  C5  UNL     1      23.729   0.646  52.945  1.00  0.00     0.128 A 
HETATM   10  N2  UNL     1      23.294  -0.619  53.124  1.00  0.00    -0.270 NA
HETATM   11  C4  UNL     1      21.977  -0.898  53.241  1.00  0.00     0.145 A 
HETATM   12  C3  UNL     1      20.998   0.067  53.191  1.00  0.00     0.046 A 
HETATM   13  C17 UNL     1      21.475   1.343  53.008  1.00  0.00     0.043 A 
BRANCH  12  14
HETATM   14  N1  UNL     1      19.606  -0.134  53.331  1.00  0.00    -0.388 N 
HETATM   15  H5  UNL     1      19.181   0.134  54.257  1.00  0.00     0.159 HD
BRANCH  14  16
HETATM   16  C2  UNL     1      18.589  -0.639  52.483  1.00  0.00     0.135 C 
BRANCH  16  17
HETATM   17  C1  UNL     1      17.434  -1.300  53.153  1.00  0.00     0.134 C 
HETATM   18 CL1  UNL     1      17.768  -2.903  53.804  1.00  0.00    -0.129 Cl
ENDBRANCH  16  17
ENDBRANCH  14  16
ENDBRANCH  12  14
ENDBRANCH   1   8
BRANCH   3  19
HETATM   19  N4  UNL     1      26.818   2.953  51.571  1.00  0.00    -0.340 N 
HETATM   20  H9  UNL     1      27.485   3.569  51.060  1.00  0.00     0.167 HD
BRANCH  19  21
HETATM   21  C9  UNL     1      27.447   2.033  52.468  1.00  0.00     0.035 A 
HETATM   22  C10 UNL     1      28.327   2.260  53.496  1.00  0.00     0.029 A 
HETATM   23  C11 UNL     1      28.799   1.190  54.220  1.00  0.00     0.004 A 
HETATM   24  C12 UNL     1      28.425  -0.114  53.956  1.00  0.00     0.024 A 
HETATM   25  C13 UNL     1      27.530  -0.342  52.909  1.00  0.00     0.036 A 
HETATM   26 CL2  UNL     1      27.091  -2.011  52.617  1.00  0.00    -0.084 Cl
HETATM   27  C14 UNL     1      27.059   0.733  52.185  1.00  0.00     0.053 A 
ENDBRANCH  19  21
ENDBRANCH   3  19
TORSDOF 6
ENDMDL
MODEL 3
REMARK VINA RESULT:      -7.3      3.066      5.267
REMARK  6 active torsions:
REMARK  status: ('A' for Active; 'I' for Inactive)
REMARK    1  A    between atoms: C1_2  and  C2_3 
REMARK    2  A    between atoms: C2_3  and  N1_4 
REMARK    3  A    between atoms: N1_4  and  C3_5 
REMARK    4  A    between atoms: C6_9  and  C7_10 
REMARK    5  A    between atoms: C8_12  and  N4_13 
REMARK    6  A    between atoms: N4_13  and  C9_14 
ROOT
HETATM    1  C7  UNL     1      23.781   3.559  52.459  1.00  0.00     0.284 C 
HETATM    2  N3  UNL     1      24.847   3.060  53.302  1.00  0.00    -0.235 NA
HETATM    3  C8  UNL     1      26.002   2.662  52.903  1.00  0.00     0.143 C 
HETATM    4  C15 UNL     1      26.680   2.542  51.592  1.00  0.00     0.163 C 
HETATM    5  N5  UNL     1      26.084   2.869  50.467  1.00  0.00    -0.272 NA
HETATM    6  C16 UNL     1      24.727   3.379  50.325  1.00  0.00     0.319 C 
HETATM    7  O1  UNL     1      24.334   4.162  51.364  1.00  0.00    -0.340 OA
ENDROOT
BRANCH   1   8
HETATM    8  C6  UNL     1      22.842   2.446  52.160  1.00  0.00     0.011 A 
HETATM    9  C5  UNL     1      21.790   2.694  51.274  1.00  0.00     0.128 A 
HETATM   10  N2  UNL     1      20.920   1.703  50.987  1.00  0.00    -0.270 NA
HETATM   11  C4  UNL     1      21.047   0.476  51.541  1.00  0.00     0.145 A 
HETATM   12  C3  UNL     1      22.053   0.151  52.421  1.00  0.00     0.046 A 
HETATM   13  C17 UNL     1      22.920   1.183  52.691  1.00  0.00     0.043 A 
BRANCH  12  14
HETATM   14  N1  UNL     1      22.274  -1.108  53.023  1.00  0.00    -0.388 N 
HETATM   15  H5  UNL     1      22.862  -1.794  52.482  1.00  0.00     0.159 HD
BRANCH  14  16
HETATM   16  C2  UNL     1      21.871  -1.705  54.243  1.00  0.00     0.135 C 
BRANCH  16  17
HETATM   17  C1  UNL     1      22.738  -1.445  55.427  1.00  0.00     0.134 C 
HETATM   18 CL1  UNL     1      24.430  -1.125  55.056  1.00  0.00    -0.129 Cl
ENDBRANCH  16  17
ENDBRANCH  14  16
ENDBRANCH  12  14
ENDBRANCH   1   8
BRANCH   3  19
HETATM   19  N4  UNL     1      26.855   2.219  53.983  1.00  0.00    -0.340 N 
HETATM   20  H9  UNL     1      26.829   2.614  54.946  1.00  0.00     0.167 HD
BRANCH  19  21
HETATM   21  C9  UNL     1      27.825   1.182  53.807  1.00  0.00     0.035 A 
HETATM   22  C10 UNL     1      29.181   1.192  54.011  1.00  0.00     0.029 A 
HETATM   23  C11 UNL     1      29.904   0.048  53.762  1.00  0.00     0.004 A 
HETATM   24  C12 UNL     1      29.320  -1.120  53.311  1.00  0.00     0.024 A 
HETATM   25  C13 UNL     1      27.939  -1.129  53.104  1.00  0.00     0.036 A 
HETATM   26 CL2  UNL     1      27.252  -2.633  52.532  1.00  0.00    -0.084 Cl
HETATM   27  C14 UNL     1      27.218   0.020  53.355  1.00  0.00     0.053 A 
ENDBRANCH  19  21
ENDBRANCH   3  19
TORSDOF 6
ENDMDL
MODEL 4
REMARK VINA RESULT:      -7.3      3.184      5.224
REMARK  6 active torsions:
REMARK  status: ('A' for Active; 'I' for Inactive)
REMARK    1  A    between atoms: C1_2  and  C2_3 
REMARK    2  A    between atoms: C2_3  and  N1_4 
REMARK    3  A    between atoms: N1_4  and  C3_5 
REMARK    4  A    between atoms: C6_9  and  C7_10 
REMARK    5  A    between atoms: C8_12  and  N4_13 
REMARK    6  A    between atoms: N4_13  and  C9_14 
ROOT
HETATM    1  C7  UNL     1      22.905   4.317  52.317  1.00  0.00     0.284 C 
HETATM    2  N3  UNL     1      24.044   3.649  52.910  1.00  0.00    -0.235 NA
HETATM    3  C8  UNL     1      24.996   3.067  52.271  1.00  0.00     0.143 C 
HETATM    4  C15 UNL     1      25.322   2.840  50.844  1.00  0.00     0.163 C 
HETATM    5  N5  UNL     1      24.541   3.263  49.876  1.00  0.00    -0.272 NA
HETATM    6  C16 UNL     1      23.287   3.989  50.031  1.00  0.00     0.319 C 
HETATM    7  O1  UNL     1      23.278   4.824  51.103  1.00  0.00    -0.340 OA
ENDROOT
BRANCH   1   8
HETATM    8  C6  UNL     1      21.757   3.374  52.283  1.00  0.00     0.011 A 
HETATM    9  C5  UNL     1      20.489   3.894  52.005  1.00  0.00     0.128 A 
HETATM   10  N2  UNL     1      19.428   3.060  51.971  1.00  0.00    -0.270 NA
HETATM   11  C4  UNL     1      19.568   1.736  52.201  1.00  0.00     0.145 A 
HETATM   12  C3  UNL     1      20.779   1.146  52.480  1.00  0.00     0.046 A 
HETATM   13  C17 UNL     1      21.838   2.023  52.508  1.00  0.00     0.043 A 
BRANCH  12  14
HETATM   14  N1  UNL     1      21.018  -0.227  52.706  1.00  0.00    -0.388 N 
HETATM   15  H5  UNL     1      20.241  -0.891  52.449  1.00  0.00     0.159 HD
BRANCH  14  16
HETATM   16  C2  UNL     1      22.108  -0.970  53.225  1.00  0.00     0.135 C 
BRANCH  16  17
HETATM   17  C1  UNL     1      21.943  -1.514  54.603  1.00  0.00     0.134 C 
HETATM   18 CL1  UNL     1      23.378  -1.414  55.619  1.00  0.00    -0.129 Cl
ENDBRANCH  16  17
ENDBRANCH  14  16
ENDBRANCH  12  14
ENDBRANCH   1   8
BRANCH   3  19
HETATM   19  N4  UNL     1      25.995   2.489  53.141  1.00  0.00    -0.340 N 
HETATM   20  H9  UNL     1      26.491   3.014  53.891  1.00  0.00     0.167 HD
BRANCH  19  21
HETATM   21  C9  UNL     1      26.390   1.117  53.036  1.00  0.00     0.035 A 
HETATM   22  C10 UNL     1      25.647   0.001  52.744  1.00  0.00     0.029 A 
HETATM   23  C11 UNL     1      26.270  -1.225  52.707  1.00  0.00     0.004 A 
HETATM   24  C12 UNL     1      27.621  -1.384  52.952  1.00  0.00     0.024 A 
HETATM   25  C13 UNL     1      28.374  -0.247  53.249  1.00  0.00     0.036 A 
HETATM   26 CL2  UNL     1      30.079  -0.505  53.551  1.00  0.00    -0.084 Cl
HETATM   27  C14 UNL     1      27.746   0.981  53.285  1.00  0.00     0.053 A 
ENDBRANCH  19  21
ENDBRANCH   3  19
TORSDOF 6
ENDMDL
MODEL 5
REMARK VINA RESULT:      -7.0      2.412      4.684
REMARK  6 active torsions:
REMARK  status: ('A' for Active; 'I' for Inactive)
REMARK    1  A    between atoms: C1_2  and  C2_3 
REMARK    2  A    between atoms: C2_3  and  N1_4 
REMARK    3  A    between atoms: N1_4  and  C3_5 
REMARK    4  A    between atoms: C6_9  and  C7_10 
REMARK    5  A    between atoms: C8_12  and  N4_13 
REMARK    6  A    between atoms: N4_13  and  C9_14 
ROOT
HETATM    1  C7  UNL     1      20.507   2.033  52.740  1.00  0.00     0.284 C 
HETATM    2  N3  UNL     1      21.396   2.950  52.058  1.00  0.00    -0.235 NA
HETATM    3  C8  UNL     1      21.689   2.927  50.806  1.00  0.00     0.143 C 
HETATM    4  C15 UNL     1      21.314   2.080  49.651  1.00  0.00     0.163 C 
HETATM    5  N5  UNL     1      20.504   1.052  49.776  1.00  0.00    -0.272 NA
HETATM    6  C16 UNL     1      19.870   0.596  51.006  1.00  0.00     0.319 C 
HETATM    7  O1  UNL     1      19.555   1.607  51.857  1.00  0.00    -0.340 OA
ENDROOT
BRANCH   1   8
HETATM    8  C6  UNL     1      21.315   0.955  53.367  1.00  0.00     0.011 A 
HETATM    9  C5  UNL     1      20.704   0.155  54.336  1.00  0.00     0.128 A 
HETATM   10  N2  UNL     1      21.415  -0.830  54.923  1.00  0.00    -0.270 NA
HETATM   11  C4  UNL     1      22.706  -1.056  54.593  1.00  0.00     0.145 A 
HETATM   12  C3  UNL     1      23.381  -0.315  53.650  1.00  0.00     0.046 A 
HETATM   13  C17 UNL     1      22.627   0.679  53.072  1.00  0.00     0.043 A 
BRANCH  12  14
HETATM   14  N1  UNL     1      24.716  -0.500  53.227  1.00  0.00    -0.388 N 
HETATM   15  H5  UNL     1      24.876  -0.582  52.190  1.00  0.00     0.159 HD
BRANCH  14  16
HETATM   16  C2  UNL     1      25.959  -0.613  53.898  1.00  0.00     0.135 C 
BRANCH  16  17
HETATM   17  C1  UNL     1      26.955   0.464  53.636  1.00  0.00     0.134 C 
HETATM   18 CL1  UNL     1      26.375   2.102  53.929  1.00  0.00    -0.129 Cl
ENDBRANCH  16  17
ENDBRANCH  14  16
ENDBRANCH  12  14
ENDBRANCH   1   8
BRANCH   3  19
HETATM   19  N4  UNL     1      22.606   3.975  50.418  1.00  0.00    -0.340 N 
HETATM   20  H9  UNL     1      22.321   4.956  50.217  1.00  0.00     0.167 HD
BRANCH  19  21
HETATM   21  C9  UNL     1      24.011   3.739  50.276  1.00  0.00     0.035 A 
HETATM   22  C10 UNL     1      24.784   2.698  50.723  1.00  0.00     0.029 A 
HETATM   23  C11 UNL     1      26.134   2.705  50.456  1.00  0.00     0.004 A 
HETATM   24  C12 UNL     1      26.750   3.722  49.752  1.00  0.00     0.024 A 
HETATM   25  C13 UNL     1      25.961   4.780  49.298  1.00  0.00     0.036 A 
HETATM   26 CL2  UNL     1      26.792   6.041  48.412  1.00  0.00    -0.084 Cl
HETATM   27  C14 UNL     1      24.608   4.770  49.567  1.00  0.00     0.053 A 
ENDBRANCH  19  21
ENDBRANCH   3  19
TORSDOF 6
ENDMDL
MODEL 6
REMARK VINA RESULT:      -7.0      3.067      7.062
REMARK  6 active torsions:
REMARK  status: ('A' for Active; 'I' for Inactive)
REMARK    1  A    between atoms: C1_2  and  C2_3 
REMARK    2  A    between atoms: C2_3  and  N1_4 
REMARK    3  A    between atoms: N1_4  and  C3_5 
REMARK    4  A    between atoms: C6_9  and  C7_10 
REMARK    5  A    between atoms: C8_12  and  N4_13 
REMARK    6  A    between atoms: N4_13  and  C9_14 
ROOT
HETATM    1  C7  UNL     1      23.260   3.283  49.826  1.00  0.00     0.284 C 
HETATM    2  N3  UNL     1      22.194   2.448  50.336  1.00  0.00    -0.235 NA
HETATM    3  C8  UNL     1      21.384   2.752  51.287  1.00  0.00     0.143 C 
HETATM    4  C15 UNL     1      21.195   3.922  52.175  1.00  0.00     0.163 C 
HETATM    5  N5  UNL     1      21.971   4.981  52.107  1.00  0.00    -0.272 NA
HETATM    6  C16 UNL     1      23.090   5.174  51.196  1.00  0.00     0.319 C 
HETATM    7  O1  UNL     1      22.903   4.594  49.982  1.00  0.00    -0.340 OA
ENDROOT
BRANCH   1   8
HETATM    8  C6  UNL     1      24.534   2.893  50.485  1.00  0.00     0.011 A 
HETATM    9  C5  UNL     1      25.720   3.460  50.009  1.00  0.00     0.128 A 
HETATM   10  N2  UNL     1      26.892   3.122  50.588  1.00  0.00    -0.270 NA
HETATM   11  C4  UNL     1      26.940   2.246  51.616  1.00  0.00     0.145 A 
HETATM   12  C3  UNL     1      25.820   1.645  52.143  1.00  0.00     0.046 A 
HETATM   13  C17 UNL     1      24.645   2.011  51.531  1.00  0.00     0.043 A 
BRANCH  12  14
HETATM   14  N1  UNL     1      25.778   0.742  53.229  1.00  0.00    -0.388 N 
HETATM   15  H5  UNL     1      25.169  -0.109  53.112  1.00  0.00     0.159 HD
BRANCH  14  16
HETATM   16  C2  UNL     1      26.386   0.706  54.508  1.00  0.00     0.135 C 
BRANCH  16  17
HETATM   17  C1  UNL     1      27.744   0.095  54.580  1.00  0.00     0.134 C 
HETATM   18 CL1  UNL     1      28.181  -0.913  53.203  1.00  0.00    -0.129 Cl
ENDBRANCH  16  17
ENDBRANCH  14  16
ENDBRANCH  12  14
ENDBRANCH   1   8
BRANCH   3  19
HETATM   19  N4  UNL     1      20.423   1.711  51.572  1.00  0.00    -0.340 N 
HETATM   20  H9  UNL     1      19.495   1.629  51.104  1.00  0.00     0.167 HD
BRANCH  19  21
HETATM   21  C9  UNL     1      20.677   0.688  52.540  1.00  0.00     0.035 A 
HETATM   22  C10 UNL     1      21.789   0.449  53.306  1.00  0.00     0.029 A 
HETATM   23  C11 UNL     1      21.787  -0.618  54.173  1.00  0.00     0.004 A 
HETATM   24  C12 UNL     1      20.706  -1.468  54.309  1.00  0.00     0.024 A 
HETATM   25  C13 UNL     1      19.575  -1.224  53.528  1.00  0.00     0.036 A 
HETATM   26 CL2  UNL     1      18.235  -2.330  53.739  1.00  0.00    -0.084 Cl
HETATM   27  C14 UNL     1      19.581  -0.152  52.659  1.00  0.00     0.053 A 
ENDBRANCH  19  21
ENDBRANCH   3  19
TORSDOF 6
ENDMDL
MODEL 7
REMARK VINA RESULT:      -6.9      3.619      7.431
REMARK  6 active torsions:
REMARK  status: ('A' for Active; 'I' for Inactive)
REMARK    1  A    between atoms: C1_2  and  C2_3 
REMARK    2  A    between atoms: C2_3  and  N1_4 
REMARK    3  A    between atoms: N1_4  and  C3_5 
REMARK    4  A    between atoms: C6_9  and  C7_10 
REMARK    5  A    between atoms: C8_12  and  N4_13 
REMARK    6  A    between atoms: N4_13  and  C9_14 
ROOT
HETATM    1  C7  UNL     1      24.356   3.446  49.569  1.00  0.00     0.284 C 
HETATM    2  N3  UNL     1      25.372   3.021  50.508  1.00  0.00    -0.235 NA
HETATM    3  C8  UNL     1      25.240   2.952  51.785  1.00  0.00     0.143 C 
HETATM    4  C15 UNL     1      24.152   3.236  52.748  1.00  0.00     0.163 C 
HETATM    5  N5  UNL     1      22.979   3.687  52.360  1.00  0.00    -0.272 NA
HETATM    6  C16 UNL     1      22.572   3.969  50.990  1.00  0.00     0.319 C 
HETATM    7  O1  UNL     1      23.128   3.130  50.079  1.00  0.00    -0.340 OA
ENDROOT
BRANCH   1   8
HETATM    8  C6  UNL     1      24.560   4.885  49.258  1.00  0.00     0.011 A 
HETATM    9  C5  UNL     1      23.695   5.487  48.339  1.00  0.00     0.128 A 
HETATM   10  N2  UNL     1      23.858   6.792  48.036  1.00  0.00    -0.270 NA
HETATM   11  C4  UNL     1      24.842   7.526  48.603  1.00  0.00     0.145 A 
HETATM   12  C3  UNL     1      25.733   7.010  49.515  1.00  0.00     0.046 A 
HETATM   13  C17 UNL     1      25.539   5.680  49.801  1.00  0.00     0.043 A 
BRANCH  12  14
HETATM   14  N1  UNL     1      26.769   7.710  50.172  1.00  0.00    -0.388 N 
HETATM   15  H5  UNL     1      27.413   7.140  50.780  1.00  0.00     0.159 HD
BRANCH  14  16
HETATM   16  C2  UNL     1      27.171   9.069  50.218  1.00  0.00     0.135 C 
BRANCH  16  17
HETATM   17  C1  UNL     1      28.091   9.525  49.138  1.00  0.00     0.134 C 
HETATM   18 CL1  UNL     1      29.755   8.968  49.293  1.00  0.00    -0.129 Cl
ENDBRANCH  16  17
ENDBRANCH  14  16
ENDBRANCH  12  14
ENDBRANCH   1   8
BRANCH   3  19
HETATM   19  N4  UNL     1      26.434   2.490  52.456  1.00  0.00    -0.340 N 
HETATM   20  H9  UNL     1      27.152   3.121  52.871  1.00  0.00     0.167 HD
BRANCH  19  21
HETATM   21  C9  UNL     1      26.729   1.098  52.607  1.00  0.00     0.035 A 
HETATM   22  C10 UNL     1      25.936  -0.003  52.403  1.00  0.00     0.029 A 
HETATM   23  C11 UNL     1      26.461  -1.255  52.624  1.00  0.00     0.004 A 
HETATM   24  C12 UNL     1      27.762  -1.455  53.045  1.00  0.00     0.024 A 
HETATM   25  C13 UNL     1      28.567  -0.334  53.252  1.00  0.00     0.036 A 
HETATM   26 CL2  UNL     1      30.205  -0.645  53.786  1.00  0.00    -0.084 Cl
HETATM   27  C14 UNL     1      28.037   0.920  53.030  1.00  0.00     0.053 A 
ENDBRANCH  19  21
ENDBRANCH   3  19
TORSDOF 6
ENDMDL
MODEL 8
REMARK VINA RESULT:      -6.9      3.139      6.671
REMARK  6 active torsions:
REMARK  status: ('A' for Active; 'I' for Inactive)
REMARK    1  A    between atoms: C1_2  and  C2_3 
REMARK    2  A    between atoms: C2_3  and  N1_4 
REMARK    3  A    between atoms: N1_4  and  C3_5 
REMARK    4  A    between atoms: C6_9  and  C7_10 
REMARK    5  A    between atoms: C8_12  and  N4_13 
REMARK    6  A    between atoms: N4_13  and  C9_14 
ROOT
HETATM    1  C7  UNL     1      24.160   2.333  51.016  1.00  0.00     0.284 C 
HETATM    2  N3  UNL     1      22.852   1.815  50.677  1.00  0.00    -0.235 NA
HETATM    3  C8  UNL     1      21.725   2.295  51.067  1.00  0.00     0.143 C 
HETATM    4  C15 UNL     1      21.301   3.430  51.919  1.00  0.00     0.163 C 
HETATM    5  N5  UNL     1      22.170   4.225  52.502  1.00  0.00    -0.272 NA
HETATM    6  C16 UNL     1      23.622   4.132  52.414  1.00  0.00     0.319 C 
HETATM    7  O1  UNL     1      24.061   3.683  51.210  1.00  0.00    -0.340 OA
ENDROOT
BRANCH   1   8
HETATM    8  C6  UNL     1      24.698   1.567  52.171  1.00  0.00     0.011 A 
HETATM    9  C5  UNL     1      23.920   0.526  52.687  1.00  0.00     0.128 A 
HETATM   10  N2  UNL     1      24.383  -0.184  53.737  1.00  0.00    -0.270 NA
HETATM   11  C4  UNL     1      25.580   0.092  54.299  1.00  0.00     0.145 A 
HETATM   12  C3  UNL     1      26.405   1.098  53.851  1.00  0.00     0.046 A 
HETATM   13  C17 UNL     1      25.905   1.801  52.782  1.00  0.00     0.043 A 
BRANCH  12  14
HETATM   14  N1  UNL     1      27.679   1.435  54.361  1.00  0.00    -0.388 N 
HETATM   15  H5  UNL     1      27.877   2.461  54.497  1.00  0.00     0.159 HD
BRANCH  14  16
HETATM   16  C2  UNL     1      28.818   0.688  54.751  1.00  0.00     0.135 C 
BRANCH  16  17
HETATM   17  C1  UNL     1      29.666   0.148  53.651  1.00  0.00     0.134 C 
HETATM   18 CL1  UNL     1      29.352  -1.531  53.223  1.00  0.00    -0.129 Cl
ENDBRANCH  16  17
ENDBRANCH  14  16
ENDBRANCH  12  14
ENDBRANCH   1   8
BRANCH   3  19
HETATM   19  N4  UNL     1      20.588   1.560  50.561  1.00  0.00    -0.340 N 
HETATM   20  H9  UNL     1      20.257   1.602  49.574  1.00  0.00     0.167 HD
BRANCH  19  21
HETATM   21  C9  UNL     1      19.810   0.697  51.397  1.00  0.00     0.035 A 
HETATM   22  C10 UNL     1      18.473   0.393  51.356  1.00  0.00     0.029 A 
HETATM   23  C11 UNL     1      17.956  -0.475  52.289  1.00  0.00     0.004 A 
HETATM   24  C12 UNL     1      18.729  -1.061  53.273  1.00  0.00     0.024 A 
HETATM   25  C13 UNL     1      20.089  -0.750  53.313  1.00  0.00     0.036 A 
HETATM   26 CL2  UNL     1      21.022  -1.518  54.580  1.00  0.00    -0.084 Cl
HETATM   27  C14 UNL     1      20.604   0.122  52.376  1.00  0.00     0.053 A 
ENDBRANCH  19  21
ENDBRANCH   3  19
TORSDOF 6
ENDMDL
MODEL 9
REMARK VINA RESULT:      -6.9      3.520      7.074
REMARK  6 active torsions:
REMARK  status: ('A' for Active; 'I' for Inactive)
REMARK    1  A    between atoms: C1_2  and  C2_3 
REMARK    2  A    between atoms: C2_3  and  N1_4 
REMARK    3  A    between atoms: N1_4  and  C3_5 
REMARK    4  A    between atoms: C6_9  and  C7_10 
REMARK    5  A    between atoms: C8_12  and  N4_13 
REMARK    6  A    between atoms: N4_13  and  C9_14 
ROOT
HETATM    1  C7  UNL     1      24.116   3.208  49.906  1.00  0.00     0.284 C 
HETATM    2  N3  UNL     1      24.672   2.177  50.756  1.00  0.00    -0.235 NA
HETATM    3  C8  UNL     1      24.719   2.201  52.041  1.00  0.00     0.143 C 
HETATM    4  C15 UNL     1      24.295   3.153  53.093  1.00  0.00     0.163 C 
HETATM    5  N5  UNL     1      23.729   4.303  52.803  1.00  0.00    -0.272 NA
HETATM    6  C16 UNL     1      23.438   4.812  51.470  1.00  0.00     0.319 C 
HETATM    7  O1  UNL     1      23.109   3.838  50.582  1.00  0.00    -0.340 OA
ENDROOT
BRANCH   1   8
HETATM    8  C6  UNL     1      25.216   4.094  49.441  1.00  0.00     0.011 A 
HETATM    9  C5  UNL     1      26.522   3.594  49.479  1.00  0.00     0.128 A 
HETATM   10  N2  UNL     1      27.540   4.378  49.065  1.00  0.00    -0.270 NA
HETATM   11  C4  UNL     1      27.321   5.634  48.617  1.00  0.00     0.145 A 
HETATM   12  C3  UNL     1      26.069   6.199  48.548  1.00  0.00     0.046 A 
HETATM   13  C17 UNL     1      25.056   5.375  48.977  1.00  0.00     0.043 A 
BRANCH  12  14
HETATM   14  N1  UNL     1      25.750   7.490  48.071  1.00  0.00    -0.388 N 
HETATM   15  H5  UNL     1      26.119   7.746  47.118  1.00  0.00     0.159 HD
BRANCH  14  16
HETATM   16  C2  UNL     1      25.017   8.584  48.593  1.00  0.00     0.135 C 
BRANCH  16  17
HETATM   17  C1  UNL     1      25.795   9.603  49.352  1.00  0.00     0.134 C 
HETATM   18 CL1  UNL     1      27.199   8.978  50.212  1.00  0.00    -0.129 Cl
ENDBRANCH  16  17
ENDBRANCH  14  16
ENDBRANCH  12  14
ENDBRANCH   1   8
BRANCH   3  19
HETATM   19  N4  UNL     1      25.334   1.023  52.610  1.00  0.00    -0.340 N 
HETATM   20  H9  UNL     1      24.835   0.122  52.767  1.00  0.00     0.167 HD
BRANCH  19  21
HETATM   21  C9  UNL     1      26.707   1.003  53.012  1.00  0.00     0.035 A 
HETATM   22  C10 UNL     1      27.531   2.029  53.402  1.00  0.00     0.029 A 
HETATM   23  C11 UNL     1      28.834   1.747  53.742  1.00  0.00     0.004 A 
HETATM   24  C12 UNL     1      29.354   0.467  53.708  1.00  0.00     0.024 A 
HETATM   25  C13 UNL     1      28.514  -0.575  53.310  1.00  0.00     0.036 A 
HETATM   26 CL2  UNL     1      29.224  -2.174  53.284  1.00  0.00    -0.084 Cl
HETATM   27  C14 UNL     1      27.208  -0.288  52.970  1.00  0.00     0.053 A 
ENDBRANCH  19  21
ENDBRANCH   3  19
TORSDOF 6
ENDMDL
