MODEL 1
REMARK VINA RESULT:      -7.8      0.000      0.000
REMARK  7 active torsions:
REMARK  status: ('A' for Active; 'I' for Inactive)
REMARK    1  A    between atoms: C2_2  and  N1_3 
REMARK    2  A    between atoms: C5_6  and  C6_7 
REMARK    3  A    between atoms: C6_7  and  C7_8 
REMARK    4  A    between atoms: C8_9  and  C9_10 
REMARK    5  A    between atoms: C10_11  and  O1_12 
REMARK    6  A    between atoms: C13_16  and  C14_17 
REMARK    7  A    between atoms: C15_18  and  C16_19 
ROOT
HETATM    1  C9  UNL     1      25.400   3.263  50.182  1.00  0.00    -0.009 A 
HETATM    2  C10 UNL     1      25.940   2.572  51.134  1.00  0.00     0.077 A 
HETATM    3  C12 UNL     1      25.566   1.734  52.232  1.00  0.00     0.118 A 
HETATM    4  P1  UNL     1      24.260   1.035  53.072  1.00  0.00    -0.077 P 
HETATM    5  C13 UNL     1      22.520   1.420  52.417  1.00  0.00    -0.048 A 
HETATM    6  C17 UNL     1      21.900   2.123  51.427  1.00  0.00     0.108 A 
HETATM    7  C18 UNL     1      22.678   2.923  50.424  1.00  0.00     0.253 A 
HETATM    8  N2  UNL     1      23.073   3.669  49.462  1.00  0.00    -0.442 NA
HETATM    9  C19 UNL     1      24.478   3.914  49.259  1.00  0.00     0.144 A 
ENDROOT
BRANCH   1  10
HETATM   10  C8  UNL     1      26.745   3.690  49.674  1.00  0.00     0.007 C 
HETATM   11  C7  UNL     1      27.249   4.682  48.941  1.00  0.00    -0.024 C 
BRANCH  11  12
HETATM   12  C6  UNL     1      28.253   5.517  48.226  1.00  0.00     0.062 C 
BRANCH  12  13
HETATM   13  C5  UNL     1      27.780   6.931  48.076  1.00  0.00     0.227 C 
HETATM   14  C4  UNL     1      28.483   7.701  47.021  1.00  0.00     0.066 C 
HETATM   15  C3  UNL     1      29.844   8.124  47.593  1.00  0.00     0.277 C 
HETATM   16  N1  UNL     1      29.553   9.187  48.540  1.00  0.00     0.116 N 
HETATM   17  C20 UNL     1      28.324   8.971  49.232  1.00  0.00     0.540 C 
HETATM   18  N3  UNL     1      27.926   7.590  49.358  1.00  0.00     0.116 N 
HETATM   19  H27 UNL     1      28.548   7.040  49.987  1.00  0.00     0.318 HD
BRANCH  16  20
HETATM   20  C2  UNL     1      30.701   9.376  49.373  1.00  0.00     0.270 C 
HETATM   21  C1  UNL     1      31.536   8.121  49.511  1.00  0.00     0.037 C 
ENDBRANCH  16  20
ENDBRANCH  12  13
ENDBRANCH  11  12
ENDBRANCH   1  10
BRANCH   2  22
HETATM   22  O1  UNL     1      27.253   2.354  51.489  1.00  0.00    -0.355 OA
HETATM   23  C11 UNL     1      27.690   2.128  52.815  1.00  0.00     0.210 C 
ENDBRANCH   2  22
BRANCH   5  24
HETATM   24  C14 UNL     1      21.365   0.847  53.081  1.00  0.00     0.005 C 
HETATM   25  C15 UNL     1      21.224  -0.330  53.662  1.00  0.00    -0.011 C 
BRANCH  25  26
HETATM   26  C16 UNL     1      21.810  -1.617  54.040  1.00  0.00     0.141 C 
HETATM   27 CL1  UNL     1      22.852  -1.421  55.469  1.00  0.00    -0.126 Cl
ENDBRANCH  25  26
ENDBRANCH   5  24
TORSDOF 7
ENDMDL
MODEL 2
REMARK VINA RESULT:      -7.6      1.899      2.707
REMARK  7 active torsions:
REMARK  status: ('A' for Active; 'I' for Inactive)
REMARK    1  A    between atoms: C2_2  and  N1_3 
REMARK    2  A    between atoms: C5_6  and  C6_7 
REMARK    3  A    between atoms: C6_7  and  C7_8 
REMARK    4  A    between atoms: C8_9  and  C9_10 
REMARK    5  A    between atoms: C10_11  and  O1_12 
REMARK    6  A    between atoms: C13_16  and  C14_17 
REMARK    7  A    between atoms: C15_18  and  C16_19 
ROOT
HETATM    1  C9  UNL     1      25.625   2.971  50.452  1.00  0.00    -0.009 A 
HETATM    2  C10 UNL     1      24.383   2.960  50.087  1.00  0.00     0.077 A 
HETATM    3  C12 UNL     1      23.148   2.312  50.409  1.00  0.00     0.118 A 
HETATM    4  P1  UNL     1      22.394   1.173  51.427  1.00  0.00    -0.077 P 
HETATM    5  C13 UNL     1      23.495   0.324  52.720  1.00  0.00    -0.048 A 
HETATM    6  C17 UNL     1      24.788   0.304  53.152  1.00  0.00     0.108 A 
HETATM    7  C18 UNL     1      25.842   1.167  52.521  1.00  0.00     0.253 A 
HETATM    8  N2  UNL     1      26.916   1.774  52.183  1.00  0.00    -0.442 NA
HETATM    9  C19 UNL     1      26.906   2.730  51.105  1.00  0.00     0.144 A 
ENDROOT
BRANCH   1  10
HETATM   10  C8  UNL     1      25.958   4.019  49.432  1.00  0.00     0.007 C 
HETATM   11  C7  UNL     1      27.023   4.731  49.065  1.00  0.00    -0.024 C 
BRANCH  11  12
HETATM   12  C6  UNL     1      27.854   5.711  48.313  1.00  0.00     0.062 C 
BRANCH  12  13
HETATM   13  C5  UNL     1      27.237   7.076  48.329  1.00  0.00     0.227 C 
HETATM   14  C4  UNL     1      27.695   7.965  47.234  1.00  0.00     0.066 C 
HETATM   15  C3  UNL     1      29.084   8.492  47.623  1.00  0.00     0.277 C 
HETATM   16  N1  UNL     1      28.848   9.470  48.671  1.00  0.00     0.116 N 
HETATM   17  C20 UNL     1      27.766   9.098  49.523  1.00  0.00     0.540 C 
HETATM   18  N3  UNL     1      27.520   7.680  49.616  1.00  0.00     0.116 N 
HETATM   19  H27 UNL     1      28.278   7.162  50.107  1.00  0.00     0.318 HD
BRANCH  16  20
HETATM   20  C2  UNL     1      30.090   9.730  49.334  1.00  0.00     0.270 C 
HETATM   21  C1  UNL     1      31.050   8.562  49.256  1.00  0.00     0.037 C 
ENDBRANCH  16  20
ENDBRANCH  12  13
ENDBRANCH  11  12
ENDBRANCH   1  10
BRANCH   2  22
HETATM   22  O1  UNL     1      23.696   3.665  49.123  1.00  0.00    -0.355 OA
HETATM   23  C11 UNL     1      22.738   3.093  48.254  1.00  0.00     0.210 C 
ENDBRANCH   2  22
BRANCH   5  24
HETATM   24  C14 UNL     1      22.913  -0.648  53.625  1.00  0.00     0.005 C 
HETATM   25  C15 UNL     1      21.732  -0.649  54.214  1.00  0.00    -0.011 C 
BRANCH  25  26
HETATM   26  C16 UNL     1      20.444   0.010  54.438  1.00  0.00     0.141 C 
HETATM   27 CL1  UNL     1      19.230  -0.613  53.296  1.00  0.00    -0.126 Cl
ENDBRANCH  25  26
ENDBRANCH   5  24
TORSDOF 7
ENDMDL
MODEL 3
REMARK VINA RESULT:      -7.5      4.275      8.871
REMARK  7 active torsions:
REMARK  status: ('A' for Active; 'I' for Inactive)
REMARK    1  A    between atoms: C2_2  and  N1_3 
REMARK    2  A    between atoms: C5_6  and  C6_7 
REMARK    3  A    between atoms: C6_7  and  C7_8 
REMARK    4  A    between atoms: C8_9  and  C9_10 
REMARK    5  A    between atoms: C10_11  and  O1_12 
REMARK    6  A    between atoms: C13_16  and  C14_17 
REMARK    7  A    between atoms: C15_18  and  C16_19 
ROOT
HETATM    1  C9  UNL     1      25.544   4.593  50.222  1.00  0.00    -0.009 A 
HETATM    2  C10 UNL     1      24.915   5.684  50.521  1.00  0.00     0.077 A 
HETATM    3  C12 UNL     1      24.989   7.094  50.289  1.00  0.00     0.118 A 
HETATM    4  P1  UNL     1      25.854   8.336  49.507  1.00  0.00    -0.077 P 
HETATM    5  C13 UNL     1      27.364   7.811  48.484  1.00  0.00    -0.048 A 
HETATM    6  C17 UNL     1      28.058   6.692  48.130  1.00  0.00     0.108 A 
HETATM    7  C18 UNL     1      27.650   5.329  48.607  1.00  0.00     0.253 A 
HETATM    8  N2  UNL     1      27.536   4.079  48.857  1.00  0.00    -0.442 NA
HETATM    9  C19 UNL     1      26.472   3.597  49.699  1.00  0.00     0.144 A 
ENDROOT
BRANCH   1  10
HETATM   10  C8  UNL     1      24.567   3.767  51.004  1.00  0.00     0.007 C 
HETATM   11  C7  UNL     1      24.607   2.838  51.959  1.00  0.00    -0.024 C 
BRANCH  11  12
HETATM   12  C6  UNL     1      24.130   1.839  52.954  1.00  0.00     0.062 C 
BRANCH  12  13
HETATM   13  C5  UNL     1      24.683   0.476  52.666  1.00  0.00     0.227 C 
HETATM   14  C4  UNL     1      24.831  -0.387  53.863  1.00  0.00     0.066 C 
HETATM   15  C3  UNL     1      26.098   0.067  54.601  1.00  0.00     0.277 C 
HETATM   16  N1  UNL     1      27.209  -0.411  53.797  1.00  0.00     0.116 N 
HETATM   17  C20 UNL     1      26.925  -0.359  52.400  1.00  0.00     0.540 C 
HETATM   18  N3  UNL     1      25.963   0.642  52.008  1.00  0.00     0.116 N 
HETATM   19  H27 UNL     1      26.313   1.617  52.123  1.00  0.00     0.318 HD
BRANCH  16  20
HETATM   20  C2  UNL     1      28.394   0.278  54.208  1.00  0.00     0.270 C 
HETATM   21  C1  UNL     1      29.656  -0.345  53.650  1.00  0.00     0.037 C 
ENDBRANCH  16  20
ENDBRANCH  12  13
ENDBRANCH  11  12
ENDBRANCH   1  10
BRANCH   2  22
HETATM   22  O1  UNL     1      23.787   5.924  51.274  1.00  0.00    -0.355 OA
HETATM   23  C11 UNL     1      22.697   6.715  50.840  1.00  0.00     0.210 C 
ENDBRANCH   2  22
BRANCH   5  24
HETATM   24  C14 UNL     1      28.137   8.818  47.786  1.00  0.00     0.005 C 
HETATM   25  C15 UNL     1      29.181   9.515  48.197  1.00  0.00    -0.011 C 
BRANCH  25  26
HETATM   26  C16 UNL     1      30.142   9.822  49.258  1.00  0.00     0.141 C 
HETATM   27 CL1  UNL     1      31.309   8.490  49.431  1.00  0.00    -0.126 Cl
ENDBRANCH  25  26
ENDBRANCH   5  24
TORSDOF 7
ENDMDL
MODEL 4
REMARK VINA RESULT:      -7.3      6.187      7.930
REMARK  7 active torsions:
REMARK  status: ('A' for Active; 'I' for Inactive)
REMARK    1  A    between atoms: C2_2  and  N1_3 
REMARK    2  A    between atoms: C5_6  and  C6_7 
REMARK    3  A    between atoms: C6_7  and  C7_8 
REMARK    4  A    between atoms: C8_9  and  C9_10 
REMARK    5  A    between atoms: C10_11  and  O1_12 
REMARK    6  A    between atoms: C13_16  and  C14_17 
REMARK    7  A    between atoms: C15_18  and  C16_19 
ROOT
HETATM    1  C9  UNL     1      21.506  -0.122  52.744  1.00  0.00    -0.009 A 
HETATM    2  C10 UNL     1      21.645   0.611  51.686  1.00  0.00     0.077 A 
HETATM    3  C12 UNL     1      20.869   1.140  50.606  1.00  0.00     0.118 A 
HETATM    4  P1  UNL     1      19.310   1.240  49.924  1.00  0.00    -0.077 P 
HETATM    5  C13 UNL     1      17.918   0.338  50.846  1.00  0.00    -0.048 A 
HETATM    6  C17 UNL     1      17.712  -0.429  51.954  1.00  0.00     0.108 A 
HETATM    7  C18 UNL     1      18.838  -0.792  52.879  1.00  0.00     0.253 A 
HETATM    8  N2  UNL     1      19.585  -1.243  53.816  1.00  0.00    -0.442 NA
HETATM    9  C19 UNL     1      20.995  -0.954  53.827  1.00  0.00     0.144 A 
ENDROOT
BRANCH   1  10
HETATM   10  C8  UNL     1      22.962   0.010  53.076  1.00  0.00     0.007 C 
HETATM   11  C7  UNL     1      23.830  -0.537  53.926  1.00  0.00    -0.024 C 
BRANCH  11  12
HETATM   12  C6  UNL     1      25.117  -0.808  54.624  1.00  0.00     0.062 C 
BRANCH  12  13
HETATM   13  C5  UNL     1      26.088   0.317  54.435  1.00  0.00     0.227 C 
HETATM   14  C4  UNL     1      26.544   0.501  53.035  1.00  0.00     0.066 C 
HETATM   15  C3  UNL     1      27.601  -0.576  52.753  1.00  0.00     0.277 C 
HETATM   16  N1  UNL     1      28.790  -0.150  53.471  1.00  0.00     0.116 N 
HETATM   17  C20 UNL     1      28.474   0.485  54.709  1.00  0.00     0.540 C 
HETATM   18  N3  UNL     1      27.223   0.079  55.303  1.00  0.00     0.116 N 
HETATM   19  H27 UNL     1      27.229  -0.906  55.641  1.00  0.00     0.318 HD
BRANCH  16  20
HETATM   20  C2  UNL     1      29.685  -1.263  53.564  1.00  0.00     0.270 C 
HETATM   21  C1  UNL     1      29.026  -2.575  53.193  1.00  0.00     0.037 C 
ENDBRANCH  16  20
ENDBRANCH  12  13
ENDBRANCH  11  12
ENDBRANCH   1  10
BRANCH   2  22
HETATM   22  O1  UNL     1      22.739   1.239  51.132  1.00  0.00    -0.355 OA
HETATM   23  C11 UNL     1      22.765   2.602  50.758  1.00  0.00     0.210 C 
ENDBRANCH   2  22
BRANCH   5  24
HETATM   24  C14 UNL     1      16.566   0.392  50.325  1.00  0.00     0.005 C 
HETATM   25  C15 UNL     1      15.673   1.362  50.394  1.00  0.00    -0.011 C 
BRANCH  25  26
HETATM   26  C16 UNL     1      15.322   2.709  50.847  1.00  0.00     0.141 C 
HETATM   27 CL1  UNL     1      16.614   3.365  51.880  1.00  0.00    -0.126 Cl
ENDBRANCH  25  26
ENDBRANCH   5  24
TORSDOF 7
ENDMDL
MODEL 5
REMARK VINA RESULT:      -7.2      3.002      3.872
REMARK  7 active torsions:
REMARK  status: ('A' for Active; 'I' for Inactive)
REMARK    1  A    between atoms: C2_2  and  N1_3 
REMARK    2  A    between atoms: C5_6  and  C6_7 
REMARK    3  A    between atoms: C6_7  and  C7_8 
REMARK    4  A    between atoms: C8_9  and  C9_10 
REMARK    5  A    between atoms: C10_11  and  O1_12 
REMARK    6  A    between atoms: C13_16  and  C14_17 
REMARK    7  A    between atoms: C15_18  and  C16_19 
ROOT
HETATM    1  C9  UNL     1      26.045   5.082  49.504  1.00  0.00    -0.009 A 
HETATM    2  C10 UNL     1      25.032   5.828  49.808  1.00  0.00     0.077 A 
HETATM    3  C12 UNL     1      23.807   5.771  50.546  1.00  0.00     0.118 A 
HETATM    4  P1  UNL     1      22.810   4.794  51.522  1.00  0.00    -0.077 P 
HETATM    5  C13 UNL     1      23.427   3.034  51.878  1.00  0.00    -0.048 A 
HETATM    6  C17 UNL     1      24.475   2.208  51.597  1.00  0.00     0.108 A 
HETATM    7  C18 UNL     1      25.621   2.656  50.738  1.00  0.00     0.253 A 
HETATM    8  N2  UNL     1      26.699   2.766  50.057  1.00  0.00    -0.442 NA
HETATM    9  C19 UNL     1      27.005   3.993  49.368  1.00  0.00     0.144 A 
ENDROOT
BRANCH   1  10
HETATM   10  C8  UNL     1      26.676   6.190  48.714  1.00  0.00     0.007 C 
HETATM   11  C7  UNL     1      27.854   6.445  48.146  1.00  0.00    -0.024 C 
BRANCH  11  12
HETATM   12  C6  UNL     1      28.909   7.172  47.388  1.00  0.00     0.062 C 
BRANCH  12  13
HETATM   13  C5  UNL     1      30.123   7.409  48.233  1.00  0.00     0.227 C 
HETATM   14  C4  UNL     1      31.377   7.593  47.461  1.00  0.00     0.066 C 
HETATM   15  C3  UNL     1      31.849   6.201  47.017  1.00  0.00     0.277 C 
HETATM   16  N1  UNL     1      32.372   5.568  48.215  1.00  0.00     0.116 N 
HETATM   17  C20 UNL     1      31.634   5.928  49.382  1.00  0.00     0.540 C 
HETATM   18  N3  UNL     1      30.257   6.292  49.147  1.00  0.00     0.116 N 
HETATM   19  H27 UNL     1      29.667   5.491  48.840  1.00  0.00     0.318 HD
BRANCH  16  20
HETATM   20  C2  UNL     1      32.487   4.162  47.971  1.00  0.00     0.270 C 
HETATM   21  C1  UNL     1      32.075   3.779  46.565  1.00  0.00     0.037 C 
ENDBRANCH  16  20
ENDBRANCH  12  13
ENDBRANCH  11  12
ENDBRANCH   1  10
BRANCH   2  22
HETATM   22  O1  UNL     1      24.716   7.131  49.494  1.00  0.00    -0.355 OA
HETATM   23  C11 UNL     1      24.245   8.081  50.430  1.00  0.00     0.210 C 
ENDBRANCH   2  22
BRANCH   5  24
HETATM   24  C14 UNL     1      22.630   2.154  52.711  1.00  0.00     0.005 C 
HETATM   25  C15 UNL     1      21.901   1.106  52.375  1.00  0.00    -0.011 C 
BRANCH  25  26
HETATM   26  C16 UNL     1      21.405   0.210  51.329  1.00  0.00     0.141 C 
HETATM   27 CL1  UNL     1      21.417   1.040  49.755  1.00  0.00    -0.126 Cl
ENDBRANCH  25  26
ENDBRANCH   5  24
TORSDOF 7
ENDMDL
MODEL 6
REMARK VINA RESULT:      -7.1      5.184     10.141
REMARK  7 active torsions:
REMARK  status: ('A' for Active; 'I' for Inactive)
REMARK    1  A    between atoms: C2_2  and  N1_3 
REMARK    2  A    between atoms: C5_6  and  C6_7 
REMARK    3  A    between atoms: C6_7  and  C7_8 
REMARK    4  A    between atoms: C8_9  and  C9_10 
REMARK    5  A    between atoms: C10_11  and  O1_12 
REMARK    6  A    between atoms: C13_16  and  C14_17 
REMARK    7  A    between atoms: C15_18  and  C16_19 
ROOT
HETATM    1  C9  UNL     1      23.105   0.723  52.004  1.00  0.00    -0.009 A 
HETATM    2  C10 UNL     1      23.204  -0.138  52.966  1.00  0.00     0.077 A 
HETATM    3  C12 UNL     1      24.158  -0.615  53.920  1.00  0.00     0.118 A 
HETATM    4  P1  UNL     1      25.748  -0.444  54.509  1.00  0.00    -0.077 P 
HETATM    5  C13 UNL     1      26.832   0.869  53.670  1.00  0.00    -0.048 A 
HETATM    6  C17 UNL     1      26.779   1.798  52.674  1.00  0.00     0.108 A 
HETATM    7  C18 UNL     1      25.539   2.002  51.853  1.00  0.00     0.253 A 
HETATM    8  N2  UNL     1      24.646   2.381  51.018  1.00  0.00    -0.442 NA
HETATM    9  C19 UNL     1      23.344   1.765  51.014  1.00  0.00     0.144 A 
ENDROOT
BRANCH   1  10
HETATM   10  C8  UNL     1      21.678   0.336  51.751  1.00  0.00     0.007 C 
HETATM   11  C7  UNL     1      20.512   0.952  51.562  1.00  0.00    -0.024 C 
BRANCH  11  12
HETATM   12  C6  UNL     1      19.055   1.136  51.315  1.00  0.00     0.062 C 
BRANCH  12  13
HETATM   13  C5  UNL     1      18.339  -0.180  51.270  1.00  0.00     0.227 C 
HETATM   14  C4  UNL     1      17.184  -0.215  50.340  1.00  0.00     0.066 C 
HETATM   15  C3  UNL     1      16.015   0.497  51.036  1.00  0.00     0.277 C 
HETATM   16  N1  UNL     1      15.553  -0.424  52.059  1.00  0.00     0.116 N 
HETATM   17  C20 UNL     1      16.625  -1.159  52.647  1.00  0.00     0.540 C 
HETATM   18  N3  UNL     1      17.908  -0.501  52.616  1.00  0.00     0.116 N 
HETATM   19  H27 UNL     1      17.953   0.340  53.228  1.00  0.00     0.318 HD
BRANCH  16  20
HETATM   20  C2  UNL     1      14.727   0.298  52.978  1.00  0.00     0.270 C 
HETATM   21  C1  UNL     1      14.754   1.793  52.737  1.00  0.00     0.037 C 
ENDBRANCH  16  20
ENDBRANCH  12  13
ENDBRANCH  11  12
ENDBRANCH   1  10
BRANCH   2  22
HETATM   22  O1  UNL     1      22.306  -1.035  53.501  1.00  0.00    -0.355 OA
HETATM   23  C11 UNL     1      21.857  -1.004  54.842  1.00  0.00     0.210 C 
ENDBRANCH   2  22
BRANCH   5  24
HETATM   24  C14 UNL     1      28.192   1.071  54.130  1.00  0.00     0.005 C 
HETATM   25  C15 UNL     1      29.271   0.340  53.921  1.00  0.00    -0.011 C 
BRANCH  25  26
HETATM   26  C16 UNL     1      29.883  -0.840  53.307  1.00  0.00     0.141 C 
HETATM   27 CL1  UNL     1      28.678  -2.138  53.137  1.00  0.00    -0.126 Cl
ENDBRANCH  25  26
ENDBRANCH   5  24
TORSDOF 7
ENDMDL
MODEL 7
REMARK VINA RESULT:      -7.0      4.478      9.522
REMARK  7 active torsions:
REMARK  status: ('A' for Active; 'I' for Inactive)
REMARK    1  A    between atoms: C2_2  and  N1_3 
REMARK    2  A    between atoms: C5_6  and  C6_7 
REMARK    3  A    between atoms: C6_7  and  C7_8 
REMARK    4  A    between atoms: C8_9  and  C9_10 
REMARK    5  A    between atoms: C10_11  and  O1_12 
REMARK    6  A    between atoms: C13_16  and  C14_17 
REMARK    7  A    between atoms: C15_18  and  C16_19 
ROOT
HETATM    1  C9  UNL     1      26.636   5.773  49.155  1.00  0.00    -0.009 A 
HETATM    2  C10 UNL     1      26.093   6.870  49.578  1.00  0.00     0.077 A 
HETATM    3  C12 UNL     1      26.426   8.242  49.812  1.00  0.00     0.118 A 
HETATM    4  P1  UNL     1      27.658   9.415  49.719  1.00  0.00    -0.077 P 
HETATM    5  C13 UNL     1      29.339   8.834  49.056  1.00  0.00    -0.048 A 
HETATM    6  C17 UNL     1      29.958   7.711  48.592  1.00  0.00     0.108 A 
HETATM    7  C18 UNL     1      29.237   6.397  48.501  1.00  0.00     0.253 A 
HETATM    8  N2  UNL     1      28.883   5.181  48.320  1.00  0.00    -0.442 NA
HETATM    9  C19 UNL     1      27.545   4.756  48.641  1.00  0.00     0.144 A 
ENDROOT
BRANCH   1  10
HETATM   10  C8  UNL     1      25.354   5.018  49.342  1.00  0.00     0.007 C 
HETATM   11  C7  UNL     1      24.980   3.776  49.647  1.00  0.00    -0.024 C 
BRANCH  11  12
HETATM   12  C6  UNL     1      24.089   2.619  49.933  1.00  0.00     0.062 C 
BRANCH  12  13
HETATM   13  C5  UNL     1      23.653   2.606  51.367  1.00  0.00     0.227 C 
HETATM   14  C4  UNL     1      24.740   2.888  52.337  1.00  0.00     0.066 C 
HETATM   15  C3  UNL     1      25.566   1.601  52.485  1.00  0.00     0.277 C 
HETATM   16  N1  UNL     1      24.742   0.700  53.272  1.00  0.00     0.116 N 
HETATM   17  C20 UNL     1      23.354   0.838  52.973  1.00  0.00     0.540 C 
HETATM   18  N3  UNL     1      23.059   1.314  51.643  1.00  0.00     0.116 N 
HETATM   19  H27 UNL     1      23.302   0.629  50.898  1.00  0.00     0.318 HD
BRANCH  16  20
HETATM   20  C2  UNL     1      25.270  -0.624  53.141  1.00  0.00     0.270 C 
HETATM   21  C1  UNL     1      26.622  -0.650  52.461  1.00  0.00     0.037 C 
ENDBRANCH  16  20
ENDBRANCH  12  13
ENDBRANCH  11  12
ENDBRANCH   1  10
BRANCH   2  22
HETATM   22  O1  UNL     1      24.821   7.162  50.018  1.00  0.00    -0.355 OA
HETATM   23  C11 UNL     1      24.091   8.309  49.627  1.00  0.00     0.210 C 
ENDBRANCH   2  22
BRANCH   5  24
HETATM   24  C14 UNL     1      30.428   9.785  48.942  1.00  0.00     0.005 C 
HETATM   25  C15 UNL     1      30.422  11.022  48.479  1.00  0.00    -0.011 C 
BRANCH  25  26
HETATM   26  C16 UNL     1      29.672  12.137  47.898  1.00  0.00     0.141 C 
HETATM   27 CL1  UNL     1      28.732  12.967  49.161  1.00  0.00    -0.126 Cl
ENDBRANCH  25  26
ENDBRANCH   5  24
TORSDOF 7
ENDMDL
MODEL 8
REMARK VINA RESULT:      -7.0      5.807      7.242
REMARK  7 active torsions:
REMARK  status: ('A' for Active; 'I' for Inactive)
REMARK    1  A    between atoms: C2_2  and  N1_3 
REMARK    2  A    between atoms: C5_6  and  C6_7 
REMARK    3  A    between atoms: C6_7  and  C7_8 
REMARK    4  A    between atoms: C8_9  and  C9_10 
REMARK    5  A    between atoms: C10_11  and  O1_12 
REMARK    6  A    between atoms: C13_16  and  C14_17 
REMARK    7  A    between atoms: C15_18  and  C16_19 
ROOT
HETATM    1  C9  UNL     1      21.898   0.800  51.903  1.00  0.00    -0.009 A 
HETATM    2  C10 UNL     1      21.467   0.139  52.928  1.00  0.00     0.077 A 
HETATM    3  C12 UNL     1      20.269  -0.475  53.417  1.00  0.00     0.118 A 
HETATM    4  P1  UNL     1      18.633  -0.808  53.077  1.00  0.00    -0.077 P 
HETATM    5  C13 UNL     1      17.963  -0.182  51.416  1.00  0.00    -0.048 A 
HETATM    6  C17 UNL     1      18.366   0.502  50.307  1.00  0.00     0.108 A 
HETATM    7  C18 UNL     1      19.771   1.014  50.167  1.00  0.00     0.253 A 
HETATM    8  N2  UNL     1      20.869   1.550  49.787  1.00  0.00    -0.442 NA
HETATM    9  C19 UNL     1      22.035   1.498  50.630  1.00  0.00     0.144 A 
ENDROOT
BRANCH   1  10
HETATM   10  C8  UNL     1      23.272   0.901  52.494  1.00  0.00     0.007 C 
HETATM   11  C7  UNL     1      24.519   1.077  52.059  1.00  0.00    -0.024 C 
BRANCH  11  12
HETATM   12  C6  UNL     1      25.999   1.239  52.093  1.00  0.00     0.062 C 
BRANCH  12  13
HETATM   13  C5  UNL     1      26.487   1.504  53.485  1.00  0.00     0.227 C 
HETATM   14  C4  UNL     1      27.784   2.220  53.550  1.00  0.00     0.066 C 
HETATM   15  C3  UNL     1      28.889   1.194  53.264  1.00  0.00     0.277 C 
HETATM   16  N1  UNL     1      28.982   0.378  54.462  1.00  0.00     0.116 N 
HETATM   17  C20 UNL     1      27.709   0.170  55.073  1.00  0.00     0.540 C 
HETATM   18  N3  UNL     1      26.582   0.233  54.174  1.00  0.00     0.116 N 
HETATM   19  H27 UNL     1      26.551  -0.558  53.497  1.00  0.00     0.318 HD
BRANCH  16  20
HETATM   20  C2  UNL     1      29.712  -0.811  54.144  1.00  0.00     0.270 C 
HETATM   21  C1  UNL     1      29.055  -1.626  53.050  1.00  0.00     0.037 C 
ENDBRANCH  16  20
ENDBRANCH  12  13
ENDBRANCH  11  12
ENDBRANCH   1  10
BRANCH   2  22
HETATM   22  O1  UNL     1      22.085  -0.280  54.086  1.00  0.00    -0.355 OA
HETATM   23  C11 UNL     1      21.925  -1.566  54.651  1.00  0.00     0.210 C 
ENDBRANCH   2  22
BRANCH   5  24
HETATM   24  C14 UNL     1      16.581  -0.441  51.061  1.00  0.00     0.005 C 
HETATM   25  C15 UNL     1      15.546   0.379  51.048  1.00  0.00    -0.011 C 
BRANCH  25  26
HETATM   26  C16 UNL     1      15.012   1.724  51.270  1.00  0.00     0.141 C 
HETATM   27 CL1  UNL     1      14.459   1.894  52.952  1.00  0.00    -0.126 Cl
ENDBRANCH  25  26
ENDBRANCH   5  24
TORSDOF 7
ENDMDL
MODEL 9
REMARK VINA RESULT:      -7.0      6.986     10.964
REMARK  7 active torsions:
REMARK  status: ('A' for Active; 'I' for Inactive)
REMARK    1  A    between atoms: C2_2  and  N1_3 
REMARK    2  A    between atoms: C5_6  and  C6_7 
REMARK    3  A    between atoms: C6_7  and  C7_8 
REMARK    4  A    between atoms: C8_9  and  C9_10 
REMARK    5  A    between atoms: C10_11  and  O1_12 
REMARK    6  A    between atoms: C13_16  and  C14_17 
REMARK    7  A    between atoms: C15_18  and  C16_19 
ROOT
HETATM    1  C9  UNL     1      21.723  -0.393  53.711  1.00  0.00    -0.009 A 
HETATM    2  C10 UNL     1      22.142   0.451  52.824  1.00  0.00     0.077 A 
HETATM    3  C12 UNL     1      23.347   1.106  52.413  1.00  0.00     0.118 A 
HETATM    4  P1  UNL     1      25.015   1.275  52.712  1.00  0.00    -0.077 P 
HETATM    5  C13 UNL     1      25.735   0.245  54.135  1.00  0.00    -0.048 A 
HETATM    6  C17 UNL     1      25.349  -0.656  55.083  1.00  0.00     0.108 A 
HETATM    7  C18 UNL     1      23.923  -1.109  55.203  1.00  0.00     0.253 A 
HETATM    8  N2  UNL     1      22.814  -1.659  55.528  1.00  0.00    -0.442 NA
HETATM    9  C19 UNL     1      21.606  -1.341  54.812  1.00  0.00     0.144 A 
ENDROOT
BRANCH   1  10
HETATM   10  C8  UNL     1      20.323  -0.322  53.175  1.00  0.00     0.007 C 
HETATM   11  C7  UNL     1      19.191  -1.016  53.288  1.00  0.00    -0.024 C 
BRANCH  11  12
HETATM   12  C6  UNL     1      17.770  -1.409  53.084  1.00  0.00     0.062 C 
BRANCH  12  13
HETATM   13  C5  UNL     1      17.006  -0.338  52.366  1.00  0.00     0.227 C 
HETATM   14  C4  UNL     1      15.536  -0.410  52.551  1.00  0.00     0.066 C 
HETATM   15  C3  UNL     1      15.013  -1.523  51.631  1.00  0.00     0.277 C 
HETATM   16  N1  UNL     1      15.079  -0.978  50.286  1.00  0.00     0.116 N 
HETATM   17  C20 UNL     1      16.212  -0.130  50.103  1.00  0.00     0.540 C 
HETATM   18  N3  UNL     1      17.338  -0.419  50.958  1.00  0.00     0.116 N 
HETATM   19  H27 UNL     1      17.797  -1.328  50.739  1.00  0.00     0.318 HD
BRANCH  16  20
HETATM   20  C2  UNL     1      14.965  -2.059  49.355  1.00  0.00     0.270 C 
HETATM   21  C1  UNL     1      15.642  -1.765  48.033  1.00  0.00     0.037 C 
ENDBRANCH  16  20
ENDBRANCH  12  13
ENDBRANCH  11  12
ENDBRANCH   1  10
BRANCH   2  22
HETATM   22  O1  UNL     1      21.498   1.121  51.807  1.00  0.00    -0.355 OA
HETATM   23  C11 UNL     1      21.959   1.166  50.470  1.00  0.00     0.210 C 
ENDBRANCH   2  22
BRANCH   5  24
HETATM   24  C14 UNL     1      27.151   0.334  54.435  1.00  0.00     0.005 C 
HETATM   25  C15 UNL     1      28.155  -0.399  53.991  1.00  0.00    -0.011 C 
BRANCH  25  26
HETATM   26  C16 UNL     1      28.622  -1.505  53.153  1.00  0.00     0.141 C 
HETATM   27 CL1  UNL     1      27.236  -2.420  52.517  1.00  0.00    -0.126 Cl
ENDBRANCH  25  26
ENDBRANCH   5  24
TORSDOF 7
ENDMDL
