MODEL 1
REMARK VINA RESULT:      -7.5      0.000      0.000
REMARK  0 active torsions:
REMARK  status: ('A' for Active; 'I' for Inactive)
ROOT
HETATM    1  C1  UNL     1      27.810  -0.028  54.788  1.00  0.00     0.046 C 
HETATM    2  C2  UNL     1      27.105   0.100  53.452  1.00  0.00     0.157 C 
HETATM    3  C3  UNL     1      25.699  -0.048  53.557  1.00  0.00    -0.068 C 
HETATM    4  C4  UNL     1      24.557  -0.167  53.622  1.00  0.00    -0.013 C 
HETATM    5  O1  UNL     1      23.235  -0.295  53.675  1.00  0.00     0.000 OA
HETATM    6  C5  UNL     1      22.417  -0.171  52.534  1.00  0.00    -0.002 A 
HETATM    7  C6  UNL     1      21.376   0.147  51.832  1.00  0.00     0.080 A 
HETATM    8 BR1  UNL     1      21.470   0.509  53.737  1.00  0.00    -0.074 Br
HETATM    9  C7  UNL     1      20.069   0.734  51.933  1.00  0.00     0.034 C 
HETATM   10  C8  UNL     1      19.934   0.421  50.665  1.00  0.00     0.085 C 
HETATM   11  N1  UNL     1      20.473   1.250  49.850  1.00  0.00    -0.231 NA
HETATM   12  C9  UNL     1      21.336   2.294  50.392  1.00  0.00     0.133 C 
HETATM   13  N2  UNL     1      20.645   3.035  51.192  1.00  0.00    -0.226 NA
HETATM   14  C10 UNL     1      21.173   3.851  52.206  1.00  0.00     0.235 C 
HETATM   15  N3  UNL     1      22.463   3.923  52.428  1.00  0.00    -0.246 NA
HETATM   16  C11 UNL     1      23.266   3.121  51.591  1.00  0.00     0.040 C 
HETATM   17  C12 UNL     1      24.410   2.745  52.125  1.00  0.00     0.012 C 
HETATM   18  C13 UNL     1      25.636   2.031  51.993  1.00  0.00     0.061 C 
HETATM   19  C14 UNL     1      26.643   1.318  51.582  1.00  0.00     0.066 C 
HETATM   20  N4  UNL     1      27.491   1.349  52.762  1.00  0.00    -0.387 N 
HETATM   21  C15 UNL     1      22.776   2.747  50.251  1.00  0.00     0.139 C 
HETATM   22  H11 UNL     1      28.089   2.202  52.763  1.00  0.00     0.159 HD
ENDROOT
TORSDOF 0
ENDMDL
MODEL 2
REMARK VINA RESULT:      -7.5      1.873      3.347
REMARK  0 active torsions:
REMARK  status: ('A' for Active; 'I' for Inactive)
ROOT
HETATM    1  C1  UNL     1      28.198  -0.761  53.095  1.00  0.00     0.046 C 
HETATM    2  C2  UNL     1      26.970  -0.147  53.736  1.00  0.00     0.157 C 
HETATM    3  C3  UNL     1      26.306   0.770  52.883  1.00  0.00    -0.068 C 
HETATM    4  C4  UNL     1      25.754   1.519  52.207  1.00  0.00    -0.013 C 
HETATM    5  O1  UNL     1      25.098   2.383  51.439  1.00  0.00     0.000 OA
HETATM    6  C5  UNL     1      23.915   3.023  51.862  1.00  0.00    -0.002 A 
HETATM    7  C6  UNL     1      22.733   3.544  51.768  1.00  0.00     0.080 A 
HETATM    8 BR1  UNL     1      23.635   2.780  50.228  1.00  0.00    -0.074 Br
HETATM    9  C7  UNL     1      21.685   3.833  50.829  1.00  0.00     0.034 C 
HETATM   10  C8  UNL     1      21.086   4.440  51.827  1.00  0.00     0.085 C 
HETATM   11  N1  UNL     1      20.447   3.660  52.619  1.00  0.00    -0.231 NA
HETATM   12  C9  UNL     1      20.625   2.220  52.468  1.00  0.00     0.133 C 
HETATM   13  N2  UNL     1      20.232   1.871  51.290  1.00  0.00    -0.226 NA
HETATM   14  C10 UNL     1      20.617   0.699  50.617  1.00  0.00     0.235 C 
HETATM   15  N3  UNL     1      21.441  -0.165  51.158  1.00  0.00    -0.246 NA
HETATM   16  C11 UNL     1      21.915   0.174  52.442  1.00  0.00     0.040 C 
HETATM   17  C12 UNL     1      23.097  -0.324  52.740  1.00  0.00     0.012 C 
HETATM   18  C13 UNL     1      24.156  -0.460  53.683  1.00  0.00     0.061 C 
HETATM   19  C14 UNL     1      24.932  -0.405  54.725  1.00  0.00     0.066 C 
HETATM   20  N4  UNL     1      26.062  -1.191  54.258  1.00  0.00    -0.387 N 
HETATM   21  C15 UNL     1      21.107   1.053  53.308  1.00  0.00     0.139 C 
HETATM   22  H11 UNL     1      25.898  -2.206  54.427  1.00  0.00     0.159 HD
ENDROOT
TORSDOF 0
ENDMDL
MODEL 3
REMARK VINA RESULT:      -7.1      1.694      2.159
REMARK  0 active torsions:
REMARK  status: ('A' for Active; 'I' for Inactive)
ROOT
HETATM    1  C1  UNL     1      24.538  -1.228  55.897  1.00  0.00     0.046 C 
HETATM    2  C2  UNL     1      24.828  -0.861  54.456  1.00  0.00     0.157 C 
HETATM    3  C3  UNL     1      23.655  -0.547  53.723  1.00  0.00    -0.068 C 
HETATM    4  C4  UNL     1      22.715  -0.290  53.112  1.00  0.00    -0.013 C 
HETATM    5  O1  UNL     1      21.643   0.016  52.389  1.00  0.00     0.000 OA
HETATM    6  C5  UNL     1      21.730   0.414  51.039  1.00  0.00    -0.002 A 
HETATM    7  C6  UNL     1      21.434   1.061  49.958  1.00  0.00     0.080 A 
HETATM    8 BR1  UNL     1      20.464   1.348  51.614  1.00  0.00    -0.074 Br
HETATM    9  C7  UNL     1      20.526   2.038  49.426  1.00  0.00     0.034 C 
HETATM   10  C8  UNL     1      21.098   1.802  48.268  1.00  0.00     0.085 C 
HETATM   11  N1  UNL     1      22.204   2.423  48.083  1.00  0.00    -0.231 NA
HETATM   12  C9  UNL     1      22.804   3.124  49.213  1.00  0.00     0.133 C 
HETATM   13  N2  UNL     1      21.988   4.038  49.620  1.00  0.00    -0.226 NA
HETATM   14  C10 UNL     1      21.994   4.625  50.896  1.00  0.00     0.235 C 
HETATM   15  N3  UNL     1      22.865   4.273  51.811  1.00  0.00    -0.246 NA
HETATM   16  C11 UNL     1      23.772   3.265  51.425  1.00  0.00     0.040 C 
HETATM   17  C12 UNL     1      24.231   2.531  52.417  1.00  0.00     0.012 C 
HETATM   18  C13 UNL     1      25.064   1.461  52.853  1.00  0.00     0.061 C 
HETATM   19  C14 UNL     1      25.896   0.466  52.942  1.00  0.00     0.066 C 
HETATM   20  N4  UNL     1      25.849   0.204  54.370  1.00  0.00    -0.387 N 
HETATM   21  C15 UNL     1      24.101   3.087  49.998  1.00  0.00     0.139 C 
HETATM   22  H11 UNL     1      26.520   0.818  54.879  1.00  0.00     0.159 HD
ENDROOT
TORSDOF 0
ENDMDL
MODEL 4
REMARK VINA RESULT:      -7.0      2.967      4.420
REMARK  0 active torsions:
REMARK  status: ('A' for Active; 'I' for Inactive)
ROOT
HETATM    1  C1  UNL     1      26.990  -1.748  52.844  1.00  0.00     0.046 C 
HETATM    2  C2  UNL     1      26.188  -0.504  53.168  1.00  0.00     0.157 C 
HETATM    3  C3  UNL     1      26.428   0.557  52.259  1.00  0.00    -0.068 C 
HETATM    4  C4  UNL     1      26.611   1.429  51.532  1.00  0.00    -0.013 C 
HETATM    5  O1  UNL     1      26.803   2.448  50.700  1.00  0.00     0.000 OA
HETATM    6  C5  UNL     1      26.114   3.671  50.832  1.00  0.00    -0.002 A 
HETATM    7  C6  UNL     1      25.511   4.754  50.459  1.00  0.00     0.080 A 
HETATM    8 BR1  UNL     1      26.236   3.497  49.170  1.00  0.00    -0.074 Br
HETATM    9  C7  UNL     1      25.128   5.504  49.295  1.00  0.00     0.034 C 
HETATM   10  C8  UNL     1      24.708   6.419  50.138  1.00  0.00     0.085 C 
HETATM   11  N1  UNL     1      23.547   6.196  50.633  1.00  0.00    -0.231 NA
HETATM   12  C9  UNL     1      22.929   4.896  50.395  1.00  0.00     0.133 C 
HETATM   13  N2  UNL     1      22.771   4.734  49.125  1.00  0.00    -0.226 NA
HETATM   14  C10 UNL     1      22.615   3.498  48.475  1.00  0.00     0.235 C 
HETATM   15  N3  UNL     1      22.620   2.367  49.139  1.00  0.00    -0.246 NA
HETATM   16  C11 UNL     1      22.805   2.485  50.531  1.00  0.00     0.040 C 
HETATM   17  C12 UNL     1      23.362   1.437  51.101  1.00  0.00     0.012 C 
HETATM   18  C13 UNL     1      23.838   0.807  52.288  1.00  0.00     0.061 C 
HETATM   19  C14 UNL     1      24.170   0.502  53.507  1.00  0.00     0.066 C 
HETATM   20  N4  UNL     1      24.749  -0.815  53.304  1.00  0.00    -0.387 N 
HETATM   21  C15 UNL     1      22.413   3.730  51.216  1.00  0.00     0.139 C 
HETATM   22  H11 UNL     1      24.008  -1.549  53.316  1.00  0.00     0.159 HD
ENDROOT
TORSDOF 0
ENDMDL
MODEL 5
REMARK VINA RESULT:      -7.0      3.174      4.739
REMARK  0 active torsions:
REMARK  status: ('A' for Active; 'I' for Inactive)
ROOT
HETATM    1  C1  UNL     1      22.265  -1.551  54.989  1.00  0.00     0.046 C 
HETATM    2  C2  UNL     1      21.451  -0.436  54.365  1.00  0.00     0.157 C 
HETATM    3  C3  UNL     1      22.246   0.477  53.626  1.00  0.00    -0.068 C 
HETATM    4  C4  UNL     1      22.874   1.229  53.023  1.00  0.00    -0.013 C 
HETATM    5  O1  UNL     1      23.580   2.106  52.317  1.00  0.00     0.000 OA
HETATM    6  C5  UNL     1      22.981   3.187  51.639  1.00  0.00    -0.002 A 
HETATM    7  C6  UNL     1      22.795   4.062  50.703  1.00  0.00     0.080 A 
HETATM    8 BR1  UNL     1      24.226   2.753  50.606  1.00  0.00    -0.074 Br
HETATM    9  C7  UNL     1      23.323   4.516  49.446  1.00  0.00     0.034 C 
HETATM   10  C8  UNL     1      22.426   5.472  49.523  1.00  0.00     0.085 C 
HETATM   11  N1  UNL     1      21.250   5.132  49.145  1.00  0.00    -0.231 NA
HETATM   12  C9  UNL     1      20.984   3.720  48.890  1.00  0.00     0.133 C 
HETATM   13  N2  UNL     1      21.756   3.314  47.938  1.00  0.00    -0.226 NA
HETATM   14  C10 UNL     1      22.108   1.977  47.690  1.00  0.00     0.235 C 
HETATM   15  N3  UNL     1      21.661   0.998  48.439  1.00  0.00    -0.246 NA
HETATM   16  C11 UNL     1      20.825   1.387  49.505  1.00  0.00     0.040 C 
HETATM   17  C12 UNL     1      20.839   0.572  50.539  1.00  0.00     0.012 C 
HETATM   18  C13 UNL     1      20.362   0.255  51.844  1.00  0.00     0.061 C 
HETATM   19  C14 UNL     1      19.756   0.230  52.994  1.00  0.00     0.066 C 
HETATM   20  N4  UNL     1      20.326  -0.975  53.571  1.00  0.00    -0.387 N 
HETATM   21  C15 UNL     1      20.054   2.640  49.407  1.00  0.00     0.139 C 
HETATM   22  H11 UNL     1      19.793  -1.817  53.266  1.00  0.00     0.159 HD
ENDROOT
TORSDOF 0
ENDMDL
MODEL 6
REMARK VINA RESULT:      -6.9     11.170     13.070
REMARK  0 active torsions:
REMARK  status: ('A' for Active; 'I' for Inactive)
ROOT
HETATM    1  C1  UNL     1      30.664  12.224  48.954  1.00  0.00     0.046 C 
HETATM    2  C2  UNL     1      30.297  10.794  48.611  1.00  0.00     0.157 C 
HETATM    3  C3  UNL     1      31.164  10.221  47.646  1.00  0.00    -0.068 C 
HETATM    4  C4  UNL     1      31.855   9.740  46.862  1.00  0.00    -0.013 C 
HETATM    5  O1  UNL     1      32.646   9.163  45.963  1.00  0.00     0.000 OA
HETATM    6  C5  UNL     1      32.472   7.826  45.552  1.00  0.00    -0.002 A 
HETATM    7  C6  UNL     1      32.807   6.636  45.167  1.00  0.00     0.080 A 
HETATM    8 BR1  UNL     1      34.139   7.998  45.540  1.00  0.00    -0.074 Br
HETATM    9  C7  UNL     1      33.944   5.818  44.847  1.00  0.00     0.034 C 
HETATM   10  C8  UNL     1      33.069   4.903  44.498  1.00  0.00     0.085 C 
HETATM   11  N1  UNL     1      32.590   4.223  45.472  1.00  0.00    -0.231 NA
HETATM   12  C9  UNL     1      32.882   4.660  46.834  1.00  0.00     0.133 C 
HETATM   13  N2  UNL     1      34.159   4.629  47.019  1.00  0.00    -0.226 NA
HETATM   14  C10 UNL     1      34.857   5.349  48.003  1.00  0.00     0.235 C 
HETATM   15  N3  UNL     1      34.237   6.143  48.842  1.00  0.00    -0.246 NA
HETATM   16  C11 UNL     1      32.840   6.227  48.675  1.00  0.00     0.040 C 
HETATM   17  C12 UNL     1      32.307   7.363  49.073  1.00  0.00     0.012 C 
HETATM   18  C13 UNL     1      31.142   8.166  49.242  1.00  0.00     0.061 C 
HETATM   19  C14 UNL     1      29.934   8.644  49.276  1.00  0.00     0.066 C 
HETATM   20  N4  UNL     1      30.184   9.964  49.829  1.00  0.00    -0.387 N 
HETATM   21  C15 UNL     1      32.110   5.102  48.062  1.00  0.00     0.139 C 
HETATM   22  H11 UNL     1      30.204   9.929  50.871  1.00  0.00     0.159 HD
ENDROOT
TORSDOF 0
ENDMDL
MODEL 7
REMARK VINA RESULT:      -6.9      3.048      5.808
REMARK  0 active torsions:
REMARK  status: ('A' for Active; 'I' for Inactive)
ROOT
HETATM    1  C1  UNL     1      17.761  -2.930  53.717  1.00  0.00     0.046 C 
HETATM    2  C2  UNL     1      17.761  -1.449  53.395  1.00  0.00     0.157 C 
HETATM    3  C3  UNL     1      19.065  -0.895  53.354  1.00  0.00    -0.068 C 
HETATM    4  C4  UNL     1      20.115  -0.428  53.318  1.00  0.00    -0.013 C 
HETATM    5  O1  UNL     1      21.320   0.132  53.265  1.00  0.00     0.000 OA
HETATM    6  C5  UNL     1      21.508   1.492  52.945  1.00  0.00    -0.002 A 
HETATM    7  C6  UNL     1      22.077   2.536  52.435  1.00  0.00     0.080 A 
HETATM    8 BR1  UNL     1      22.836   0.761  52.231  1.00  0.00    -0.074 Br
HETATM    9  C7  UNL     1      23.227   2.955  51.682  1.00  0.00     0.034 C 
HETATM   10  C8  UNL     1      22.793   4.179  51.879  1.00  0.00     0.085 C 
HETATM   11  N1  UNL     1      21.868   4.553  51.074  1.00  0.00    -0.231 NA
HETATM   12  C9  UNL     1      21.260   3.553  50.202  1.00  0.00     0.133 C 
HETATM   13  N2  UNL     1      22.171   3.058  49.435  1.00  0.00    -0.226 NA
HETATM   14  C10 UNL     1      22.096   1.818  48.777  1.00  0.00     0.235 C 
HETATM   15  N3  UNL     1      21.051   1.037  48.900  1.00  0.00    -0.246 NA
HETATM   16  C11 UNL     1      20.030   1.523  49.742  1.00  0.00     0.040 C 
HETATM   17  C12 UNL     1      19.297   0.589  50.312  1.00  0.00     0.012 C 
HETATM   18  C13 UNL     1      18.217   0.250  51.176  1.00  0.00     0.061 C 
HETATM   19  C14 UNL     1      17.202   0.256  51.989  1.00  0.00     0.066 C 
HETATM   20  N4  UNL     1      16.991  -1.171  52.164  1.00  0.00    -0.387 N 
HETATM   21  C15 UNL     1      19.882   2.976  49.945  1.00  0.00     0.139 C 
HETATM   22  H11 UNL     1      16.386  -1.549  51.404  1.00  0.00     0.159 HD
ENDROOT
TORSDOF 0
ENDMDL
MODEL 8
REMARK VINA RESULT:      -6.8      9.523     12.238
REMARK  0 active torsions:
REMARK  status: ('A' for Active; 'I' for Inactive)
ROOT
HETATM    1  C1  UNL     1      27.640   9.313  49.256  1.00  0.00     0.046 C 
HETATM    2  C2  UNL     1      27.947   8.108  48.391  1.00  0.00     0.157 C 
HETATM    3  C3  UNL     1      29.136   8.262  47.634  1.00  0.00    -0.068 C 
HETATM    4  C4  UNL     1      30.096   8.370  47.012  1.00  0.00    -0.013 C 
HETATM    5  O1  UNL     1      31.207   8.471  46.288  1.00  0.00     0.000 OA
HETATM    6  C5  UNL     1      31.662   7.431  45.453  1.00  0.00    -0.002 A 
HETATM    7  C6  UNL     1      32.510   6.659  44.853  1.00  0.00     0.080 A 
HETATM    8 BR1  UNL     1      33.091   8.081  46.038  1.00  0.00    -0.074 Br
HETATM    9  C7  UNL     1      33.917   6.421  44.686  1.00  0.00     0.034 C 
HETATM   10  C8  UNL     1      33.563   5.511  43.807  1.00  0.00     0.085 C 
HETATM   11  N1  UNL     1      33.220   4.385  44.314  1.00  0.00    -0.231 NA
HETATM   12  C9  UNL     1      33.049   4.298  45.761  1.00  0.00     0.133 C 
HETATM   13  N2  UNL     1      34.172   4.577  46.332  1.00  0.00    -0.226 NA
HETATM   14  C10 UNL     1      34.324   5.008  47.661  1.00  0.00     0.235 C 
HETATM   15  N3  UNL     1      33.292   5.169  48.453  1.00  0.00    -0.246 NA
HETATM   16  C11 UNL     1      32.037   4.893  47.875  1.00  0.00     0.040 C 
HETATM   17  C12 UNL     1      31.030   5.555  48.406  1.00  0.00     0.012 C 
HETATM   18  C13 UNL     1      29.632   5.833  48.424  1.00  0.00     0.061 C 
HETATM   19  C14 UNL     1      28.351   5.872  48.208  1.00  0.00     0.066 C 
HETATM   20  N4  UNL     1      27.944   6.863  49.189  1.00  0.00    -0.387 N 
HETATM   21  C15 UNL     1      31.947   3.951  46.743  1.00  0.00     0.139 C 
HETATM   22  H11 UNL     1      27.779   6.416  50.116  1.00  0.00     0.159 HD
ENDROOT
TORSDOF 0
ENDMDL
MODEL 9
REMARK VINA RESULT:      -6.8     11.275     13.536
REMARK  0 active torsions:
REMARK  status: ('A' for Active; 'I' for Inactive)
ROOT
HETATM    1  C1  UNL     1      32.087   1.375  46.715  1.00  0.00     0.046 C 
HETATM    2  C2  UNL     1      33.236   2.360  46.789  1.00  0.00     0.157 C 
HETATM    3  C3  UNL     1      33.015   3.523  46.009  1.00  0.00    -0.068 C 
HETATM    4  C4  UNL     1      32.854   4.473  45.381  1.00  0.00    -0.013 C 
HETATM    5  O1  UNL     1      32.685   5.581  44.667  1.00  0.00     0.000 OA
HETATM    6  C5  UNL     1      33.638   6.620  44.647  1.00  0.00    -0.002 A 
HETATM    7  C6  UNL     1      34.091   7.831  44.604  1.00  0.00     0.080 A 
HETATM    8 BR1  UNL     1      32.187   7.453  44.563  1.00  0.00    -0.074 Br
HETATM    9  C7  UNL     1      33.673   9.203  44.508  1.00  0.00     0.034 C 
HETATM   10  C8  UNL     1      34.952   9.490  44.440  1.00  0.00     0.085 C 
HETATM   11  N1  UNL     1      35.550   9.533  45.573  1.00  0.00    -0.231 NA
HETATM   12  C9  UNL     1      34.835   9.061  46.754  1.00  0.00     0.133 C 
HETATM   13  N2  UNL     1      33.780   9.785  46.921  1.00  0.00    -0.226 NA
HETATM   14  C10 UNL     1      32.643   9.410  47.655  1.00  0.00     0.235 C 
HETATM   15  N3  UNL     1      32.562   8.244  48.249  1.00  0.00    -0.246 NA
HETATM   16  C11 UNL     1      33.683   7.404  48.086  1.00  0.00     0.040 C 
HETATM   17  C12 UNL     1      33.419   6.116  48.159  1.00  0.00     0.012 C 
HETATM   18  C13 UNL     1      33.894   4.774  48.115  1.00  0.00     0.061 C 
HETATM   19  C14 UNL     1      34.607   3.690  48.032  1.00  0.00     0.066 C 
HETATM   20  N4  UNL     1      33.577   2.678  48.192  1.00  0.00    -0.387 N 
HETATM   21  C15 UNL     1      35.007   7.998  47.821  1.00  0.00     0.139 C 
HETATM   22  H11 UNL     1      33.400   2.490  49.202  1.00  0.00     0.159 HD
ENDROOT
TORSDOF 0
ENDMDL
