MODEL 1
REMARK VINA RESULT:      -8.0      0.000      0.000
REMARK  3 active torsions:
REMARK  status: ('A' for Active; 'I' for Inactive)
REMARK    1  A    between atoms: C2_2  and  C3_4 
REMARK    2  A    between atoms: C9_10  and  N1_11 
REMARK    3  A    between atoms: N1_11  and  C10_12 
ROOT
HETATM    1  C3  UNL     1      22.214  -0.119  53.298  1.00  0.00     0.010 A 
HETATM    2  C4  UNL     1      21.533   0.004  52.083  1.00  0.00     0.016 A 
HETATM    3  C5  UNL     1      22.001   0.876  51.123  1.00  0.00     0.011 A 
HETATM    4  C6  UNL     1      23.146   1.616  51.390  1.00  0.00    -0.024 A 
HETATM    5  C7  UNL     1      23.868   1.534  52.587  1.00  0.00     0.018 A 
HETATM    6  C8  UNL     1      23.340   0.642  53.496  1.00  0.00     0.031 A 
HETATM    7  C9  UNL     1      25.012   2.444  52.544  1.00  0.00     0.134 A 
HETATM    8  N2  UNL     1      24.967   3.017  51.408  1.00  0.00    -0.267 NA
HETATM    9  C16 UNL     1      23.875   2.609  50.581  1.00  0.00     0.190 A 
ENDROOT
BRANCH   7  10
HETATM   10  N1  UNL     1      25.945   2.612  53.627  1.00  0.00    -0.341 N 
HETATM   11  H7  UNL     1      25.782   3.329  54.376  1.00  0.00     0.167 HD
BRANCH  10  12
HETATM   12  C10 UNL     1      27.059   1.702  53.524  1.00  0.00     0.035 A 
HETATM   13  C11 UNL     1      28.349   2.097  53.806  1.00  0.00     0.029 A 
HETATM   14  C12 UNL     1      29.362   1.171  53.731  1.00  0.00     0.004 A 
HETATM   15  C13 UNL     1      29.148  -0.162  53.378  1.00  0.00     0.019 A 
HETATM   16  C14 UNL     1      27.858  -0.549  53.096  1.00  0.00     0.013 A 
HETATM   17 BR1  UNL     1      27.402  -2.339  52.609  1.00  0.00    -0.051 Br
HETATM   18  C15 UNL     1      26.844   0.371  53.170  1.00  0.00     0.048 A 
ENDBRANCH  10  12
ENDBRANCH   7  10
BRANCH   1  19
HETATM   19  C2  UNL     1      21.673  -1.045  54.269  1.00  0.00     0.155 C 
HETATM   20  C1  UNL     1      20.337  -1.635  54.160  1.00  0.00     0.096 C 
HETATM   21  O1  UNL     1      22.398  -1.360  55.268  1.00  0.00    -0.293 OA
ENDBRANCH   1  19
TORSDOF 3
ENDMDL
MODEL 2
REMARK VINA RESULT:      -7.9      2.818      5.351
REMARK  3 active torsions:
REMARK  status: ('A' for Active; 'I' for Inactive)
REMARK    1  A    between atoms: C2_2  and  C3_4 
REMARK    2  A    between atoms: C9_10  and  N1_11 
REMARK    3  A    between atoms: N1_11  and  C10_12 
ROOT
HETATM    1  C3  UNL     1      25.084  -0.564  54.133  1.00  0.00     0.010 A 
HETATM    2  C4  UNL     1      24.563  -1.177  55.276  1.00  0.00     0.016 A 
HETATM    3  C5  UNL     1      23.199  -1.320  55.413  1.00  0.00     0.011 A 
HETATM    4  C6  UNL     1      22.371  -0.849  54.402  1.00  0.00    -0.024 A 
HETATM    5  C7  UNL     1      22.836  -0.229  53.236  1.00  0.00     0.018 A 
HETATM    6  C8  UNL     1      24.209  -0.122  53.172  1.00  0.00     0.031 A 
HETATM    7  C9  UNL     1      21.707   0.150  52.386  1.00  0.00     0.134 A 
HETATM    8  N2  UNL     1      20.658  -0.222  53.005  1.00  0.00    -0.267 NA
HETATM    9  C16 UNL     1      20.903  -0.857  54.261  1.00  0.00     0.190 A 
ENDROOT
BRANCH   7  10
HETATM   10  N1  UNL     1      21.844   0.824  51.123  1.00  0.00    -0.341 N 
HETATM   11  H7  UNL     1      21.514   0.379  50.232  1.00  0.00     0.167 HD
BRANCH  10  12
HETATM   12  C10 UNL     1      22.465   2.119  51.268  1.00  0.00     0.035 A 
HETATM   13  C11 UNL     1      21.944   3.085  52.101  1.00  0.00     0.029 A 
HETATM   14  C12 UNL     1      22.606   4.283  52.229  1.00  0.00     0.004 A 
HETATM   15  C13 UNL     1      23.790   4.573  51.550  1.00  0.00     0.019 A 
HETATM   16  C14 UNL     1      24.303   3.604  50.719  1.00  0.00     0.013 A 
HETATM   17 BR1  UNL     1      25.920   3.846  49.731  1.00  0.00    -0.051 Br
HETATM   18  C15 UNL     1      23.647   2.407  50.589  1.00  0.00     0.048 A 
ENDBRANCH  10  12
ENDBRANCH   7  10
BRANCH   1  19
HETATM   19  C2  UNL     1      26.523  -0.435  54.048  1.00  0.00     0.155 C 
HETATM   20  C1  UNL     1      27.262  -0.492  52.786  1.00  0.00     0.096 C 
HETATM   21  O1  UNL     1      27.175  -0.261  55.129  1.00  0.00    -0.293 OA
ENDBRANCH   1  19
TORSDOF 3
ENDMDL
MODEL 3
REMARK VINA RESULT:      -7.7      3.445      4.997
REMARK  3 active torsions:
REMARK  status: ('A' for Active; 'I' for Inactive)
REMARK    1  A    between atoms: C2_2  and  C3_4 
REMARK    2  A    between atoms: C9_10  and  N1_11 
REMARK    3  A    between atoms: N1_11  and  C10_12 
ROOT
HETATM    1  C3  UNL     1      24.048  -0.232  53.851  1.00  0.00     0.010 A 
HETATM    2  C4  UNL     1      25.133  -0.603  54.650  1.00  0.00     0.016 A 
HETATM    3  C5  UNL     1      26.377  -0.061  54.408  1.00  0.00     0.011 A 
HETATM    4  C6  UNL     1      26.521   0.848  53.368  1.00  0.00    -0.024 A 
HETATM    5  C7  UNL     1      25.471   1.257  52.537  1.00  0.00     0.018 A 
HETATM    6  C8  UNL     1      24.260   0.673  52.840  1.00  0.00     0.031 A 
HETATM    7  C9  UNL     1      25.962   2.214  51.545  1.00  0.00     0.134 A 
HETATM    8  N2  UNL     1      27.206   2.359  51.777  1.00  0.00    -0.267 NA
HETATM    9  C16 UNL     1      27.698   1.584  52.872  1.00  0.00     0.190 A 
ENDROOT
BRANCH   7  10
HETATM   10  N1  UNL     1      25.136   2.812  50.530  1.00  0.00    -0.341 N 
HETATM   11  H7  UNL     1      24.219   2.384  50.255  1.00  0.00     0.167 HD
BRANCH  10  12
HETATM   12  C10 UNL     1      25.731   4.010  49.988  1.00  0.00     0.035 A 
HETATM   13  C11 UNL     1      26.855   3.968  49.192  1.00  0.00     0.029 A 
HETATM   14  C12 UNL     1      27.349   5.140  48.672  1.00  0.00     0.004 A 
HETATM   15  C13 UNL     1      26.764   6.384  48.912  1.00  0.00     0.019 A 
HETATM   16  C14 UNL     1      25.643   6.419  49.709  1.00  0.00     0.013 A 
HETATM   17 BR1  UNL     1      24.722   8.041  50.121  1.00  0.00    -0.051 Br
HETATM   18  C15 UNL     1      25.146   5.252  50.230  1.00  0.00     0.048 A 
ENDBRANCH  10  12
ENDBRANCH   7  10
BRANCH   1  19
HETATM   19  C2  UNL     1      22.768  -0.839  54.148  1.00  0.00     0.155 C 
HETATM   20  C1  UNL     1      21.592  -0.696  53.288  1.00  0.00     0.096 C 
HETATM   21  O1  UNL     1      22.665  -1.534  55.211  1.00  0.00    -0.293 OA
ENDBRANCH   1  19
TORSDOF 3
ENDMDL
MODEL 4
REMARK VINA RESULT:      -7.6      3.640      6.145
REMARK  3 active torsions:
REMARK  status: ('A' for Active; 'I' for Inactive)
REMARK    1  A    between atoms: C2_2  and  C3_4 
REMARK    2  A    between atoms: C9_10  and  N1_11 
REMARK    3  A    between atoms: N1_11  and  C10_12 
ROOT
HETATM    1  C3  UNL     1      27.343   0.704  53.752  1.00  0.00     0.010 A 
HETATM    2  C4  UNL     1      26.793  -0.581  53.692  1.00  0.00     0.016 A 
HETATM    3  C5  UNL     1      25.457  -0.739  53.394  1.00  0.00     0.011 A 
HETATM    4  C6  UNL     1      24.685   0.391  53.157  1.00  0.00    -0.024 A 
HETATM    5  C7  UNL     1      25.180   1.700  53.203  1.00  0.00     0.018 A 
HETATM    6  C8  UNL     1      26.522   1.777  53.508  1.00  0.00     0.031 A 
HETATM    7  C9  UNL     1      24.108   2.652  52.913  1.00  0.00     0.134 A 
HETATM    8  N2  UNL     1      23.062   1.954  52.709  1.00  0.00    -0.267 NA
HETATM    9  C16 UNL     1      23.257   0.544  52.821  1.00  0.00     0.190 A 
ENDROOT
BRANCH   7  10
HETATM   10  N1  UNL     1      24.283   4.080  52.899  1.00  0.00    -0.341 N 
HETATM   11  H7  UNL     1      24.409   4.618  53.791  1.00  0.00     0.167 HD
BRANCH  10  12
HETATM   12  C10 UNL     1      24.260   4.613  51.559  1.00  0.00     0.035 A 
HETATM   13  C11 UNL     1      24.912   3.989  50.517  1.00  0.00     0.029 A 
HETATM   14  C12 UNL     1      24.817   4.524  49.254  1.00  0.00     0.004 A 
HETATM   15  C13 UNL     1      24.085   5.678  48.972  1.00  0.00     0.019 A 
HETATM   16  C14 UNL     1      23.438   6.296  50.017  1.00  0.00     0.013 A 
HETATM   17 BR1  UNL     1      22.390   7.877  49.789  1.00  0.00    -0.051 Br
HETATM   18  C15 UNL     1      23.530   5.767  51.278  1.00  0.00     0.048 A 
ENDBRANCH  10  12
ENDBRANCH   7  10
BRANCH   1  19
HETATM   19  C2  UNL     1      28.749   0.808  54.077  1.00  0.00     0.155 C 
HETATM   20  C1  UNL     1      29.759  -0.132  53.587  1.00  0.00     0.096 C 
HETATM   21  O1  UNL     1      29.123   1.767  54.827  1.00  0.00    -0.293 OA
ENDBRANCH   1  19
TORSDOF 3
ENDMDL
MODEL 5
REMARK VINA RESULT:      -7.6      2.697      5.140
REMARK  3 active torsions:
REMARK  status: ('A' for Active; 'I' for Inactive)
REMARK    1  A    between atoms: C2_2  and  C3_4 
REMARK    2  A    between atoms: C9_10  and  N1_11 
REMARK    3  A    between atoms: N1_11  and  C10_12 
ROOT
HETATM    1  C3  UNL     1      23.760  -0.345  53.890  1.00  0.00     0.010 A 
HETATM    2  C4  UNL     1      25.028  -0.928  53.982  1.00  0.00     0.016 A 
HETATM    3  C5  UNL     1      26.093  -0.352  53.325  1.00  0.00     0.011 A 
HETATM    4  C6  UNL     1      25.879   0.803  52.583  1.00  0.00    -0.024 A 
HETATM    5  C7  UNL     1      24.633   1.430  52.456  1.00  0.00     0.018 A 
HETATM    6  C8  UNL     1      23.618   0.796  53.140  1.00  0.00     0.031 A 
HETATM    7  C9  UNL     1      24.754   2.614  51.605  1.00  0.00     0.134 A 
HETATM    8  N2  UNL     1      25.978   2.679  51.260  1.00  0.00    -0.267 NA
HETATM    9  C16 UNL     1      26.799   1.634  51.786  1.00  0.00     0.190 A 
ENDROOT
BRANCH   7  10
HETATM   10  N1  UNL     1      23.650   3.470  51.261  1.00  0.00    -0.341 N 
HETATM   11  H7  UNL     1      23.507   4.391  51.744  1.00  0.00     0.167 HD
BRANCH  10  12
HETATM   12  C10 UNL     1      22.830   2.900  50.220  1.00  0.00     0.035 A 
HETATM   13  C11 UNL     1      23.256   2.839  48.911  1.00  0.00     0.029 A 
HETATM   14  C12 UNL     1      22.446   2.245  47.972  1.00  0.00     0.004 A 
HETATM   15  C13 UNL     1      21.201   1.696  48.282  1.00  0.00     0.019 A 
HETATM   16  C14 UNL     1      20.782   1.762  49.591  1.00  0.00     0.013 A 
HETATM   17 BR1  UNL     1      19.109   1.047  50.173  1.00  0.00    -0.051 Br
HETATM   18  C15 UNL     1      21.586   2.353  50.530  1.00  0.00     0.048 A 
ENDBRANCH  10  12
ENDBRANCH   7  10
BRANCH   1  19
HETATM   19  C2  UNL     1      22.678  -0.999  54.595  1.00  0.00     0.155 C 
HETATM   20  C1  UNL     1      21.294  -1.003  54.117  1.00  0.00     0.096 C 
HETATM   21  O1  UNL     1      22.949  -1.601  55.685  1.00  0.00    -0.293 OA
ENDBRANCH   1  19
TORSDOF 3
ENDMDL
MODEL 6
REMARK VINA RESULT:      -7.3      3.677      5.882
REMARK  3 active torsions:
REMARK  status: ('A' for Active; 'I' for Inactive)
REMARK    1  A    between atoms: C2_2  and  C3_4 
REMARK    2  A    between atoms: C9_10  and  N1_11 
REMARK    3  A    between atoms: N1_11  and  C10_12 
ROOT
HETATM    1  C3  UNL     1      25.978   5.345  49.673  1.00  0.00     0.010 A 
HETATM    2  C4  UNL     1      25.427   6.546  50.133  1.00  0.00     0.016 A 
HETATM    3  C5  UNL     1      24.336   6.520  50.974  1.00  0.00     0.011 A 
HETATM    4  C6  UNL     1      23.807   5.291  51.347  1.00  0.00    -0.024 A 
HETATM    5  C7  UNL     1      24.316   4.058  50.920  1.00  0.00     0.018 A 
HETATM    6  C8  UNL     1      25.405   4.166  50.082  1.00  0.00     0.031 A 
HETATM    7  C9  UNL     1      23.528   2.966  51.491  1.00  0.00     0.134 A 
HETATM    8  N2  UNL     1      22.625   3.515  52.202  1.00  0.00    -0.267 NA
HETATM    9  C16 UNL     1      22.669   4.943  52.217  1.00  0.00     0.190 A 
ENDROOT
BRANCH   7  10
HETATM   10  N1  UNL     1      23.780   1.574  51.232  1.00  0.00    -0.341 N 
HETATM   11  H7  UNL     1      23.446   1.118  50.347  1.00  0.00     0.167 HD
BRANCH  10  12
HETATM   12  C10 UNL     1      24.512   0.950  52.307  1.00  0.00     0.035 A 
HETATM   13  C11 UNL     1      23.918   0.052  53.167  1.00  0.00     0.029 A 
HETATM   14  C12 UNL     1      24.680  -0.541  54.145  1.00  0.00     0.004 A 
HETATM   15  C13 UNL     1      26.040  -0.276  54.313  1.00  0.00     0.019 A 
HETATM   16  C14 UNL     1      26.627   0.623  53.452  1.00  0.00     0.013 A 
HETATM   17 BR1  UNL     1      28.478   1.082  53.547  1.00  0.00    -0.051 Br
HETATM   18  C15 UNL     1      25.870   1.216  52.474  1.00  0.00     0.048 A 
ENDBRANCH  10  12
ENDBRANCH   7  10
BRANCH   1  19
HETATM   19  C2  UNL     1      27.118   5.435  48.787  1.00  0.00     0.155 C 
HETATM   20  C1  UNL     1      27.514   6.673  48.112  1.00  0.00     0.096 C 
HETATM   21  O1  UNL     1      27.809   4.384  48.587  1.00  0.00    -0.293 OA
ENDBRANCH   1  19
TORSDOF 3
ENDMDL
MODEL 7
REMARK VINA RESULT:      -7.3      3.330      4.716
REMARK  3 active torsions:
REMARK  status: ('A' for Active; 'I' for Inactive)
REMARK    1  A    between atoms: C2_2  and  C3_4 
REMARK    2  A    between atoms: C9_10  and  N1_11 
REMARK    3  A    between atoms: N1_11  and  C10_12 
ROOT
HETATM    1  C3  UNL     1      20.888  -0.330  52.987  1.00  0.00     0.010 A 
HETATM    2  C4  UNL     1      20.905  -1.106  54.150  1.00  0.00     0.016 A 
HETATM    3  C5  UNL     1      22.097  -1.331  54.804  1.00  0.00     0.011 A 
HETATM    4  C6  UNL     1      23.261  -0.776  54.287  1.00  0.00    -0.024 A 
HETATM    5  C7  UNL     1      23.304   0.008  53.128  1.00  0.00     0.018 A 
HETATM    6  C8  UNL     1      22.075   0.189  52.531  1.00  0.00     0.031 A 
HETATM    7  C9  UNL     1      24.680   0.428  52.860  1.00  0.00     0.134 A 
HETATM    8  N2  UNL     1      25.390  -0.070  53.792  1.00  0.00    -0.267 NA
HETATM    9  C16 UNL     1      24.659  -0.837  54.750  1.00  0.00     0.190 A 
ENDROOT
BRANCH   7  10
HETATM   10  N1  UNL     1      25.068   1.231  51.730  1.00  0.00    -0.341 N 
HETATM   11  H7  UNL     1      25.738   0.865  51.010  1.00  0.00     0.167 HD
BRANCH  10  12
HETATM   12  C10 UNL     1      24.434   2.527  51.747  1.00  0.00     0.035 A 
HETATM   13  C11 UNL     1      24.218   3.215  52.922  1.00  0.00     0.029 A 
HETATM   14  C12 UNL     1      23.648   4.464  52.867  1.00  0.00     0.004 A 
HETATM   15  C13 UNL     1      23.273   5.077  51.671  1.00  0.00     0.019 A 
HETATM   16  C14 UNL     1      23.491   4.384  50.503  1.00  0.00     0.013 A 
HETATM   17 BR1  UNL     1      23.042   5.091  48.786  1.00  0.00    -0.051 Br
HETATM   18  C15 UNL     1      24.059   3.137  50.551  1.00  0.00     0.048 A 
ENDBRANCH  10  12
ENDBRANCH   7  10
BRANCH   1  19
HETATM   19  C2  UNL     1      19.609  -0.134  52.340  1.00  0.00     0.155 C 
HETATM   20  C1  UNL     1      18.377  -0.789  52.782  1.00  0.00     0.096 C 
HETATM   21  O1  UNL     1      19.557   0.651  51.337  1.00  0.00    -0.293 OA
ENDBRANCH   1  19
TORSDOF 3
ENDMDL
MODEL 8
REMARK VINA RESULT:      -7.3      3.285      6.124
REMARK  3 active torsions:
REMARK  status: ('A' for Active; 'I' for Inactive)
REMARK    1  A    between atoms: C2_2  and  C3_4 
REMARK    2  A    between atoms: C9_10  and  N1_11 
REMARK    3  A    between atoms: N1_11  and  C10_12 
ROOT
HETATM    1  C3  UNL     1      24.780   0.706  53.492  1.00  0.00     0.010 A 
HETATM    2  C4  UNL     1      24.772  -0.460  54.263  1.00  0.00     0.016 A 
HETATM    3  C5  UNL     1      23.577  -1.085  54.546  1.00  0.00     0.011 A 
HETATM    4  C6  UNL     1      22.400  -0.535  54.053  1.00  0.00    -0.024 A 
HETATM    5  C7  UNL     1      22.347   0.629  53.277  1.00  0.00     0.018 A 
HETATM    6  C8  UNL     1      23.580   1.195  53.037  1.00  0.00     0.031 A 
HETATM    7  C9  UNL     1      20.959   0.935  52.929  1.00  0.00     0.134 A 
HETATM    8  N2  UNL     1      20.251   0.019  53.459  1.00  0.00    -0.267 NA
HETATM    9  C16 UNL     1      20.995  -0.962  54.183  1.00  0.00     0.190 A 
ENDROOT
BRANCH   7  10
HETATM   10  N1  UNL     1      20.560   2.079  52.152  1.00  0.00    -0.341 N 
HETATM   11  H7  UNL     1      19.923   2.810  52.552  1.00  0.00     0.167 HD
BRANCH  10  12
HETATM   12  C10 UNL     1      21.136   2.059  50.829  1.00  0.00     0.035 A 
HETATM   13  C11 UNL     1      20.950   0.996  49.971  1.00  0.00     0.029 A 
HETATM   14  C12 UNL     1      21.490   1.056  48.708  1.00  0.00     0.004 A 
HETATM   15  C13 UNL     1      22.225   2.150  48.247  1.00  0.00     0.019 A 
HETATM   16  C14 UNL     1      22.407   3.206  49.109  1.00  0.00     0.013 A 
HETATM   17 BR1  UNL     1      23.380   4.776  48.623  1.00  0.00    -0.051 Br
HETATM   18  C15 UNL     1      21.871   3.151  50.370  1.00  0.00     0.048 A 
ENDBRANCH  10  12
ENDBRANCH   7  10
BRANCH   1  19
HETATM   19  C2  UNL     1      26.064   1.321  53.234  1.00  0.00     0.155 C 
HETATM   20  C1  UNL     1      26.788   1.169  51.971  1.00  0.00     0.096 C 
HETATM   21  O1  UNL     1      26.586   2.031  54.154  1.00  0.00    -0.293 OA
ENDBRANCH   1  19
TORSDOF 3
ENDMDL
MODEL 9
REMARK VINA RESULT:      -7.2      3.771      5.630
REMARK  3 active torsions:
REMARK  status: ('A' for Active; 'I' for Inactive)
REMARK    1  A    between atoms: C2_2  and  C3_4 
REMARK    2  A    between atoms: C9_10  and  N1_11 
REMARK    3  A    between atoms: N1_11  and  C10_12 
ROOT
HETATM    1  C3  UNL     1      24.925   0.272  53.458  1.00  0.00     0.010 A 
HETATM    2  C4  UNL     1      23.806  -0.557  53.328  1.00  0.00     0.016 A 
HETATM    3  C5  UNL     1      22.600  -0.021  52.934  1.00  0.00     0.011 A 
HETATM    4  C6  UNL     1      22.525   1.342  52.672  1.00  0.00    -0.024 A 
HETATM    5  C7  UNL     1      23.610   2.219  52.785  1.00  0.00     0.018 A 
HETATM    6  C8  UNL     1      24.781   1.610  53.183  1.00  0.00     0.031 A 
HETATM    7  C9  UNL     1      23.191   3.579  52.444  1.00  0.00     0.134 A 
HETATM    8  N2  UNL     1      21.954   3.505  52.151  1.00  0.00    -0.267 NA
HETATM    9  C16 UNL     1      21.400   2.191  52.242  1.00  0.00     0.190 A 
ENDROOT
BRANCH   7  10
HETATM   10  N1  UNL     1      24.066   4.721  52.478  1.00  0.00    -0.341 N 
HETATM   11  H7  UNL     1      24.455   5.079  53.385  1.00  0.00     0.167 HD
BRANCH  10  12
HETATM   12  C10 UNL     1      24.306   5.255  51.159  1.00  0.00     0.035 A 
HETATM   13  C11 UNL     1      25.102   4.601  50.244  1.00  0.00     0.029 A 
HETATM   14  C12 UNL     1      25.257   5.140  48.989  1.00  0.00     0.004 A 
HETATM   15  C13 UNL     1      24.643   6.330  48.592  1.00  0.00     0.019 A 
HETATM   16  C14 UNL     1      23.851   6.977  49.512  1.00  0.00     0.013 A 
HETATM   17 BR1  UNL     1      22.937   8.607  49.117  1.00  0.00    -0.051 Br
HETATM   18  C15 UNL     1      23.693   6.443  50.764  1.00  0.00     0.048 A 
ENDBRANCH  10  12
ENDBRANCH   7  10
BRANCH   1  19
HETATM   19  C2  UNL     1      26.162  -0.346  53.882  1.00  0.00     0.155 C 
HETATM   20  C1  UNL     1      27.086   0.276  54.833  1.00  0.00     0.096 C 
HETATM   21  O1  UNL     1      26.458  -1.489  53.403  1.00  0.00    -0.293 OA
ENDBRANCH   1  19
TORSDOF 3
ENDMDL
