MODEL 1
REMARK VINA RESULT:      -7.7      0.000      0.000
REMARK  4 active torsions:
REMARK  status: ('A' for Active; 'I' for Inactive)
REMARK    1  A    between atoms: C2_2  and  O1_3 
REMARK    2  A    between atoms: C2_2  and  C3_4 
REMARK    3  A    between atoms: N1_8  and  C7_9 
REMARK    4  A    between atoms: C8_11  and  C9_12 
ROOT
HETATM    1  C3  UNL     1      24.089   5.120  50.986  1.00  0.00    -0.025 A 
HETATM    2  C4  UNL     1      23.500   6.085  50.293  1.00  0.00     0.009 A 
HETATM    3  C5  UNL     1      24.184   6.489  49.066  1.00  0.00     0.018 A 
HETATM    4  C6  UNL     1      25.318   5.960  48.629  1.00  0.00     0.094 A 
HETATM    5  N1  UNL     1      25.860   4.931  49.452  1.00  0.00    -0.323 N 
HETATM    6  C8  UNL     1      25.353   4.402  50.676  1.00  0.00     0.148 A 
ENDROOT
BRANCH   6   7
HETATM    7  C9  UNL     1      25.277   2.942  50.780  1.00  0.00     0.028 C 
HETATM    8  C10 UNL     1      26.082   2.180  51.507  1.00  0.00     0.011 A 
HETATM    9  C11 UNL     1      26.146   0.699  51.724  1.00  0.00     0.092 A 
HETATM   10  N2  UNL     1      27.134   2.750  52.277  1.00  0.00    -0.363 N 
HETATM   11  C12 UNL     1      27.299   0.588  52.653  1.00  0.00    -0.052 A 
HETATM   12  C13 UNL     1      27.862   1.742  52.970  1.00  0.00     0.012 A 
HETATM   13  C17 UNL     1      27.663  -0.783  53.099  1.00  0.00     0.036 C 
HETATM   14  C14 UNL     1      29.036   1.722  53.904  1.00  0.00     0.057 C 
HETATM   15  C15 UNL     1      29.777   0.413  53.682  1.00  0.00     0.006 C 
HETATM   16  C16 UNL     1      28.814  -0.681  54.092  1.00  0.00     0.005 C 
HETATM   17  H22 UNL     1      27.438   3.739  52.407  1.00  0.00     0.165 HD
ENDBRANCH   6   7
BRANCH   1  18
HETATM   18  C2  UNL     1      23.529   4.589  52.256  1.00  0.00     0.145 C 
HETATM   19  C1  UNL     1      22.025   4.513  52.234  1.00  0.00     0.044 C 
BRANCH  18  20
HETATM   20  O1  UNL     1      23.878   5.330  53.371  1.00  0.00    -0.392 OA
HETATM   21  H5  UNL     1      23.056   5.451  53.910  1.00  0.00     0.210 HD
ENDBRANCH  18  20
ENDBRANCH   1  18
BRANCH   5  22
HETATM   22  C7  UNL     1      27.075   4.340  49.008  1.00  0.00     0.356 C 
HETATM   23  O2  UNL     1      28.188   4.860  48.736  1.00  0.00    -0.283 OA
ENDBRANCH   5  22
TORSDOF 4
ENDMDL
MODEL 2
REMARK VINA RESULT:      -7.6      3.379      4.695
REMARK  4 active torsions:
REMARK  status: ('A' for Active; 'I' for Inactive)
REMARK    1  A    between atoms: C2_2  and  O1_3 
REMARK    2  A    between atoms: C2_2  and  C3_4 
REMARK    3  A    between atoms: N1_8  and  C7_9 
REMARK    4  A    between atoms: C8_11  and  C9_12 
ROOT
HETATM    1  C3  UNL     1      21.853   0.122  53.639  1.00  0.00    -0.025 A 
HETATM    2  C4  UNL     1      20.663   0.662  53.408  1.00  0.00     0.009 A 
HETATM    3  C5  UNL     1      20.678   1.951  52.719  1.00  0.00     0.018 A 
HETATM    4  C6  UNL     1      21.777   2.582  52.329  1.00  0.00     0.094 A 
HETATM    5  N1  UNL     1      22.997   1.909  52.628  1.00  0.00    -0.323 N 
HETATM    6  C8  UNL     1      23.192   0.661  53.289  1.00  0.00     0.148 A 
ENDROOT
BRANCH   6   7
HETATM    7  C9  UNL     1      24.093  -0.295  52.638  1.00  0.00     0.028 C 
HETATM    8  C10 UNL     1      25.379  -0.455  52.922  1.00  0.00     0.011 A 
HETATM    9  C11 UNL     1      26.428  -1.368  52.364  1.00  0.00     0.092 A 
HETATM   10  N2  UNL     1      26.012   0.328  53.927  1.00  0.00    -0.363 N 
HETATM   11  C12 UNL     1      27.614  -0.977  53.168  1.00  0.00    -0.052 A 
HETATM   12  C13 UNL     1      27.387  -0.020  54.053  1.00  0.00     0.012 A 
HETATM   13  C17 UNL     1      28.880  -1.700  52.879  1.00  0.00     0.036 C 
HETATM   14  C14 UNL     1      28.532   0.437  54.907  1.00  0.00     0.057 C 
HETATM   15  C15 UNL     1      29.806   0.277  54.092  1.00  0.00     0.006 C 
HETATM   16  C16 UNL     1      29.951  -1.210  53.845  1.00  0.00     0.005 C 
HETATM   17  H22 UNL     1      25.645   1.076  54.554  1.00  0.00     0.165 HD
ENDBRANCH   6   7
BRANCH   1  18
HETATM   18  C2  UNL     1      22.019  -1.184  54.327  1.00  0.00     0.145 C 
HETATM   19  C1  UNL     1      20.740  -1.979  54.370  1.00  0.00     0.044 C 
BRANCH  18  20
HETATM   20  O1  UNL     1      22.467  -1.073  55.631  1.00  0.00    -0.392 OA
HETATM   21  H5  UNL     1      22.827  -1.958  55.892  1.00  0.00     0.210 HD
ENDBRANCH  18  20
ENDBRANCH   1  18
BRANCH   5  22
HETATM   22  C7  UNL     1      24.194   2.558  52.219  1.00  0.00     0.356 C 
HETATM   23  O2  UNL     1      25.151   3.017  52.897  1.00  0.00    -0.283 OA
ENDBRANCH   5  22
TORSDOF 4
ENDMDL
MODEL 3
REMARK VINA RESULT:      -7.6      3.818      7.095
REMARK  4 active torsions:
REMARK  status: ('A' for Active; 'I' for Inactive)
REMARK    1  A    between atoms: C2_2  and  O1_3 
REMARK    2  A    between atoms: C2_2  and  C3_4 
REMARK    3  A    between atoms: N1_8  and  C7_9 
REMARK    4  A    between atoms: C8_11  and  C9_12 
ROOT
HETATM    1  C3  UNL     1      27.674  -0.638  53.256  1.00  0.00    -0.025 A 
HETATM    2  C4  UNL     1      28.919  -0.197  53.374  1.00  0.00     0.009 A 
HETATM    3  C5  UNL     1      29.060   1.241  53.600  1.00  0.00     0.018 A 
HETATM    4  C6  UNL     1      28.047   2.090  53.690  1.00  0.00     0.094 A 
HETATM    5  N1  UNL     1      26.755   1.506  53.549  1.00  0.00    -0.323 N 
HETATM    6  C8  UNL     1      26.410   0.140  53.322  1.00  0.00     0.148 A 
ENDROOT
BRANCH   6   7
HETATM    7  C9  UNL     1      25.376  -0.430  54.190  1.00  0.00     0.028 C 
HETATM    8  C10 UNL     1      24.081  -0.483  53.911  1.00  0.00     0.011 A 
HETATM    9  C11 UNL     1      22.907  -1.020  54.671  1.00  0.00     0.092 A 
HETATM   10  N2  UNL     1      23.571   0.038  52.689  1.00  0.00    -0.363 N 
HETATM   11  C12 UNL     1      21.792  -0.728  53.733  1.00  0.00    -0.052 A 
HETATM   12  C13 UNL     1      22.160  -0.130  52.612  1.00  0.00     0.012 A 
HETATM   13  C17 UNL     1      20.432  -1.138  54.171  1.00  0.00     0.036 C 
HETATM   14  C14 UNL     1      21.096   0.203  51.609  1.00  0.00     0.057 C 
HETATM   15  C15 UNL     1      19.814   0.485  52.376  1.00  0.00     0.006 C 
HETATM   16  C16 UNL     1      19.446  -0.818  53.054  1.00  0.00     0.005 C 
HETATM   17  H22 UNL     1      24.046   0.497  51.882  1.00  0.00     0.165 HD
ENDBRANCH   6   7
BRANCH   1  18
HETATM   18  C2  UNL     1      27.350  -2.069  53.023  1.00  0.00     0.145 C 
HETATM   19  C1  UNL     1      28.573  -2.949  53.061  1.00  0.00     0.044 C 
BRANCH  18  20
HETATM   20  O1  UNL     1      26.719  -2.309  51.816  1.00  0.00    -0.392 OA
HETATM   21  H5  UNL     1      26.008  -2.977  51.986  1.00  0.00     0.210 HD
ENDBRANCH  18  20
ENDBRANCH   1  18
BRANCH   5  22
HETATM   22  C7  UNL     1      25.646   2.391  53.645  1.00  0.00     0.356 C 
HETATM   23  O2  UNL     1      24.840   2.792  52.765  1.00  0.00    -0.283 OA
ENDBRANCH   5  22
TORSDOF 4
ENDMDL
MODEL 4
REMARK VINA RESULT:      -7.6      4.094      5.734
REMARK  4 active torsions:
REMARK  status: ('A' for Active; 'I' for Inactive)
REMARK    1  A    between atoms: C2_2  and  O1_3 
REMARK    2  A    between atoms: C2_2  and  C3_4 
REMARK    3  A    between atoms: N1_8  and  C7_9 
REMARK    4  A    between atoms: C8_11  and  C9_12 
ROOT
HETATM    1  C3  UNL     1      21.123   0.709  51.332  1.00  0.00    -0.025 A 
HETATM    2  C4  UNL     1      19.814   0.519  51.230  1.00  0.00     0.009 A 
HETATM    3  C5  UNL     1      19.182  -0.143  52.371  1.00  0.00     0.018 A 
HETATM    4  C6  UNL     1      19.825  -0.544  53.458  1.00  0.00     0.094 A 
HETATM    5  N1  UNL     1      21.227  -0.287  53.459  1.00  0.00    -0.323 N 
HETATM    6  C8  UNL     1      22.024   0.335  52.453  1.00  0.00     0.148 A 
ENDROOT
BRANCH   6   7
HETATM    7  C9  UNL     1      22.932   1.397  52.896  1.00  0.00     0.028 C 
HETATM    8  C10 UNL     1      24.248   1.280  53.021  1.00  0.00     0.011 A 
HETATM    9  C11 UNL     1      25.309   2.245  53.454  1.00  0.00     0.092 A 
HETATM   10  N2  UNL     1      24.908   0.056  52.721  1.00  0.00    -0.363 N 
HETATM   11  C12 UNL     1      26.530   1.407  53.342  1.00  0.00    -0.052 A 
HETATM   12  C13 UNL     1      26.311   0.170  52.928  1.00  0.00     0.012 A 
HETATM   13  C17 UNL     1      27.817   2.058  53.702  1.00  0.00     0.036 C 
HETATM   14  C14 UNL     1      27.491  -0.746  52.788  1.00  0.00     0.057 C 
HETATM   15  C15 UNL     1      28.518  -0.336  53.832  1.00  0.00     0.006 C 
HETATM   16  C16 UNL     1      28.948   1.066  53.458  1.00  0.00     0.005 C 
HETATM   17  H22 UNL     1      24.543  -0.863  52.389  1.00  0.00     0.165 HD
ENDBRANCH   6   7
BRANCH   1  18
HETATM   18  C2  UNL     1      21.921   1.366  50.265  1.00  0.00     0.145 C 
HETATM   19  C1  UNL     1      21.595   2.829  50.121  1.00  0.00     0.044 C 
BRANCH  18  20
HETATM   20  O1  UNL     1      21.760   0.793  49.017  1.00  0.00    -0.392 OA
HETATM   21  H5  UNL     1      20.926   0.259  49.046  1.00  0.00     0.210 HD
ENDBRANCH  18  20
ENDBRANCH   1  18
BRANCH   5  22
HETATM   22  C7  UNL     1      21.946  -0.702  54.613  1.00  0.00     0.356 C 
HETATM   23  O2  UNL     1      21.918  -1.788  55.249  1.00  0.00    -0.283 OA
ENDBRANCH   5  22
TORSDOF 4
ENDMDL
MODEL 5
REMARK VINA RESULT:      -7.4      2.104      6.477
REMARK  4 active torsions:
REMARK  status: ('A' for Active; 'I' for Inactive)
REMARK    1  A    between atoms: C2_2  and  O1_3 
REMARK    2  A    between atoms: C2_2  and  C3_4 
REMARK    3  A    between atoms: N1_8  and  C7_9 
REMARK    4  A    between atoms: C8_11  and  C9_12 
ROOT
HETATM    1  C3  UNL     1      26.698   0.996  53.306  1.00  0.00    -0.025 A 
HETATM    2  C4  UNL     1      26.511  -0.150  53.949  1.00  0.00     0.009 A 
HETATM    3  C5  UNL     1      25.203  -0.775  53.755  1.00  0.00     0.018 A 
HETATM    4  C6  UNL     1      24.236  -0.275  53.000  1.00  0.00     0.094 A 
HETATM    5  N1  UNL     1      24.548   0.958  52.358  1.00  0.00    -0.323 N 
HETATM    6  C8  UNL     1      25.751   1.721  52.421  1.00  0.00     0.148 A 
ENDROOT
BRANCH   6   7
HETATM    7  C9  UNL     1      26.316   2.167  51.144  1.00  0.00     0.028 C 
HETATM    8  C10 UNL     1      26.116   3.355  50.588  1.00  0.00     0.011 A 
HETATM    9  C11 UNL     1      26.606   3.965  49.311  1.00  0.00     0.092 A 
HETATM   10  N2  UNL     1      25.297   4.332  51.219  1.00  0.00    -0.363 N 
HETATM   11  C12 UNL     1      25.971   5.307  49.365  1.00  0.00    -0.052 A 
HETATM   12  C13 UNL     1      25.231   5.522  50.439  1.00  0.00     0.012 A 
HETATM   13  C17 UNL     1      26.248   6.218  48.223  1.00  0.00     0.036 C 
HETATM   14  C14 UNL     1      24.552   6.852  50.574  1.00  0.00     0.057 C 
HETATM   15  C15 UNL     1      24.233   7.349  49.173  1.00  0.00     0.006 C 
HETATM   16  C16 UNL     1      25.571   7.556  48.495  1.00  0.00     0.005 C 
HETATM   17  H22 UNL     1      24.767   4.315  52.117  1.00  0.00     0.165 HD
ENDBRANCH   6   7
BRANCH   1  18
HETATM   18  C2  UNL     1      27.967   1.763  53.392  1.00  0.00     0.145 C 
HETATM   19  C1  UNL     1      29.114   0.925  53.894  1.00  0.00     0.044 C 
BRANCH  18  20
HETATM   20  O1  UNL     1      27.892   2.874  54.213  1.00  0.00    -0.392 OA
HETATM   21  H5  UNL     1      26.934   3.110  54.297  1.00  0.00     0.210 HD
ENDBRANCH  18  20
ENDBRANCH   1  18
BRANCH   5  22
HETATM   22  C7  UNL     1      23.531   1.519  51.536  1.00  0.00     0.356 C 
HETATM   23  O2  UNL     1      22.810   2.536  51.706  1.00  0.00    -0.283 OA
ENDBRANCH   5  22
TORSDOF 4
ENDMDL
MODEL 6
REMARK VINA RESULT:      -7.1      3.210      6.948
REMARK  4 active torsions:
REMARK  status: ('A' for Active; 'I' for Inactive)
REMARK    1  A    between atoms: C2_2  and  O1_3 
REMARK    2  A    between atoms: C2_2  and  C3_4 
REMARK    3  A    between atoms: N1_8  and  C7_9 
REMARK    4  A    between atoms: C8_11  and  C9_12 
ROOT
HETATM    1  C3  UNL     1      23.552   0.219  53.395  1.00  0.00    -0.025 A 
HETATM    2  C4  UNL     1      23.176  -0.816  54.134  1.00  0.00     0.009 A 
HETATM    3  C5  UNL     1      21.744  -0.906  54.414  1.00  0.00     0.018 A 
HETATM    4  C6  UNL     1      20.839  -0.041  53.981  1.00  0.00     0.094 A 
HETATM    5  N1  UNL     1      21.355   1.030  53.195  1.00  0.00    -0.323 N 
HETATM    6  C8  UNL     1      22.705   1.294  52.818  1.00  0.00     0.148 A 
ENDROOT
BRANCH   6   7
HETATM    7  C9  UNL     1      22.948   1.582  51.402  1.00  0.00     0.028 C 
HETATM    8  C10 UNL     1      23.263   2.769  50.901  1.00  0.00     0.011 A 
HETATM    9  C11 UNL     1      23.540   3.232  49.503  1.00  0.00     0.092 A 
HETATM   10  N2  UNL     1      23.391   3.909  51.741  1.00  0.00    -0.363 N 
HETATM   11  C12 UNL     1      23.815   4.675  49.722  1.00  0.00    -0.052 A 
HETATM   12  C13 UNL     1      23.733   5.065  50.984  1.00  0.00     0.012 A 
HETATM   13  C17 UNL     1      24.141   5.479  48.515  1.00  0.00     0.036 C 
HETATM   14  C14 UNL     1      23.995   6.509  51.295  1.00  0.00     0.057 C 
HETATM   15  C15 UNL     1      23.551   7.325  50.091  1.00  0.00     0.006 C 
HETATM   16  C16 UNL     1      24.456   6.905  48.952  1.00  0.00     0.005 C 
HETATM   17  H22 UNL     1      23.283   4.024  52.772  1.00  0.00     0.165 HD
ENDBRANCH   6   7
BRANCH   1  18
HETATM   18  C2  UNL     1      24.968   0.461  53.017  1.00  0.00     0.145 C 
HETATM   19  C1  UNL     1      25.808  -0.787  53.103  1.00  0.00     0.044 C 
BRANCH  18  20
HETATM   20  O1  UNL     1      25.594   1.422  53.791  1.00  0.00    -0.392 OA
HETATM   21  H5  UNL     1      25.448   2.295  53.346  1.00  0.00     0.210 HD
ENDBRANCH  18  20
ENDBRANCH   1  18
BRANCH   5  22
HETATM   22  C7  UNL     1      20.407   1.974  52.712  1.00  0.00     0.356 C 
HETATM   23  O2  UNL     1      20.334   3.220  52.879  1.00  0.00    -0.283 OA
ENDBRANCH   5  22
TORSDOF 4
ENDMDL
MODEL 7
REMARK VINA RESULT:      -6.9      2.541      3.491
REMARK  4 active torsions:
REMARK  status: ('A' for Active; 'I' for Inactive)
REMARK    1  A    between atoms: C2_2  and  O1_3 
REMARK    2  A    between atoms: C2_2  and  C3_4 
REMARK    3  A    between atoms: N1_8  and  C7_9 
REMARK    4  A    between atoms: C8_11  and  C9_12 
ROOT
HETATM    1  C3  UNL     1      25.040   7.528  49.384  1.00  0.00    -0.025 A 
HETATM    2  C4  UNL     1      25.442   8.612  48.734  1.00  0.00     0.009 A 
HETATM    3  C5  UNL     1      26.680   8.465  47.969  1.00  0.00     0.018 A 
HETATM    4  C6  UNL     1      27.390   7.349  47.895  1.00  0.00     0.094 A 
HETATM    5  N1  UNL     1      26.863   6.249  48.632  1.00  0.00    -0.323 N 
HETATM    6  C8  UNL     1      25.685   6.191  49.435  1.00  0.00     0.148 A 
ENDROOT
BRANCH   6   7
HETATM    7  C9  UNL     1      24.784   5.059  49.200  1.00  0.00     0.028 C 
HETATM    8  C10 UNL     1      24.533   4.084  50.063  1.00  0.00     0.011 A 
HETATM    9  C11 UNL     1      23.656   2.872  49.988  1.00  0.00     0.092 A 
HETATM   10  N2  UNL     1      25.152   4.060  51.344  1.00  0.00    -0.363 N 
HETATM   11  C12 UNL     1      23.889   2.259  51.321  1.00  0.00    -0.052 A 
HETATM   12  C13 UNL     1      24.733   2.924  52.092  1.00  0.00     0.012 A 
HETATM   13  C17 UNL     1      23.155   0.998  51.609  1.00  0.00     0.036 C 
HETATM   14  C14 UNL     1      25.027   2.374  53.456  1.00  0.00     0.057 C 
HETATM   15  C15 UNL     1      24.918   0.859  53.373  1.00  0.00     0.006 C 
HETATM   16  C16 UNL     1      23.471   0.568  53.036  1.00  0.00     0.005 C 
HETATM   17  H22 UNL     1      25.829   4.712  51.797  1.00  0.00     0.165 HD
ENDBRANCH   6   7
BRANCH   1  18
HETATM   18  C2  UNL     1      23.804   7.502  50.208  1.00  0.00     0.145 C 
HETATM   19  C1  UNL     1      22.754   8.456  49.701  1.00  0.00     0.044 C 
BRANCH  18  20
HETATM   20  O1  UNL     1      24.017   7.809  51.540  1.00  0.00    -0.392 OA
HETATM   21  H5  UNL     1      23.139   8.057  51.926  1.00  0.00     0.210 HD
ENDBRANCH  18  20
ENDBRANCH   1  18
BRANCH   5  22
HETATM   22  C7  UNL     1      27.600   5.034  48.570  1.00  0.00     0.356 C 
HETATM   23  O2  UNL     1      28.821   4.827  48.347  1.00  0.00    -0.283 OA
ENDBRANCH   5  22
TORSDOF 4
ENDMDL
MODEL 8
REMARK VINA RESULT:      -6.8      2.552      6.501
REMARK  4 active torsions:
REMARK  status: ('A' for Active; 'I' for Inactive)
REMARK    1  A    between atoms: C2_2  and  O1_3 
REMARK    2  A    between atoms: C2_2  and  C3_4 
REMARK    3  A    between atoms: N1_8  and  C7_9 
REMARK    4  A    between atoms: C8_11  and  C9_12 
ROOT
HETATM    1  C3  UNL     1      23.873   0.422  53.302  1.00  0.00    -0.025 A 
HETATM    2  C4  UNL     1      24.337  -0.645  53.940  1.00  0.00     0.009 A 
HETATM    3  C5  UNL     1      25.793  -0.761  53.998  1.00  0.00     0.018 A 
HETATM    4  C6  UNL     1      26.638   0.111  53.467  1.00  0.00     0.094 A 
HETATM    5  N1  UNL     1      26.029   1.217  52.808  1.00  0.00    -0.323 N 
HETATM    6  C8  UNL     1      24.642   1.507  52.641  1.00  0.00     0.148 A 
ENDROOT
BRANCH   6   7
HETATM    7  C9  UNL     1      24.209   2.866  52.977  1.00  0.00     0.028 C 
HETATM    8  C10 UNL     1      23.907   3.816  52.101  1.00  0.00     0.011 A 
HETATM    9  C11 UNL     1      23.456   5.234  52.267  1.00  0.00     0.092 A 
HETATM   10  N2  UNL     1      23.987   3.575  50.701  1.00  0.00    -0.363 N 
HETATM   11  C12 UNL     1      23.319   5.666  50.853  1.00  0.00    -0.052 A 
HETATM   12  C13 UNL     1      23.618   4.735  49.963  1.00  0.00     0.012 A 
HETATM   13  C17 UNL     1      22.873   7.066  50.627  1.00  0.00     0.036 C 
HETATM   14  C14 UNL     1      23.509   5.087  48.509  1.00  0.00     0.057 C 
HETATM   15  C15 UNL     1      23.822   6.569  48.371  1.00  0.00     0.006 C 
HETATM   16  C16 UNL     1      22.729   7.293  49.127  1.00  0.00     0.005 C 
HETATM   17  H22 UNL     1      24.258   2.726  50.160  1.00  0.00     0.165 HD
ENDBRANCH   6   7
BRANCH   1  18
HETATM   18  C2  UNL     1      22.420   0.695  53.150  1.00  0.00     0.145 C 
HETATM   19  C1  UNL     1      21.593   0.014  54.209  1.00  0.00     0.044 C 
BRANCH  18  20
HETATM   20  O1  UNL     1      21.906   0.306  51.926  1.00  0.00    -0.392 OA
HETATM   21  H5  UNL     1      21.866   1.115  51.356  1.00  0.00     0.210 HD
ENDBRANCH  18  20
ENDBRANCH   1  18
BRANCH   5  22
HETATM   22  C7  UNL     1      26.909   2.174  52.232  1.00  0.00     0.356 C 
HETATM   23  O2  UNL     1      27.020   2.573  51.043  1.00  0.00    -0.283 OA
ENDBRANCH   5  22
TORSDOF 4
ENDMDL
MODEL 9
REMARK VINA RESULT:      -6.7      3.368      6.232
REMARK  4 active torsions:
REMARK  status: ('A' for Active; 'I' for Inactive)
REMARK    1  A    between atoms: C2_2  and  O1_3 
REMARK    2  A    between atoms: C2_2  and  C3_4 
REMARK    3  A    between atoms: N1_8  and  C7_9 
REMARK    4  A    between atoms: C8_11  and  C9_12 
ROOT
HETATM    1  C3  UNL     1      22.211  -0.029  53.131  1.00  0.00    -0.025 A 
HETATM    2  C4  UNL     1      21.922  -0.972  54.018  1.00  0.00     0.009 A 
HETATM    3  C5  UNL     1      23.019  -1.365  54.901  1.00  0.00     0.018 A 
HETATM    4  C6  UNL     1      24.237  -0.846  54.863  1.00  0.00     0.094 A 
HETATM    5  N1  UNL     1      24.434   0.160  53.873  1.00  0.00    -0.323 N 
HETATM    6  C8  UNL     1      23.503   0.675  52.923  1.00  0.00     0.148 A 
ENDROOT
BRANCH   6   7
HETATM    7  C9  UNL     1      23.404   2.134  52.823  1.00  0.00     0.028 C 
HETATM    8  C10 UNL     1      24.055   2.891  51.950  1.00  0.00     0.011 A 
HETATM    9  C11 UNL     1      24.071   4.370  51.713  1.00  0.00     0.092 A 
HETATM   10  N2  UNL     1      24.944   2.316  51.000  1.00  0.00    -0.363 N 
HETATM   11  C12 UNL     1      25.027   4.475  50.581  1.00  0.00    -0.052 A 
HETATM   12  C13 UNL     1      25.524   3.319  50.173  1.00  0.00     0.012 A 
HETATM   13  C17 UNL     1      25.296   5.842  50.063  1.00  0.00     0.036 C 
HETATM   14  C14 UNL     1      26.499   3.333  49.033  1.00  0.00     0.057 C 
HETATM   15  C15 UNL     1      27.265   4.645  49.101  1.00  0.00     0.006 C 
HETATM   16  C16 UNL     1      26.238   5.733  48.871  1.00  0.00     0.005 C 
HETATM   17  H22 UNL     1      25.221   1.326  50.822  1.00  0.00     0.165 HD
ENDBRANCH   6   7
BRANCH   1  18
HETATM   18  C2  UNL     1      21.215   0.487  52.158  1.00  0.00     0.145 C 
HETATM   19  C1  UNL     1      19.803   0.112  52.527  1.00  0.00     0.044 C 
BRANCH  18  20
HETATM   20  O1  UNL     1      21.422   0.049  50.863  1.00  0.00    -0.392 OA
HETATM   21  H5  UNL     1      21.418   0.849  50.280  1.00  0.00     0.210 HD
ENDBRANCH  18  20
ENDBRANCH   1  18
BRANCH   5  22
HETATM   22  C7  UNL     1      25.730   0.741  53.809  1.00  0.00     0.356 C 
HETATM   23  O2  UNL     1      26.380   1.393  54.668  1.00  0.00    -0.283 OA
ENDBRANCH   5  22
TORSDOF 4
ENDMDL
