MODEL 1
REMARK VINA RESULT:      -8.2      0.000      0.000
REMARK  8 active torsions:
REMARK  status: ('A' for Active; 'I' for Inactive)
REMARK    1  A    between atoms: C2_2  and  N1_3 
REMARK    2  A    between atoms: C2_2  and  N2_9 
REMARK    3  A    between atoms: N1_3  and  C3_4 
REMARK    4  A    between atoms: N2_9  and  C8_10 
REMARK    5  A    between atoms: N2_9  and  C15_18 
REMARK    6  A    between atoms: C8_10  and  C9_11 
REMARK    7  A    between atoms: C12_14  and  O1_15 
REMARK    8  A    between atoms: C20_25  and  O2_26 
ROOT
HETATM    1  N2  UNL     1      24.789   2.273  51.960  1.00  0.00    -0.327 N 
ENDROOT
BRANCH   1   2
HETATM    2  C2  UNL     1      25.057   2.985  53.154  1.00  0.00     0.095 C 
HETATM    3  C1  UNL     1      24.170   3.869  53.583  1.00  0.00     0.063 C 
BRANCH   2   4
HETATM    4  N1  UNL     1      26.250   2.774  53.899  1.00  0.00    -0.366 N 
HETATM    5  H3  UNL     1      26.436   3.317  54.773  1.00  0.00     0.162 HD
BRANCH   4   6
HETATM    6  C3  UNL     1      27.226   1.806  53.460  1.00  0.00     0.129 A 
HETATM    7  C4  UNL     1      28.604   2.341  53.620  1.00  0.00     0.002 A 
HETATM    8  C5  UNL     1      29.282   1.539  54.430  1.00  0.00    -0.002 A 
HETATM    9  C6  UNL     1      28.453   0.422  54.879  1.00  0.00    -0.002 A 
HETATM   10  C7  UNL     1      27.264   0.593  54.307  1.00  0.00     0.002 A 
ENDBRANCH   4   6
ENDBRANCH   2   4
ENDBRANCH   1   2
BRANCH   1  11
HETATM   11  C8  UNL     1      24.708   0.852  51.832  1.00  0.00     0.169 C 
BRANCH  11  12
HETATM   12  C9  UNL     1      23.592   0.242  52.605  1.00  0.00    -0.040 A 
HETATM   13  C10 UNL     1      23.891  -0.465  53.751  1.00  0.00     0.011 A 
HETATM   14  C11 UNL     1      22.859  -1.041  54.486  1.00  0.00     0.037 A 
HETATM   15  C12 UNL     1      21.554  -0.884  54.034  1.00  0.00     0.065 A 
HETATM   16  C13 UNL     1      21.264  -0.170  52.875  1.00  0.00     0.037 A 
HETATM   17  C14 UNL     1      22.293   0.403  52.147  1.00  0.00     0.011 A 
BRANCH  15  18
HETATM   18  O1  UNL     1      20.600  -1.505  54.848  1.00  0.00    -0.361 OA
HETATM   19  H13 UNL     1      20.618  -2.521  54.999  1.00  0.00     0.217 HD
ENDBRANCH  15  18
ENDBRANCH  11  12
ENDBRANCH   1  11
BRANCH   1  20
HETATM   20  C15 UNL     1      24.622   3.250  50.945  1.00  0.00     0.072 A 
HETATM   21  C16 UNL     1      23.433   3.762  50.452  1.00  0.00     0.051 A 
HETATM   22  C17 UNL     1      23.459   4.721  49.450  1.00  0.00     0.014 A 
HETATM   23 BR1  UNL     1      21.775   5.381  48.818  1.00  0.00    -0.051 Br
HETATM   24  C18 UNL     1      24.643   5.189  48.921  1.00  0.00     0.041 A 
HETATM   25  C19 UNL     1      25.816   4.672  49.422  1.00  0.00     0.047 A 
HETATM   26 BR2  UNL     1      27.444   5.343  48.664  1.00  0.00    -0.048 Br
HETATM   27  C20 UNL     1      25.816   3.708  50.428  1.00  0.00     0.110 A 
BRANCH  27  28
HETATM   28  O2  UNL     1      27.065   3.273  50.838  1.00  0.00    -0.357 OA
HETATM   29  H18 UNL     1      27.274   2.287  51.007  1.00  0.00     0.217 HD
ENDBRANCH  27  28
ENDBRANCH   1  20
TORSDOF 8
ENDMDL
MODEL 2
REMARK VINA RESULT:      -8.2      2.879      5.147
REMARK  8 active torsions:
REMARK  status: ('A' for Active; 'I' for Inactive)
REMARK    1  A    between atoms: C2_2  and  N1_3 
REMARK    2  A    between atoms: C2_2  and  N2_9 
REMARK    3  A    between atoms: N1_3  and  C3_4 
REMARK    4  A    between atoms: N2_9  and  C8_10 
REMARK    5  A    between atoms: N2_9  and  C15_18 
REMARK    6  A    between atoms: C8_10  and  C9_11 
REMARK    7  A    between atoms: C12_14  and  O1_15 
REMARK    8  A    between atoms: C20_25  and  O2_26 
ROOT
HETATM    1  N2  UNL     1      25.629   2.669  51.693  1.00  0.00    -0.327 N 
ENDROOT
BRANCH   1   2
HETATM    2  C2  UNL     1      26.333   2.963  50.500  1.00  0.00     0.095 C 
HETATM    3  C1  UNL     1      26.509   2.001  49.608  1.00  0.00     0.063 C 
BRANCH   2   4
HETATM    4  N1  UNL     1      26.852   4.261  50.238  1.00  0.00    -0.366 N 
HETATM    5  H3  UNL     1      27.188   4.870  51.020  1.00  0.00     0.162 HD
BRANCH   4   6
HETATM    6  C3  UNL     1      26.923   4.762  48.887  1.00  0.00     0.129 A 
HETATM    7  C4  UNL     1      26.239   6.078  48.778  1.00  0.00     0.002 A 
HETATM    8  C5  UNL     1      27.113   6.982  48.358  1.00  0.00    -0.002 A 
HETATM    9  C6  UNL     1      28.429   6.382  48.150  1.00  0.00    -0.002 A 
HETATM   10  C7  UNL     1      28.301   5.094  48.461  1.00  0.00     0.002 A 
ENDBRANCH   4   6
ENDBRANCH   2   4
ENDBRANCH   1   2
BRANCH   1  11
HETATM   11  C8  UNL     1      26.217   2.318  52.948  1.00  0.00     0.169 C 
BRANCH  11  12
HETATM   12  C9  UNL     1      26.778   0.940  52.984  1.00  0.00    -0.040 A 
HETATM   13  C10 UNL     1      25.953  -0.118  52.664  1.00  0.00     0.011 A 
HETATM   14  C11 UNL     1      26.462  -1.414  52.693  1.00  0.00     0.037 A 
HETATM   15  C12 UNL     1      27.794  -1.595  53.046  1.00  0.00     0.065 A 
HETATM   16  C13 UNL     1      28.618  -0.521  53.367  1.00  0.00     0.037 A 
HETATM   17  C14 UNL     1      28.108   0.766  53.338  1.00  0.00     0.011 A 
BRANCH  15  18
HETATM   18  O1  UNL     1      28.196  -2.936  53.042  1.00  0.00    -0.361 OA
HETATM   19  H13 UNL     1      28.531  -3.382  52.179  1.00  0.00     0.217 HD
ENDBRANCH  15  18
ENDBRANCH  11  12
ENDBRANCH   1  11
BRANCH   1  20
HETATM   20  C15 UNL     1      24.251   2.794  51.381  1.00  0.00     0.072 A 
HETATM   21  C16 UNL     1      23.362   1.783  51.058  1.00  0.00     0.051 A 
HETATM   22  C17 UNL     1      22.039   2.092  50.779  1.00  0.00     0.014 A 
HETATM   23 BR1  UNL     1      20.868   0.640  50.339  1.00  0.00    -0.051 Br
HETATM   24  C18 UNL     1      21.572   3.388  50.814  1.00  0.00     0.041 A 
HETATM   25  C19 UNL     1      22.466   4.382  51.138  1.00  0.00     0.047 A 
HETATM   26 BR2  UNL     1      21.785   6.174  51.176  1.00  0.00    -0.048 Br
HETATM   27  C20 UNL     1      23.800   4.098  51.421  1.00  0.00     0.110 A 
BRANCH  27  28
HETATM   28  O2  UNL     1      24.591   5.191  51.730  1.00  0.00    -0.357 OA
HETATM   29  H18 UNL     1      25.424   5.435  51.190  1.00  0.00     0.217 HD
ENDBRANCH  27  28
ENDBRANCH   1  20
TORSDOF 8
ENDMDL
MODEL 3
REMARK VINA RESULT:      -8.1      2.179      4.358
REMARK  8 active torsions:
REMARK  status: ('A' for Active; 'I' for Inactive)
REMARK    1  A    between atoms: C2_2  and  N1_3 
REMARK    2  A    between atoms: C2_2  and  N2_9 
REMARK    3  A    between atoms: N1_3  and  C3_4 
REMARK    4  A    between atoms: N2_9  and  C8_10 
REMARK    5  A    between atoms: N2_9  and  C15_18 
REMARK    6  A    between atoms: C8_10  and  C9_11 
REMARK    7  A    between atoms: C12_14  and  O1_15 
REMARK    8  A    between atoms: C20_25  and  O2_26 
ROOT
HETATM    1  N2  UNL     1      25.067   2.851  50.694  1.00  0.00    -0.327 N 
ENDROOT
BRANCH   1   2
HETATM    2  C2  UNL     1      24.183   2.612  51.774  1.00  0.00     0.095 C 
HETATM    3  C1  UNL     1      24.079   3.523  52.728  1.00  0.00     0.063 C 
BRANCH   2   4
HETATM    4  N1  UNL     1      23.407   1.423  51.857  1.00  0.00    -0.366 N 
HETATM    5  H3  UNL     1      23.197   0.862  51.000  1.00  0.00     0.162 HD
BRANCH   4   6
HETATM    6  C3  UNL     1      22.895   0.970  53.128  1.00  0.00     0.129 A 
HETATM    7  C4  UNL     1      21.414   0.849  53.084  1.00  0.00     0.002 A 
HETATM    8  C5  UNL     1      21.079  -0.405  53.354  1.00  0.00    -0.002 A 
HETATM    9  C6  UNL     1      22.264  -1.225  53.598  1.00  0.00    -0.002 A 
HETATM   10  C7  UNL     1      23.309  -0.411  53.463  1.00  0.00     0.002 A 
ENDBRANCH   4   6
ENDBRANCH   2   4
ENDBRANCH   1   2
BRANCH   1  11
HETATM   11  C8  UNL     1      26.421   2.401  50.604  1.00  0.00     0.169 C 
BRANCH  11  12
HETATM   12  C9  UNL     1      26.871   1.612  51.782  1.00  0.00    -0.040 A 
HETATM   13  C10 UNL     1      27.537   2.264  52.798  1.00  0.00     0.011 A 
HETATM   14  C11 UNL     1      27.965   1.541  53.908  1.00  0.00     0.037 A 
HETATM   15  C12 UNL     1      27.704   0.177  53.952  1.00  0.00     0.065 A 
HETATM   16  C13 UNL     1      27.031  -0.472  52.920  1.00  0.00     0.037 A 
HETATM   17  C14 UNL     1      26.607   0.251  51.818  1.00  0.00     0.011 A 
BRANCH  15  18
HETATM   18  O1  UNL     1      28.179  -0.448  55.111  1.00  0.00    -0.361 OA
HETATM   19  H13 UNL     1      29.165  -0.722  55.193  1.00  0.00     0.217 HD
ENDBRANCH  15  18
ENDBRANCH  11  12
ENDBRANCH   1  11
BRANCH   1  20
HETATM   20  C15 UNL     1      24.337   3.615  49.746  1.00  0.00     0.072 A 
HETATM   21  C16 UNL     1      23.259   3.203  48.981  1.00  0.00     0.051 A 
HETATM   22  C17 UNL     1      22.662   4.091  48.098  1.00  0.00     0.014 A 
HETATM   23 BR1  UNL     1      21.176   3.450  47.072  1.00  0.00    -0.051 Br
HETATM   24  C18 UNL     1      23.111   5.387  47.955  1.00  0.00     0.041 A 
HETATM   25  C19 UNL     1      24.182   5.781  48.723  1.00  0.00     0.047 A 
HETATM   26 BR2  UNL     1      24.781   7.589  48.500  1.00  0.00    -0.048 Br
HETATM   27  C20 UNL     1      24.798   4.908  49.617  1.00  0.00     0.110 A 
BRANCH  27  28
HETATM   28  O2  UNL     1      25.865   5.434  50.325  1.00  0.00    -0.357 OA
HETATM   29  H18 UNL     1      25.781   5.735  51.299  1.00  0.00     0.217 HD
ENDBRANCH  27  28
ENDBRANCH   1  20
TORSDOF 8
ENDMDL
MODEL 4
REMARK VINA RESULT:      -8.0      1.735      2.663
REMARK  8 active torsions:
REMARK  status: ('A' for Active; 'I' for Inactive)
REMARK    1  A    between atoms: C2_2  and  N1_3 
REMARK    2  A    between atoms: C2_2  and  N2_9 
REMARK    3  A    between atoms: N1_3  and  C3_4 
REMARK    4  A    between atoms: N2_9  and  C8_10 
REMARK    5  A    between atoms: N2_9  and  C15_18 
REMARK    6  A    between atoms: C8_10  and  C9_11 
REMARK    7  A    between atoms: C12_14  and  O1_15 
REMARK    8  A    between atoms: C20_25  and  O2_26 
ROOT
HETATM    1  N2  UNL     1      24.249   2.369  51.222  1.00  0.00    -0.327 N 
ENDROOT
BRANCH   1   2
HETATM    2  C2  UNL     1      25.159   1.996  52.241  1.00  0.00     0.095 C 
HETATM    3  C1  UNL     1      25.083   2.597  53.417  1.00  0.00     0.063 C 
BRANCH   2   4
HETATM    4  N1  UNL     1      26.150   0.997  52.031  1.00  0.00    -0.366 N 
HETATM    5  H3  UNL     1      26.600   0.880  51.094  1.00  0.00     0.162 HD
BRANCH   4   6
HETATM    6  C3  UNL     1      26.549   0.124  53.108  1.00  0.00     0.129 A 
HETATM    7  C4  UNL     1      26.437  -1.301  52.699  1.00  0.00     0.002 A 
HETATM    8  C5  UNL     1      27.630  -1.870  52.800  1.00  0.00    -0.002 A 
HETATM    9  C6  UNL     1      28.630  -0.914  53.273  1.00  0.00    -0.002 A 
HETATM   10  C7  UNL     1      27.986   0.237  53.446  1.00  0.00     0.002 A 
ENDBRANCH   4   6
ENDBRANCH   2   4
ENDBRANCH   1   2
BRANCH   1  11
HETATM   11  C8  UNL     1      23.068   1.652  50.851  1.00  0.00     0.169 C 
BRANCH  11  12
HETATM   12  C9  UNL     1      22.452   0.890  51.971  1.00  0.00    -0.040 A 
HETATM   13  C10 UNL     1      22.897  -0.391  52.222  1.00  0.00     0.011 A 
HETATM   14  C11 UNL     1      22.331  -1.118  53.266  1.00  0.00     0.037 A 
HETATM   15  C12 UNL     1      21.329  -0.522  54.022  1.00  0.00     0.065 A 
HETATM   16  C13 UNL     1      20.887   0.771  53.760  1.00  0.00     0.037 A 
HETATM   17  C14 UNL     1      21.452   1.491  52.721  1.00  0.00     0.011 A 
BRANCH  15  18
HETATM   18  O1  UNL     1      20.833  -1.343  55.041  1.00  0.00    -0.361 OA
HETATM   19  H13 UNL     1      20.204  -2.125  54.827  1.00  0.00     0.217 HD
ENDBRANCH  15  18
ENDBRANCH  11  12
ENDBRANCH   1  11
BRANCH   1  20
HETATM   20  C15 UNL     1      24.749   3.574  50.665  1.00  0.00     0.072 A 
HETATM   21  C16 UNL     1      25.925   3.753  49.957  1.00  0.00     0.051 A 
HETATM   22  C17 UNL     1      26.258   5.013  49.482  1.00  0.00     0.014 A 
HETATM   23 BR1  UNL     1      27.901   5.183  48.511  1.00  0.00    -0.051 Br
HETATM   24  C18 UNL     1      25.447   6.108  49.693  1.00  0.00     0.041 A 
HETATM   25  C19 UNL     1      24.281   5.914  50.398  1.00  0.00     0.047 A 
HETATM   26 BR2  UNL     1      23.177   7.457  50.675  1.00  0.00    -0.048 Br
HETATM   27  C20 UNL     1      23.925   4.658  50.885  1.00  0.00     0.110 A 
BRANCH  27  28
HETATM   28  O2  UNL     1      22.727   4.605  51.578  1.00  0.00    -0.357 OA
HETATM   29  H18 UNL     1      22.581   5.101  52.460  1.00  0.00     0.217 HD
ENDBRANCH  27  28
ENDBRANCH   1  20
TORSDOF 8
ENDMDL
MODEL 5
REMARK VINA RESULT:      -7.9      3.001      6.075
REMARK  8 active torsions:
REMARK  status: ('A' for Active; 'I' for Inactive)
REMARK    1  A    between atoms: C2_2  and  N1_3 
REMARK    2  A    between atoms: C2_2  and  N2_9 
REMARK    3  A    between atoms: N1_3  and  C3_4 
REMARK    4  A    between atoms: N2_9  and  C8_10 
REMARK    5  A    between atoms: N2_9  and  C15_18 
REMARK    6  A    between atoms: C8_10  and  C9_11 
REMARK    7  A    between atoms: C12_14  and  O1_15 
REMARK    8  A    between atoms: C20_25  and  O2_26 
ROOT
HETATM    1  N2  UNL     1      24.522   2.272  51.585  1.00  0.00    -0.327 N 
ENDROOT
BRANCH   1   2
HETATM    2  C2  UNL     1      24.229   3.578  52.046  1.00  0.00     0.095 C 
HETATM    3  C1  UNL     1      24.164   3.795  53.350  1.00  0.00     0.063 C 
BRANCH   2   4
HETATM    4  N1  UNL     1      24.005   4.657  51.147  1.00  0.00    -0.366 N 
HETATM    5  H3  UNL     1      24.229   4.561  50.130  1.00  0.00     0.162 HD
BRANCH   4   6
HETATM    6  C3  UNL     1      23.464   5.908  51.624  1.00  0.00     0.129 A 
HETATM    7  C4  UNL     1      24.284   7.052  51.143  1.00  0.00     0.002 A 
HETATM    8  C5  UNL     1      23.514   7.858  50.426  1.00  0.00    -0.002 A 
HETATM    9  C6  UNL     1      22.144   7.352  50.356  1.00  0.00    -0.002 A 
HETATM   10  C7  UNL     1      22.133   6.220  51.056  1.00  0.00     0.002 A 
ENDBRANCH   4   6
ENDBRANCH   2   4
ENDBRANCH   1   2
BRANCH   1  11
HETATM   11  C8  UNL     1      25.750   1.851  50.987  1.00  0.00     0.169 C 
BRANCH  11  12
HETATM   12  C9  UNL     1      26.683   1.185  51.936  1.00  0.00    -0.040 A 
HETATM   13  C10 UNL     1      26.656  -0.190  52.032  1.00  0.00     0.011 A 
HETATM   14  C11 UNL     1      27.522  -0.830  52.916  1.00  0.00     0.037 A 
HETATM   15  C12 UNL     1      28.389  -0.052  53.674  1.00  0.00     0.065 A 
HETATM   16  C13 UNL     1      28.407   1.336  53.569  1.00  0.00     0.037 A 
HETATM   17  C14 UNL     1      27.544   1.968  52.690  1.00  0.00     0.011 A 
BRANCH  15  18
HETATM   18  O1  UNL     1      29.211  -0.798  54.526  1.00  0.00    -0.361 OA
HETATM   19  H13 UNL     1      28.963  -0.929  55.514  1.00  0.00     0.217 HD
ENDBRANCH  15  18
ENDBRANCH  11  12
ENDBRANCH   1  11
BRANCH   1  20
HETATM   20  C15 UNL     1      23.363   1.494  51.838  1.00  0.00     0.072 A 
HETATM   21  C16 UNL     1      23.145   0.622  52.891  1.00  0.00     0.051 A 
HETATM   22  C17 UNL     1      21.941  -0.062  52.981  1.00  0.00     0.014 A 
HETATM   23 BR1  UNL     1      21.712  -1.251  54.466  1.00  0.00    -0.051 Br
HETATM   24  C18 UNL     1      20.941   0.100  52.046  1.00  0.00     0.041 A 
HETATM   25  C19 UNL     1      21.173   0.970  51.006  1.00  0.00     0.047 A 
HETATM   26 BR2  UNL     1      19.762   1.170  49.722  1.00  0.00    -0.048 Br
HETATM   27  C20 UNL     1      22.373   1.668  50.893  1.00  0.00     0.110 A 
BRANCH  27  28
HETATM   28  O2  UNL     1      22.474   2.509  49.798  1.00  0.00    -0.357 OA
HETATM   29  H18 UNL     1      22.181   3.488  49.830  1.00  0.00     0.217 HD
ENDBRANCH  27  28
ENDBRANCH   1  20
TORSDOF 8
ENDMDL
MODEL 6
REMARK VINA RESULT:      -7.9      3.315      6.338
REMARK  8 active torsions:
REMARK  status: ('A' for Active; 'I' for Inactive)
REMARK    1  A    between atoms: C2_2  and  N1_3 
REMARK    2  A    between atoms: C2_2  and  N2_9 
REMARK    3  A    between atoms: N1_3  and  C3_4 
REMARK    4  A    between atoms: N2_9  and  C8_10 
REMARK    5  A    between atoms: N2_9  and  C15_18 
REMARK    6  A    between atoms: C8_10  and  C9_11 
REMARK    7  A    between atoms: C12_14  and  O1_15 
REMARK    8  A    between atoms: C20_25  and  O2_26 
ROOT
HETATM    1  N2  UNL     1      24.229   3.718  51.991  1.00  0.00    -0.327 N 
ENDROOT
BRANCH   1   2
HETATM    2  C2  UNL     1      24.846   3.605  50.721  1.00  0.00     0.095 C 
HETATM    3  C1  UNL     1      24.282   2.838  49.803  1.00  0.00     0.063 C 
BRANCH   2   4
HETATM    4  N1  UNL     1      26.052   4.293  50.411  1.00  0.00    -0.366 N 
HETATM    5  H3  UNL     1      26.754   4.504  51.157  1.00  0.00     0.162 HD
BRANCH   4   6
HETATM    6  C3  UNL     1      26.327   4.714  49.058  1.00  0.00     0.129 A 
HETATM    7  C4  UNL     1      26.030   6.162  48.888  1.00  0.00     0.002 A 
HETATM    8  C5  UNL     1      27.137   6.783  48.507  1.00  0.00    -0.002 A 
HETATM    9  C6  UNL     1      28.252   5.846  48.387  1.00  0.00    -0.002 A 
HETATM   10  C7  UNL     1      27.765   4.650  48.710  1.00  0.00     0.002 A 
ENDBRANCH   4   6
ENDBRANCH   2   4
ENDBRANCH   1   2
BRANCH   1  11
HETATM   11  C8  UNL     1      23.717   4.920  52.569  1.00  0.00     0.169 C 
BRANCH  11  12
HETATM   12  C9  UNL     1      22.887   5.729  51.635  1.00  0.00    -0.040 A 
HETATM   13  C10 UNL     1      23.406   6.908  51.143  1.00  0.00     0.011 A 
HETATM   14  C11 UNL     1      22.643   7.677  50.268  1.00  0.00     0.037 A 
HETATM   15  C12 UNL     1      21.375   7.225  49.921  1.00  0.00     0.065 A 
HETATM   16  C13 UNL     1      20.861   6.034  50.425  1.00  0.00     0.037 A 
HETATM   17  C14 UNL     1      21.623   5.272  51.294  1.00  0.00     0.011 A 
BRANCH  15  18
HETATM   18  O1  UNL     1      20.699   8.076  49.039  1.00  0.00    -0.361 OA
HETATM   19  H13 UNL     1      20.817   7.981  48.023  1.00  0.00     0.217 HD
ENDBRANCH  15  18
ENDBRANCH  11  12
ENDBRANCH   1  11
BRANCH   1  20
HETATM   20  C15 UNL     1      24.231   2.413  52.549  1.00  0.00     0.072 A 
HETATM   21  C16 UNL     1      23.168   1.530  52.634  1.00  0.00     0.051 A 
HETATM   22  C17 UNL     1      23.353   0.285  53.218  1.00  0.00     0.014 A 
HETATM   23 BR1  UNL     1      21.836  -0.883  53.300  1.00  0.00    -0.051 Br
HETATM   24  C18 UNL     1      24.574  -0.109  53.721  1.00  0.00     0.041 A 
HETATM   25  C19 UNL     1      25.621   0.780  53.628  1.00  0.00     0.047 A 
HETATM   26 BR2  UNL     1      27.305   0.201  54.338  1.00  0.00    -0.048 Br
HETATM   27  C20 UNL     1      25.461   2.036  53.047  1.00  0.00     0.110 A 
BRANCH  27  28
HETATM   28  O2  UNL     1      26.595   2.830  53.020  1.00  0.00    -0.357 OA
HETATM   29  H18 UNL     1      27.158   2.951  52.175  1.00  0.00     0.217 HD
ENDBRANCH  27  28
ENDBRANCH   1  20
TORSDOF 8
ENDMDL
MODEL 7
REMARK VINA RESULT:      -7.8      2.300      4.656
REMARK  8 active torsions:
REMARK  status: ('A' for Active; 'I' for Inactive)
REMARK    1  A    between atoms: C2_2  and  N1_3 
REMARK    2  A    between atoms: C2_2  and  N2_9 
REMARK    3  A    between atoms: N1_3  and  C3_4 
REMARK    4  A    between atoms: N2_9  and  C8_10 
REMARK    5  A    between atoms: N2_9  and  C15_18 
REMARK    6  A    between atoms: C8_10  and  C9_11 
REMARK    7  A    between atoms: C12_14  and  O1_15 
REMARK    8  A    between atoms: C20_25  and  O2_26 
ROOT
HETATM    1  N2  UNL     1      25.078   2.980  50.909  1.00  0.00    -0.327 N 
ENDROOT
BRANCH   1   2
HETATM    2  C2  UNL     1      24.166   2.715  51.960  1.00  0.00     0.095 C 
HETATM    3  C1  UNL     1      24.145   3.524  53.007  1.00  0.00     0.063 C 
BRANCH   2   4
HETATM    4  N1  UNL     1      23.275   1.607  51.916  1.00  0.00    -0.366 N 
HETATM    5  H3  UNL     1      22.988   1.189  51.001  1.00  0.00     0.162 HD
BRANCH   4   6
HETATM    6  C3  UNL     1      22.751   1.041  53.135  1.00  0.00     0.129 A 
HETATM    7  C4  UNL     1      21.277   0.864  53.041  1.00  0.00     0.002 A 
HETATM    8  C5  UNL     1      20.988  -0.418  53.208  1.00  0.00    -0.002 A 
HETATM    9  C6  UNL     1      22.200  -1.206  53.424  1.00  0.00    -0.002 A 
HETATM   10  C7  UNL     1      23.213  -0.344  53.379  1.00  0.00     0.002 A 
ENDBRANCH   4   6
ENDBRANCH   2   4
ENDBRANCH   1   2
BRANCH   1  11
HETATM   11  C8  UNL     1      26.264   2.235  50.622  1.00  0.00     0.169 C 
BRANCH  11  12
HETATM   12  C9  UNL     1      26.830   1.528  51.803  1.00  0.00    -0.040 A 
HETATM   13  C10 UNL     1      27.583   2.248  52.705  1.00  0.00     0.011 A 
HETATM   14  C11 UNL     1      28.120   1.602  53.816  1.00  0.00     0.037 A 
HETATM   15  C12 UNL     1      27.876   0.243  53.974  1.00  0.00     0.065 A 
HETATM   16  C13 UNL     1      27.114  -0.475  53.056  1.00  0.00     0.037 A 
HETATM   17  C14 UNL     1      26.582   0.172  51.954  1.00  0.00     0.011 A 
BRANCH  15  18
HETATM   18  O1  UNL     1      28.463  -0.302  55.122  1.00  0.00    -0.361 OA
HETATM   19  H13 UNL     1      29.453  -0.573  55.127  1.00  0.00     0.217 HD
ENDBRANCH  15  18
ENDBRANCH  11  12
ENDBRANCH   1  11
BRANCH   1  20
HETATM   20  C15 UNL     1      24.573   4.115  50.223  1.00  0.00     0.072 A 
HETATM   21  C16 UNL     1      24.883   5.446  50.449  1.00  0.00     0.051 A 
HETATM   22  C17 UNL     1      24.289   6.431  49.675  1.00  0.00     0.014 A 
HETATM   23 BR1  UNL     1      24.766   8.250  50.045  1.00  0.00    -0.051 Br
HETATM   24  C18 UNL     1      23.390   6.128  48.675  1.00  0.00     0.041 A 
HETATM   25  C19 UNL     1      23.093   4.802  48.462  1.00  0.00     0.047 A 
HETATM   26 BR2  UNL     1      21.838   4.415  47.065  1.00  0.00    -0.048 Br
HETATM   27  C20 UNL     1      23.676   3.793  49.226  1.00  0.00     0.110 A 
BRANCH  27  28
HETATM   28  O2  UNL     1      23.288   2.503  48.908  1.00  0.00    -0.357 OA
HETATM   29  H18 UNL     1      22.431   2.082  49.274  1.00  0.00     0.217 HD
ENDBRANCH  27  28
ENDBRANCH   1  20
TORSDOF 8
ENDMDL
MODEL 8
REMARK VINA RESULT:      -7.7      2.292      4.918
REMARK  8 active torsions:
REMARK  status: ('A' for Active; 'I' for Inactive)
REMARK    1  A    between atoms: C2_2  and  N1_3 
REMARK    2  A    between atoms: C2_2  and  N2_9 
REMARK    3  A    between atoms: N1_3  and  C3_4 
REMARK    4  A    between atoms: N2_9  and  C8_10 
REMARK    5  A    between atoms: N2_9  and  C15_18 
REMARK    6  A    between atoms: C8_10  and  C9_11 
REMARK    7  A    between atoms: C12_14  and  O1_15 
REMARK    8  A    between atoms: C20_25  and  O2_26 
ROOT
HETATM    1  N2  UNL     1      24.131   2.837  52.075  1.00  0.00    -0.327 N 
ENDROOT
BRANCH   1   2
HETATM    2  C2  UNL     1      23.065   2.214  51.383  1.00  0.00     0.095 C 
HETATM    3  C1  UNL     1      23.170   2.035  50.076  1.00  0.00     0.063 C 
BRANCH   2   4
HETATM    4  N1  UNL     1      21.890   1.778  52.055  1.00  0.00    -0.366 N 
HETATM    5  H3  UNL     1      21.249   2.466  52.513  1.00  0.00     0.162 HD
BRANCH   4   6
HETATM    6  C3  UNL     1      21.560   0.374  52.118  1.00  0.00     0.129 A 
HETATM    7  C4  UNL     1      22.219  -0.268  53.286  1.00  0.00     0.002 A 
HETATM    8  C5  UNL     1      21.285  -0.785  54.072  1.00  0.00    -0.002 A 
HETATM    9  C6  UNL     1      19.949  -0.549  53.528  1.00  0.00    -0.002 A 
HETATM   10  C7  UNL     1      20.128   0.124  52.394  1.00  0.00     0.002 A 
ENDBRANCH   4   6
ENDBRANCH   2   4
ENDBRANCH   1   2
BRANCH   1  11
HETATM   11  C8  UNL     1      24.629   2.460  53.361  1.00  0.00     0.169 C 
BRANCH  11  12
HETATM   12  C9  UNL     1      25.626   1.357  53.319  1.00  0.00    -0.040 A 
HETATM   13  C10 UNL     1      26.404   1.127  54.434  1.00  0.00     0.011 A 
HETATM   14  C11 UNL     1      27.343   0.098  54.412  1.00  0.00     0.037 A 
HETATM   15  C12 UNL     1      27.463  -0.665  53.256  1.00  0.00     0.065 A 
HETATM   16  C13 UNL     1      26.672  -0.423  52.136  1.00  0.00     0.037 A 
HETATM   17  C14 UNL     1      25.740   0.600  52.162  1.00  0.00     0.011 A 
BRANCH  15  18
HETATM   18  O1  UNL     1      28.435  -1.667  53.346  1.00  0.00    -0.361 OA
HETATM   19  H13 UNL     1      28.244  -2.541  53.851  1.00  0.00     0.217 HD
ENDBRANCH  15  18
ENDBRANCH  11  12
ENDBRANCH   1  11
BRANCH   1  20
HETATM   20  C15 UNL     1      24.586   3.888  51.238  1.00  0.00     0.072 A 
HETATM   21  C16 UNL     1      25.725   3.908  50.451  1.00  0.00     0.051 A 
HETATM   22  C17 UNL     1      26.016   5.031  49.690  1.00  0.00     0.014 A 
HETATM   23 BR1  UNL     1      27.609   4.985  48.625  1.00  0.00    -0.051 Br
HETATM   24  C18 UNL     1      25.200   6.141  49.689  1.00  0.00     0.041 A 
HETATM   25  C19 UNL     1      24.071   6.106  50.475  1.00  0.00     0.047 A 
HETATM   26 BR2  UNL     1      22.958   7.667  50.452  1.00  0.00    -0.048 Br
HETATM   27  C20 UNL     1      23.757   4.991  51.249  1.00  0.00     0.110 A 
BRANCH  27  28
HETATM   28  O2  UNL     1      22.594   5.089  51.993  1.00  0.00    -0.357 OA
HETATM   29  H18 UNL     1      22.493   4.652  52.912  1.00  0.00     0.217 HD
ENDBRANCH  27  28
ENDBRANCH   1  20
TORSDOF 8
ENDMDL
MODEL 9
REMARK VINA RESULT:      -7.7      2.545      5.591
REMARK  8 active torsions:
REMARK  status: ('A' for Active; 'I' for Inactive)
REMARK    1  A    between atoms: C2_2  and  N1_3 
REMARK    2  A    between atoms: C2_2  and  N2_9 
REMARK    3  A    between atoms: N1_3  and  C3_4 
REMARK    4  A    between atoms: N2_9  and  C8_10 
REMARK    5  A    between atoms: N2_9  and  C15_18 
REMARK    6  A    between atoms: C8_10  and  C9_11 
REMARK    7  A    between atoms: C12_14  and  O1_15 
REMARK    8  A    between atoms: C20_25  and  O2_26 
ROOT
HETATM    1  N2  UNL     1      24.172   2.282  51.949  1.00  0.00    -0.327 N 
ENDROOT
BRANCH   1   2
HETATM    2  C2  UNL     1      24.642   2.965  53.096  1.00  0.00     0.095 C 
HETATM    3  C1  UNL     1      24.095   4.126  53.417  1.00  0.00     0.063 C 
BRANCH   2   4
HETATM    4  N1  UNL     1      25.682   2.436  53.909  1.00  0.00    -0.366 N 
HETATM    5  H3  UNL     1      25.700   2.616  54.939  1.00  0.00     0.162 HD
BRANCH   4   6
HETATM    6  C3  UNL     1      26.735   1.640  53.323  1.00  0.00     0.129 A 
HETATM    7  C4  UNL     1      28.000   2.417  53.248  1.00  0.00     0.002 A 
HETATM    8  C5  UNL     1      28.934   1.782  53.941  1.00  0.00    -0.002 A 
HETATM    9  C6  UNL     1      28.406   0.554  54.534  1.00  0.00    -0.002 A 
HETATM   10  C7  UNL     1      27.129   0.487  54.165  1.00  0.00     0.002 A 
ENDBRANCH   4   6
ENDBRANCH   2   4
ENDBRANCH   1   2
BRANCH   1  11
HETATM   11  C8  UNL     1      24.921   2.031  50.758  1.00  0.00     0.169 C 
BRANCH  11  12
HETATM   12  C9  UNL     1      25.353   3.266  50.049  1.00  0.00    -0.040 A 
HETATM   13  C10 UNL     1      24.399   4.203  49.713  1.00  0.00     0.011 A 
HETATM   14  C11 UNL     1      24.787   5.364  49.049  1.00  0.00     0.037 A 
HETATM   15  C12 UNL     1      26.132   5.537  48.746  1.00  0.00     0.065 A 
HETATM   16  C13 UNL     1      27.086   4.584  49.088  1.00  0.00     0.037 A 
HETATM   17  C14 UNL     1      26.697   3.430  49.748  1.00  0.00     0.011 A 
BRANCH  15  18
HETATM   18  O1  UNL     1      26.406   6.736  48.079  1.00  0.00    -0.361 OA
HETATM   19  H13 UNL     1      25.755   7.108  47.377  1.00  0.00     0.217 HD
ENDBRANCH  15  18
ENDBRANCH  11  12
ENDBRANCH   1  11
BRANCH   1  20
HETATM   20  C15 UNL     1      22.831   1.911  52.230  1.00  0.00     0.072 A 
HETATM   21  C16 UNL     1      21.675   2.578  51.862  1.00  0.00     0.051 A 
HETATM   22  C17 UNL     1      20.439   2.065  52.228  1.00  0.00     0.014 A 
HETATM   23 BR1  UNL     1      18.883   3.043  51.683  1.00  0.00    -0.051 Br
HETATM   24  C18 UNL     1      20.320   0.899  52.953  1.00  0.00     0.041 A 
HETATM   25  C19 UNL     1      21.478   0.247  53.310  1.00  0.00     0.047 A 
HETATM   26 BR2  UNL     1      21.278  -1.371  54.319  1.00  0.00    -0.048 Br
HETATM   27  C20 UNL     1      22.731   0.742  52.956  1.00  0.00     0.110 A 
BRANCH  27  28
HETATM   28  O2  UNL     1      23.812  -0.012  53.381  1.00  0.00    -0.357 OA
HETATM   29  H18 UNL     1      24.434   0.296  54.132  1.00  0.00     0.217 HD
ENDBRANCH  27  28
ENDBRANCH   1  20
TORSDOF 8
ENDMDL
