MODEL 1
REMARK VINA RESULT:      -8.1      0.000      0.000
REMARK  6 active torsions:
REMARK  status: ('A' for Active; 'I' for Inactive)
REMARK    1  A    between atoms: C10_12  and  O1_13 
REMARK    2  A    between atoms: C11_14  and  O2_15 
REMARK    3  A    between atoms: O2_15  and  C12_16 
REMARK    4  A    between atoms: C12_16  and  C13_17 
REMARK    5  A    between atoms: C13_17  and  C14_18 
REMARK    6  A    between atoms: C14_18  and  N3_19 
ROOT
HETATM    1  C1  UNL     1      27.924   5.053  48.583  1.00  0.00     0.043 C 
HETATM    2  C2  UNL     1      26.717   5.941  48.734  1.00  0.00    -0.080 C 
HETATM    3  C3  UNL     1      25.670   5.920  49.557  1.00  0.00     0.014 C 
HETATM    4  C4  UNL     1      24.757   7.038  49.283  1.00  0.00     0.003 C 
HETATM    5  C5  UNL     1      23.459   7.095  49.569  1.00  0.00     0.067 A 
HETATM    6  N1  UNL     1      22.869   8.333  49.165  1.00  0.00    -0.244 NA
HETATM    7  C6  UNL     1      21.617   8.568  49.350  1.00  0.00     0.232 A 
HETATM    8  N2  UNL     1      20.769   7.589  49.974  1.00  0.00    -0.256 NA
HETATM    9  C7  UNL     1      21.291   6.448  50.355  1.00  0.00     0.116 A 
HETATM   10  C8  UNL     1      22.718   5.999  50.225  1.00  0.00     0.082 A 
HETATM   11  C9  UNL     1      23.192   5.830  51.648  1.00  0.00     0.039 A 
HETATM   12  C10 UNL     1      23.654   4.852  52.437  1.00  0.00     0.097 A 
HETATM   13  C11 UNL     1      23.786   3.516  51.870  1.00  0.00     0.102 A 
HETATM   14  C19 UNL     1      23.489   3.172  50.623  1.00  0.00     0.045 A 
HETATM   15  P1  UNL     1      22.842   4.375  49.373  1.00  0.00    -0.078 P 
HETATM   16  C20 UNL     1      25.660   8.028  48.629  1.00  0.00     0.209 C 
HETATM   17  F1  UNL     1      26.458   8.675  49.576  1.00  0.00    -0.244 F 
HETATM   18  C21 UNL     1      26.564   7.122  47.821  1.00  0.00     0.076 C 
HETATM   19  H24 UNL     1      21.586   3.931  48.802  1.00  0.00     0.063 HD
ENDROOT
BRANCH  12  20
HETATM   20  O1  UNL     1      23.997   5.112  53.757  1.00  0.00    -0.358 OA
HETATM   21  H8  UNL     1      24.650   4.588  54.297  1.00  0.00     0.217 HD
ENDBRANCH  12  20
BRANCH  13  22
HETATM   22  O2  UNL     1      24.255   2.444  52.617  1.00  0.00    -0.348 OA
BRANCH  22  23
HETATM   23  C12 UNL     1      23.831   1.128  52.482  1.00  0.00     0.177 C 
BRANCH  23  24
HETATM   24  C13 UNL     1      24.576   0.161  53.382  1.00  0.00     0.057 C 
BRANCH  24  25
HETATM   25  C14 UNL     1      25.845   0.839  53.843  1.00  0.00     0.274 C 
BRANCH  25  26
HETATM   26  N3  UNL     1      26.934   0.656  52.944  1.00  0.00     0.092 N 
HETATM   27  C15 UNL     1      27.830  -0.403  53.382  1.00  0.00     0.298 C 
HETATM   28  C16 UNL     1      28.653  -0.016  54.569  1.00  0.00     0.198 C 
HETATM   29  O3  UNL     1      28.516   1.322  54.924  1.00  0.00    -0.388 OA
HETATM   30  C17 UNL     1      28.667   2.165  53.832  1.00  0.00     0.198 C 
HETATM   31  C18 UNL     1      27.734   1.812  52.685  1.00  0.00     0.298 C 
ENDBRANCH  25  26
ENDBRANCH  24  25
ENDBRANCH  23  24
ENDBRANCH  22  23
ENDBRANCH  13  22
TORSDOF 6
ENDMDL
MODEL 2
REMARK VINA RESULT:      -7.9      3.021      7.639
REMARK  6 active torsions:
REMARK  status: ('A' for Active; 'I' for Inactive)
REMARK    1  A    between atoms: C10_12  and  O1_13 
REMARK    2  A    between atoms: C11_14  and  O2_15 
REMARK    3  A    between atoms: O2_15  and  C12_16 
REMARK    4  A    between atoms: C12_16  and  C13_17 
REMARK    5  A    between atoms: C13_17  and  C14_18 
REMARK    6  A    between atoms: C14_18  and  N3_19 
ROOT
HETATM    1  C1  UNL     1      19.675   0.253  53.096  1.00  0.00     0.043 C 
HETATM    2  C2  UNL     1      21.173   0.123  53.187  1.00  0.00    -0.080 C 
HETATM    3  C3  UNL     1      22.169   1.002  53.089  1.00  0.00     0.014 C 
HETATM    4  C4  UNL     1      23.473   0.347  53.258  1.00  0.00     0.003 C 
HETATM    5  C5  UNL     1      24.646   0.779  52.804  1.00  0.00     0.067 A 
HETATM    6  N1  UNL     1      25.718  -0.104  53.146  1.00  0.00    -0.244 NA
HETATM    7  C6  UNL     1      26.929   0.143  52.785  1.00  0.00     0.232 A 
HETATM    8  N2  UNL     1      27.242   1.322  52.022  1.00  0.00    -0.256 NA
HETATM    9  C7  UNL     1      26.274   2.146  51.701  1.00  0.00     0.116 A 
HETATM   10  C8  UNL     1      24.814   2.026  52.033  1.00  0.00     0.082 A 
HETATM   11  C9  UNL     1      24.527   3.222  52.907  1.00  0.00     0.039 A 
HETATM   12  C10 UNL     1      23.749   4.312  52.884  1.00  0.00     0.097 A 
HETATM   13  C11 UNL     1      22.881   4.513  51.731  1.00  0.00     0.102 A 
HETATM   14  C19 UNL     1      22.784   3.701  50.686  1.00  0.00     0.045 A 
HETATM   15  P1  UNL     1      23.767   2.140  50.526  1.00  0.00    -0.078 P 
HETATM   16  C20 UNL     1      23.113  -0.872  54.039  1.00  0.00     0.209 C 
HETATM   17  F1  UNL     1      22.896  -0.556  55.382  1.00  0.00    -0.244 F 
HETATM   18  C21 UNL     1      21.772  -1.230  53.437  1.00  0.00     0.076 C 
HETATM   19  H24 UNL     1      24.530   2.112  49.295  1.00  0.00     0.063 HD
ENDROOT
BRANCH  12  20
HETATM   20  O1  UNL     1      23.775   5.220  53.934  1.00  0.00    -0.358 OA
HETATM   21  H8  UNL     1      23.969   4.997  54.885  1.00  0.00     0.217 HD
ENDBRANCH  12  20
BRANCH  13  22
HETATM   22  O2  UNL     1      22.045   5.616  51.625  1.00  0.00    -0.348 OA
BRANCH  22  23
HETATM   23  C12 UNL     1      21.883   6.390  50.483  1.00  0.00     0.177 C 
BRANCH  23  24
HETATM   24  C13 UNL     1      22.716   7.658  50.494  1.00  0.00     0.057 C 
BRANCH  24  25
HETATM   25  C14 UNL     1      23.919   7.432  49.608  1.00  0.00     0.274 C 
BRANCH  25  26
HETATM   26  N3  UNL     1      25.085   7.057  50.335  1.00  0.00     0.092 N 
HETATM   27  C15 UNL     1      26.115   8.084  50.279  1.00  0.00     0.298 C 
HETATM   28  C16 UNL     1      26.772   8.176  48.939  1.00  0.00     0.198 C 
HETATM   29  O3  UNL     1      26.384   7.169  48.062  1.00  0.00    -0.388 OA
HETATM   30  C17 UNL     1      26.467   5.914  48.646  1.00  0.00     0.198 C 
HETATM   31  C18 UNL     1      25.692   5.821  49.951  1.00  0.00     0.298 C 
ENDBRANCH  25  26
ENDBRANCH  24  25
ENDBRANCH  23  24
ENDBRANCH  22  23
ENDBRANCH  13  22
TORSDOF 6
ENDMDL
MODEL 3
REMARK VINA RESULT:      -7.7      3.113      7.998
REMARK  6 active torsions:
REMARK  status: ('A' for Active; 'I' for Inactive)
REMARK    1  A    between atoms: C10_12  and  O1_13 
REMARK    2  A    between atoms: C11_14  and  O2_15 
REMARK    3  A    between atoms: O2_15  and  C12_16 
REMARK    4  A    between atoms: C12_16  and  C13_17 
REMARK    5  A    between atoms: C13_17  and  C14_18 
REMARK    6  A    between atoms: C14_18  and  N3_19 
ROOT
HETATM    1  C1  UNL     1      19.588   0.333  52.950  1.00  0.00     0.043 C 
HETATM    2  C2  UNL     1      21.077   0.169  53.110  1.00  0.00    -0.080 C 
HETATM    3  C3  UNL     1      22.097   1.023  53.054  1.00  0.00     0.014 C 
HETATM    4  C4  UNL     1      23.376   0.338  53.286  1.00  0.00     0.003 C 
HETATM    5  C5  UNL     1      24.579   0.739  52.884  1.00  0.00     0.067 A 
HETATM    6  N1  UNL     1      25.612  -0.166  53.281  1.00  0.00    -0.244 NA
HETATM    7  C6  UNL     1      26.844   0.050  52.974  1.00  0.00     0.232 A 
HETATM    8  N2  UNL     1      27.220   1.215  52.220  1.00  0.00    -0.256 NA
HETATM    9  C7  UNL     1      26.288   2.059  51.849  1.00  0.00     0.116 A 
HETATM   10  C8  UNL     1      24.812   1.977  52.114  1.00  0.00     0.082 A 
HETATM   11  C9  UNL     1      24.513   3.185  52.967  1.00  0.00     0.039 A 
HETATM   12  C10 UNL     1      23.764   4.293  52.901  1.00  0.00     0.097 A 
HETATM   13  C11 UNL     1      22.954   4.506  51.709  1.00  0.00     0.102 A 
HETATM   14  C19 UNL     1      22.886   3.690  50.665  1.00  0.00     0.045 A 
HETATM   15  P1  UNL     1      23.838   2.105  50.560  1.00  0.00    -0.078 P 
HETATM   16  C20 UNL     1      22.952  -0.866  54.057  1.00  0.00     0.209 C 
HETATM   17  F1  UNL     1      22.681  -0.535  55.387  1.00  0.00    -0.244 F 
HETATM   18  C21 UNL     1      21.631  -1.196  53.396  1.00  0.00     0.076 C 
HETATM   19  H24 UNL     1      24.655   2.050  49.365  1.00  0.00     0.063 HD
ENDROOT
BRANCH  12  20
HETATM   20  O1  UNL     1      23.764   5.208  53.946  1.00  0.00    -0.358 OA
HETATM   21  H8  UNL     1      22.953   5.622  54.350  1.00  0.00     0.217 HD
ENDBRANCH  12  20
BRANCH  13  22
HETATM   22  O2  UNL     1      22.151   5.629  51.558  1.00  0.00    -0.348 OA
BRANCH  22  23
HETATM   23  C12 UNL     1      22.473   6.746  50.797  1.00  0.00     0.177 C 
BRANCH  23  24
HETATM   24  C13 UNL     1      23.913   7.192  50.965  1.00  0.00     0.057 C 
BRANCH  24  25
HETATM   25  C14 UNL     1      24.138   8.386  50.066  1.00  0.00     0.274 C 
BRANCH  25  26
HETATM   26  N3  UNL     1      25.065   8.127  49.016  1.00  0.00     0.092 N 
HETATM   27  C15 UNL     1      26.383   7.783  49.527  1.00  0.00     0.298 C 
HETATM   28  C16 UNL     1      27.107   8.955  50.109  1.00  0.00     0.198 C 
HETATM   29  O3  UNL     1      26.450  10.165  49.910  1.00  0.00    -0.388 OA
HETATM   30  C17 UNL     1      26.070  10.335  48.587  1.00  0.00     0.198 C 
HETATM   31  C18 UNL     1      25.238   9.176  48.061  1.00  0.00     0.298 C 
ENDBRANCH  25  26
ENDBRANCH  24  25
ENDBRANCH  23  24
ENDBRANCH  22  23
ENDBRANCH  13  22
TORSDOF 6
ENDMDL
MODEL 4
REMARK VINA RESULT:      -7.7      3.640      7.216
REMARK  6 active torsions:
REMARK  status: ('A' for Active; 'I' for Inactive)
REMARK    1  A    between atoms: C10_12  and  O1_13 
REMARK    2  A    between atoms: C11_14  and  O2_15 
REMARK    3  A    between atoms: O2_15  and  C12_16 
REMARK    4  A    between atoms: C12_16  and  C13_17 
REMARK    5  A    between atoms: C13_17  and  C14_18 
REMARK    6  A    between atoms: C14_18  and  N3_19 
ROOT
HETATM    1  C1  UNL     1      26.813   2.440  51.849  1.00  0.00     0.043 C 
HETATM    2  C2  UNL     1      25.694   1.565  52.350  1.00  0.00    -0.080 C 
HETATM    3  C3  UNL     1      24.471   1.303  51.894  1.00  0.00     0.014 C 
HETATM    4  C4  UNL     1      23.768   0.360  52.775  1.00  0.00     0.003 C 
HETATM    5  C5  UNL     1      22.451   0.216  52.898  1.00  0.00     0.067 A 
HETATM    6  N1  UNL     1      22.102  -0.795  53.847  1.00  0.00    -0.244 NA
HETATM    7  C6  UNL     1      20.872  -1.070  54.109  1.00  0.00     0.232 A 
HETATM    8  N2  UNL     1      19.805  -0.367  53.449  1.00  0.00    -0.256 NA
HETATM    9  C7  UNL     1      20.103   0.562  52.573  1.00  0.00     0.116 A 
HETATM   10  C8  UNL     1      21.467   1.016  52.140  1.00  0.00     0.082 A 
HETATM   11  C9  UNL     1      21.534   0.669  50.674  1.00  0.00     0.039 A 
HETATM   12  C10 UNL     1      21.682   1.302  49.503  1.00  0.00     0.097 A 
HETATM   13  C11 UNL     1      21.836   2.751  49.520  1.00  0.00     0.102 A 
HETATM   14  C19 UNL     1      21.847   3.515  50.606  1.00  0.00     0.045 A 
HETATM   15  P1  UNL     1      21.662   2.835  52.319  1.00  0.00    -0.078 P 
HETATM   16  C20 UNL     1      24.897  -0.342  53.450  1.00  0.00     0.209 C 
HETATM   17  F1  UNL     1      25.473  -1.289  52.599  1.00  0.00    -0.244 F 
HETATM   18  C21 UNL     1      25.894   0.783  53.616  1.00  0.00     0.076 C 
HETATM   19  H24 UNL     1      20.565   3.463  53.027  1.00  0.00     0.063 HD
ENDROOT
BRANCH  12  20
HETATM   20  O1  UNL     1      21.689   0.591  48.311  1.00  0.00    -0.358 OA
HETATM   21  H8  UNL     1      20.899   0.443  47.723  1.00  0.00     0.217 HD
ENDBRANCH  12  20
BRANCH  13  22
HETATM   22  O2  UNL     1      21.993   3.487  48.353  1.00  0.00    -0.348 OA
BRANCH  22  23
HETATM   23  C12 UNL     1      21.872   4.867  48.256  1.00  0.00     0.177 C 
BRANCH  23  24
HETATM   24  C13 UNL     1      23.114   5.542  47.706  1.00  0.00     0.057 C 
BRANCH  24  25
HETATM   25  C14 UNL     1      23.611   6.520  48.746  1.00  0.00     0.274 C 
BRANCH  25  26
HETATM   26  N3  UNL     1      24.376   5.899  49.775  1.00  0.00     0.092 N 
HETATM   27  C15 UNL     1      24.950   6.875  50.690  1.00  0.00     0.298 C 
HETATM   28  C16 UNL     1      26.076   7.650  50.084  1.00  0.00     0.198 C 
HETATM   29  O3  UNL     1      26.454   7.186  48.828  1.00  0.00    -0.388 OA
HETATM   30  C17 UNL     1      26.646   5.813  48.821  1.00  0.00     0.198 C 
HETATM   31  C18 UNL     1      25.438   5.048  49.338  1.00  0.00     0.298 C 
ENDBRANCH  25  26
ENDBRANCH  24  25
ENDBRANCH  23  24
ENDBRANCH  22  23
ENDBRANCH  13  22
TORSDOF 6
ENDMDL
MODEL 5
REMARK VINA RESULT:      -7.6      2.316      2.817
REMARK  6 active torsions:
REMARK  status: ('A' for Active; 'I' for Inactive)
REMARK    1  A    between atoms: C10_12  and  O1_13 
REMARK    2  A    between atoms: C11_14  and  O2_15 
REMARK    3  A    between atoms: O2_15  and  C12_16 
REMARK    4  A    between atoms: C12_16  and  C13_17 
REMARK    5  A    between atoms: C13_17  and  C14_18 
REMARK    6  A    between atoms: C14_18  and  N3_19 
ROOT
HETATM    1  C1  UNL     1      26.793   2.556  50.973  1.00  0.00     0.043 C 
HETATM    2  C2  UNL     1      25.860   3.492  50.249  1.00  0.00    -0.080 C 
HETATM    3  C3  UNL     1      24.536   3.631  50.242  1.00  0.00     0.014 C 
HETATM    4  C4  UNL     1      24.121   4.719  49.346  1.00  0.00     0.003 C 
HETATM    5  C5  UNL     1      22.936   4.858  48.757  1.00  0.00     0.067 A 
HETATM    6  N1  UNL     1      22.868   6.034  47.947  1.00  0.00    -0.244 NA
HETATM    7  C6  UNL     1      21.802   6.333  47.290  1.00  0.00     0.232 A 
HETATM    8  N2  UNL     1      20.640   5.488  47.352  1.00  0.00    -0.256 NA
HETATM    9  C7  UNL     1      20.681   4.406  48.091  1.00  0.00     0.116 A 
HETATM   10  C8  UNL     1      21.824   3.900  48.923  1.00  0.00     0.082 A 
HETATM   11  C9  UNL     1      21.309   3.942  50.340  1.00  0.00     0.039 A 
HETATM   12  C10 UNL     1      21.073   3.086  51.342  1.00  0.00     0.097 A 
HETATM   13  C11 UNL     1      21.362   1.674  51.123  1.00  0.00     0.102 A 
HETATM   14  C19 UNL     1      21.848   1.149  50.005  1.00  0.00     0.045 A 
HETATM   15  P1  UNL     1      22.246   2.160  48.506  1.00  0.00    -0.078 P 
HETATM   16  C20 UNL     1      25.346   5.567  49.294  1.00  0.00     0.209 C 
HETATM   17  F1  UNL     1      25.472   6.331  50.457  1.00  0.00    -0.244 F 
HETATM   18  C21 UNL     1      26.438   4.520  49.321  1.00  0.00     0.076 C 
HETATM   19  H24 UNL     1      21.556   1.669  47.331  1.00  0.00     0.063 HD
ENDROOT
BRANCH  12  20
HETATM   20  O1  UNL     1      20.570   3.539  52.554  1.00  0.00    -0.358 OA
HETATM   21  H8  UNL     1      21.106   3.954  53.283  1.00  0.00     0.217 HD
ENDBRANCH  12  20
BRANCH  13  22
HETATM   22  O2  UNL     1      21.146   0.719  52.107  1.00  0.00    -0.348 OA
BRANCH  22  23
HETATM   23  C12 UNL     1      22.113  -0.142  52.612  1.00  0.00     0.177 C 
BRANCH  23  24
HETATM   24  C13 UNL     1      23.199   0.569  53.397  1.00  0.00     0.057 C 
BRANCH  24  25
HETATM   25  C14 UNL     1      24.526   0.254  52.745  1.00  0.00     0.274 C 
BRANCH  25  26
HETATM   26  N3  UNL     1      25.164  -0.890  53.303  1.00  0.00     0.092 N 
HETATM   27  C15 UNL     1      25.394  -0.741  54.733  1.00  0.00     0.298 C 
HETATM   28  C16 UNL     1      26.484   0.232  55.049  1.00  0.00     0.198 C 
HETATM   29  O3  UNL     1      27.164   0.686  53.923  1.00  0.00    -0.388 OA
HETATM   30  C17 UNL     1      27.562  -0.360  53.103  1.00  0.00     0.198 C 
HETATM   31  C18 UNL     1      26.407  -1.267  52.707  1.00  0.00     0.298 C 
ENDBRANCH  25  26
ENDBRANCH  24  25
ENDBRANCH  23  24
ENDBRANCH  22  23
ENDBRANCH  13  22
TORSDOF 6
ENDMDL
MODEL 6
REMARK VINA RESULT:      -7.5      3.735      5.826
REMARK  6 active torsions:
REMARK  status: ('A' for Active; 'I' for Inactive)
REMARK    1  A    between atoms: C10_12  and  O1_13 
REMARK    2  A    between atoms: C11_14  and  O2_15 
REMARK    3  A    between atoms: O2_15  and  C12_16 
REMARK    4  A    between atoms: C12_16  and  C13_17 
REMARK    5  A    between atoms: C13_17  and  C14_18 
REMARK    6  A    between atoms: C14_18  and  N3_19 
ROOT
HETATM    1  C1  UNL     1      22.629  -0.773  53.720  1.00  0.00     0.043 C 
HETATM    2  C2  UNL     1      21.501   0.037  53.135  1.00  0.00    -0.080 C 
HETATM    3  C3  UNL     1      21.440   0.930  52.149  1.00  0.00     0.014 C 
HETATM    4  C4  UNL     1      20.071   1.435  51.976  1.00  0.00     0.003 C 
HETATM    5  C5  UNL     1      19.713   2.596  51.435  1.00  0.00     0.067 A 
HETATM    6  N1  UNL     1      18.295   2.774  51.422  1.00  0.00    -0.244 NA
HETATM    7  C6  UNL     1      17.759   3.843  50.945  1.00  0.00     0.232 A 
HETATM    8  N2  UNL     1      18.576   4.897  50.406  1.00  0.00    -0.256 NA
HETATM    9  C7  UNL     1      19.879   4.752  50.406  1.00  0.00     0.116 A 
HETATM   10  C8  UNL     1      20.677   3.586  50.913  1.00  0.00     0.082 A 
HETATM   11  C9  UNL     1      21.370   3.041  49.688  1.00  0.00     0.039 A 
HETATM   12  C10 UNL     1      22.621   2.852  49.250  1.00  0.00     0.097 A 
HETATM   13  C11 UNL     1      23.721   3.244  50.121  1.00  0.00     0.102 A 
HETATM   14  C19 UNL     1      23.598   3.778  51.329  1.00  0.00     0.045 A 
HETATM   15  P1  UNL     1      21.958   4.116  52.120  1.00  0.00    -0.078 P 
HETATM   16  C20 UNL     1      19.253   0.330  52.553  1.00  0.00     0.209 C 
HETATM   17  F1  UNL     1      19.163  -0.741  51.659  1.00  0.00    -0.244 F 
HETATM   18  C21 UNL     1      20.122  -0.117  53.707  1.00  0.00     0.076 C 
HETATM   19  H24 UNL     1      21.831   5.503  52.517  1.00  0.00     0.063 HD
ENDROOT
BRANCH  12  20
HETATM   20  O1  UNL     1      22.854   2.295  47.999  1.00  0.00    -0.358 OA
HETATM   21  H8  UNL     1      22.233   2.340  47.223  1.00  0.00     0.217 HD
ENDBRANCH  12  20
BRANCH  13  22
HETATM   22  O2  UNL     1      25.048   3.085  49.744  1.00  0.00    -0.348 OA
BRANCH  22  23
HETATM   23  C12 UNL     1      26.136   3.150  50.605  1.00  0.00     0.177 C 
BRANCH  23  24
HETATM   24  C13 UNL     1      26.597   1.790  51.095  1.00  0.00     0.057 C 
BRANCH  24  25
HETATM   25  C14 UNL     1      26.674   1.842  52.604  1.00  0.00     0.274 C 
BRANCH  25  26
HETATM   26  N3  UNL     1      26.073   0.714  53.232  1.00  0.00     0.092 N 
HETATM   27  C15 UNL     1      26.436   0.617  54.639  1.00  0.00     0.298 C 
HETATM   28  C16 UNL     1      27.854   0.192  54.846  1.00  0.00     0.198 C 
HETATM   29  O3  UNL     1      28.499  -0.175  53.670  1.00  0.00    -0.388 OA
HETATM   30  C17 UNL     1      27.745  -1.069  52.924  1.00  0.00     0.198 C 
HETATM   31  C18 UNL     1      26.344  -0.555  52.634  1.00  0.00     0.298 C 
ENDBRANCH  25  26
ENDBRANCH  24  25
ENDBRANCH  23  24
ENDBRANCH  22  23
ENDBRANCH  13  22
TORSDOF 6
ENDMDL
MODEL 7
REMARK VINA RESULT:      -7.4      3.777      7.167
REMARK  6 active torsions:
REMARK  status: ('A' for Active; 'I' for Inactive)
REMARK    1  A    between atoms: C10_12  and  O1_13 
REMARK    2  A    between atoms: C11_14  and  O2_15 
REMARK    3  A    between atoms: O2_15  and  C12_16 
REMARK    4  A    between atoms: C12_16  and  C13_17 
REMARK    5  A    between atoms: C13_17  and  C14_18 
REMARK    6  A    between atoms: C14_18  and  N3_19 
ROOT
HETATM    1  C1  UNL     1      28.008   2.094  53.112  1.00  0.00     0.043 C 
HETATM    2  C2  UNL     1      26.571   1.651  53.215  1.00  0.00    -0.080 C 
HETATM    3  C3  UNL     1      25.483   1.923  52.498  1.00  0.00     0.014 C 
HETATM    4  C4  UNL     1      24.308   1.218  53.030  1.00  0.00     0.003 C 
HETATM    5  C5  UNL     1      23.033   1.566  52.876  1.00  0.00     0.067 A 
HETATM    6  N1  UNL     1      22.141   0.657  53.526  1.00  0.00    -0.244 NA
HETATM    7  C6  UNL     1      20.867   0.835  53.495  1.00  0.00     0.232 A 
HETATM    8  N2  UNL     1      20.298   1.959  52.802  1.00  0.00    -0.256 NA
HETATM    9  C7  UNL     1      21.098   2.803  52.197  1.00  0.00     0.116 A 
HETATM   10  C8  UNL     1      22.598   2.759  52.123  1.00  0.00     0.082 A 
HETATM   11  C9  UNL     1      22.898   2.585  50.655  1.00  0.00     0.039 A 
HETATM   12  C10 UNL     1      23.534   3.248  49.680  1.00  0.00     0.097 A 
HETATM   13  C11 UNL     1      24.163   4.520  50.011  1.00  0.00     0.102 A 
HETATM   14  C19 UNL     1      24.166   5.092  51.208  1.00  0.00     0.045 A 
HETATM   15  P1  UNL     1      23.349   4.337  52.689  1.00  0.00    -0.078 P 
HETATM   16  C20 UNL     1      24.930   0.069  53.749  1.00  0.00     0.209 C 
HETATM   17  F1  UNL     1      25.340  -0.918  52.850  1.00  0.00    -0.244 F 
HETATM   18  C21 UNL     1      26.178   0.710  54.316  1.00  0.00     0.076 C 
HETATM   19  H24 UNL     1      22.393   5.244  53.293  1.00  0.00     0.063 HD
ENDROOT
BRANCH  12  20
HETATM   20  O1  UNL     1      23.589   2.730  48.393  1.00  0.00    -0.358 OA
HETATM   21  H8  UNL     1      23.289   3.200  47.568  1.00  0.00     0.217 HD
ENDBRANCH  12  20
BRANCH  13  22
HETATM   22  O2  UNL     1      24.840   5.273  49.062  1.00  0.00    -0.348 OA
BRANCH  22  23
HETATM   23  C12 UNL     1      26.219   5.291  48.891  1.00  0.00     0.177 C 
BRANCH  23  24
HETATM   24  C13 UNL     1      26.783   6.686  48.699  1.00  0.00     0.057 C 
BRANCH  24  25
HETATM   25  C14 UNL     1      28.161   6.552  48.095  1.00  0.00     0.274 C 
BRANCH  25  26
HETATM   26  N3  UNL     1      28.568   7.708  47.369  1.00  0.00     0.092 N 
HETATM   27  C15 UNL     1      29.908   7.562  46.820  1.00  0.00     0.298 C 
HETATM   28  C16 UNL     1      30.976   7.632  47.865  1.00  0.00     0.198 C 
HETATM   29  O3  UNL     1      30.495   7.975  49.125  1.00  0.00    -0.388 OA
HETATM   30  C17 UNL     1      29.676   9.093  49.079  1.00  0.00     0.198 C 
HETATM   31  C18 UNL     1      28.532   8.943  48.088  1.00  0.00     0.298 C 
ENDBRANCH  25  26
ENDBRANCH  24  25
ENDBRANCH  23  24
ENDBRANCH  22  23
ENDBRANCH  13  22
TORSDOF 6
ENDMDL
MODEL 8
REMARK VINA RESULT:      -7.3      3.562      8.140
REMARK  6 active torsions:
REMARK  status: ('A' for Active; 'I' for Inactive)
REMARK    1  A    between atoms: C10_12  and  O1_13 
REMARK    2  A    between atoms: C11_14  and  O2_15 
REMARK    3  A    between atoms: O2_15  and  C12_16 
REMARK    4  A    between atoms: C12_16  and  C13_17 
REMARK    5  A    between atoms: C13_17  and  C14_18 
REMARK    6  A    between atoms: C14_18  and  N3_19 
ROOT
HETATM    1  C1  UNL     1      20.323   0.204  51.605  1.00  0.00     0.043 C 
HETATM    2  C2  UNL     1      21.608   0.107  52.387  1.00  0.00    -0.080 C 
HETATM    3  C3  UNL     1      22.549   0.995  52.701  1.00  0.00     0.014 C 
HETATM    4  C4  UNL     1      23.617   0.375  53.498  1.00  0.00     0.003 C 
HETATM    5  C5  UNL     1      24.874   0.795  53.610  1.00  0.00     0.067 A 
HETATM    6  N1  UNL     1      25.652  -0.043  54.468  1.00  0.00    -0.244 NA
HETATM    7  C6  UNL     1      26.896   0.199  54.691  1.00  0.00     0.232 A 
HETATM    8  N2  UNL     1      27.545   1.329  54.082  1.00  0.00    -0.256 NA
HETATM    9  C7  UNL     1      26.849   2.112  53.294  1.00  0.00     0.116 A 
HETATM   10  C8  UNL     1      25.400   1.991  52.921  1.00  0.00     0.082 A 
HETATM   11  C9  UNL     1      24.760   3.237  53.479  1.00  0.00     0.039 A 
HETATM   12  C10 UNL     1      24.099   4.310  53.026  1.00  0.00     0.097 A 
HETATM   13  C11 UNL     1      23.865   4.417  51.591  1.00  0.00     0.102 A 
HETATM   14  C19 UNL     1      24.249   3.535  50.678  1.00  0.00     0.045 A 
HETATM   15  P1  UNL     1      25.170   1.984  51.097  1.00  0.00    -0.078 P 
HETATM   16  C20 UNL     1      22.918  -0.795  54.105  1.00  0.00     0.209 C 
HETATM   17  F1  UNL     1      22.109  -0.392  55.171  1.00  0.00    -0.244 F 
HETATM   18  C21 UNL     1      22.001  -1.215  52.977  1.00  0.00     0.076 C 
HETATM   19  H24 UNL     1      26.415   1.886  50.363  1.00  0.00     0.063 HD
ENDROOT
BRANCH  12  20
HETATM   20  O1  UNL     1      23.651   5.287  53.904  1.00  0.00    -0.358 OA
HETATM   21  H8  UNL     1      22.791   5.262  54.406  1.00  0.00     0.217 HD
ENDBRANCH  12  20
BRANCH  13  22
HETATM   22  O2  UNL     1      23.190   5.496  51.036  1.00  0.00    -0.348 OA
BRANCH  22  23
HETATM   23  C12 UNL     1      21.853   5.802  51.256  1.00  0.00     0.177 C 
BRANCH  23  24
HETATM   24  C13 UNL     1      21.129   6.262  50.005  1.00  0.00     0.057 C 
BRANCH  24  25
HETATM   25  C14 UNL     1      20.696   5.033  49.240  1.00  0.00     0.274 C 
BRANCH  25  26
HETATM   26  N3  UNL     1      21.128   5.039  47.883  1.00  0.00     0.092 N 
HETATM   27  C15 UNL     1      20.072   4.619  46.974  1.00  0.00     0.298 C 
HETATM   28  C16 UNL     1      19.784   3.154  47.054  1.00  0.00     0.198 C 
HETATM   29  O3  UNL     1      20.678   2.458  47.860  1.00  0.00    -0.388 OA
HETATM   30  C17 UNL     1      21.996   2.758  47.550  1.00  0.00     0.198 C 
HETATM   31  C18 UNL     1      22.283   4.251  47.589  1.00  0.00     0.298 C 
ENDBRANCH  25  26
ENDBRANCH  24  25
ENDBRANCH  23  24
ENDBRANCH  22  23
ENDBRANCH  13  22
TORSDOF 6
ENDMDL
MODEL 9
REMARK VINA RESULT:      -7.2      4.763      8.492
REMARK  6 active torsions:
REMARK  status: ('A' for Active; 'I' for Inactive)
REMARK    1  A    between atoms: C10_12  and  O1_13 
REMARK    2  A    between atoms: C11_14  and  O2_15 
REMARK    3  A    between atoms: O2_15  and  C12_16 
REMARK    4  A    between atoms: C12_16  and  C13_17 
REMARK    5  A    between atoms: C13_17  and  C14_18 
REMARK    6  A    between atoms: C14_18  and  N3_19 
ROOT
HETATM    1  C1  UNL     1      22.717  -0.886  54.166  1.00  0.00     0.043 C 
HETATM    2  C2  UNL     1      23.687  -0.021  53.404  1.00  0.00    -0.080 C 
HETATM    3  C3  UNL     1      23.585   1.180  52.840  1.00  0.00     0.014 C 
HETATM    4  C4  UNL     1      24.851   1.580  52.211  1.00  0.00     0.003 C 
HETATM    5  C5  UNL     1      25.007   2.453  51.218  1.00  0.00     0.067 A 
HETATM    6  N1  UNL     1      26.378   2.608  50.843  1.00  0.00    -0.244 NA
HETATM    7  C6  UNL     1      26.725   3.405  49.894  1.00  0.00     0.232 A 
HETATM    8  N2  UNL     1      25.738   4.168  49.177  1.00  0.00    -0.256 NA
HETATM    9  C7  UNL     1      24.476   4.041  49.507  1.00  0.00     0.116 A 
HETATM   10  C8  UNL     1      23.886   3.171  50.580  1.00  0.00     0.082 A 
HETATM   11  C9  UNL     1      23.267   4.141  51.555  1.00  0.00     0.039 A 
HETATM   12  C10 UNL     1      22.054   4.425  52.048  1.00  0.00     0.097 A 
HETATM   13  C11 UNL     1      20.922   3.632  51.586  1.00  0.00     0.102 A 
HETATM   14  C19 UNL     1      20.981   2.637  50.710  1.00  0.00     0.045 A 
HETATM   15  P1  UNL     1      22.561   2.085  49.916  1.00  0.00    -0.078 P 
HETATM   16  C20 UNL     1      25.848   0.766  52.965  1.00  0.00     0.209 C 
HETATM   17  F1  UNL     1      26.091   1.320  54.224  1.00  0.00    -0.244 F 
HETATM   18  C21 UNL     1      25.084  -0.522  53.178  1.00  0.00     0.076 C 
HETATM   19  H24 UNL     1      22.470   2.109  48.470  1.00  0.00     0.063 HD
ENDROOT
BRANCH  12  20
HETATM   20  O1  UNL     1      21.889   5.446  52.974  1.00  0.00    -0.358 OA
HETATM   21  H8  UNL     1      22.339   6.333  52.940  1.00  0.00     0.217 HD
ENDBRANCH  12  20
BRANCH  13  22
HETATM   22  O2  UNL     1      19.631   3.860  52.043  1.00  0.00    -0.348 OA
BRANCH  22  23
HETATM   23  C12 UNL     1      18.495   3.203  51.589  1.00  0.00     0.177 C 
BRANCH  23  24
HETATM   24  C13 UNL     1      17.448   4.140  51.016  1.00  0.00     0.057 C 
BRANCH  24  25
HETATM   25  C14 UNL     1      16.269   4.153  51.963  1.00  0.00     0.274 C 
BRANCH  25  26
HETATM   26  N3  UNL     1      15.023   3.949  51.304  1.00  0.00     0.092 N 
HETATM   27  C15 UNL     1      13.909   3.930  52.242  1.00  0.00     0.298 C 
HETATM   28  C16 UNL     1      13.869   2.688  53.073  1.00  0.00     0.198 C 
HETATM   29  O3  UNL     1      14.803   1.733  52.685  1.00  0.00    -0.388 OA
HETATM   30  C17 UNL     1      14.766   1.499  51.318  1.00  0.00     0.198 C 
HETATM   31  C18 UNL     1      14.925   2.771  50.501  1.00  0.00     0.298 C 
ENDBRANCH  25  26
ENDBRANCH  24  25
ENDBRANCH  23  24
ENDBRANCH  22  23
ENDBRANCH  13  22
TORSDOF 6
ENDMDL
