MODEL 1
REMARK VINA RESULT:      -8.0      0.000      0.000
REMARK  6 active torsions:
REMARK  status: ('A' for Active; 'I' for Inactive)
REMARK    1  A    between atoms: N1_2  and  C2_3 
REMARK    2  A    between atoms: C7_9  and  N2_10 
REMARK    3  A    between atoms: N2_10  and  C8_11 
REMARK    4  A    between atoms: N3_12  and  C9_13 
REMARK    5  A    between atoms: C10_15  and  C11_16 
REMARK    6  A    between atoms: C14_19  and  O1_20 
ROOT
HETATM    1  C8  UNL     1      22.464   0.927  52.192  1.00  0.00     0.209 C 
HETATM    2  N3  UNL     1      23.253   0.866  53.220  1.00  0.00    -0.229 NA
ENDROOT
BRANCH   2   3
HETATM    3  C9  UNL     1      24.533   0.214  53.116  1.00  0.00     0.122 C 
HETATM    4  N4  UNL     1      25.210   0.637  52.104  1.00  0.00    -0.265 NA
HETATM    5  C10 UNL     1      26.506  -0.023  51.991  1.00  0.00     0.143 C 
HETATM    6  C17 UNL     1      26.159  -1.372  52.658  1.00  0.00     0.040 C 
HETATM    7  C18 UNL     1      25.338  -0.804  53.829  1.00  0.00     0.082 C 
BRANCH   5   8
HETATM    8  C11 UNL     1      27.566   0.589  52.810  1.00  0.00    -0.033 A 
HETATM    9  C12 UNL     1      27.595   1.986  52.867  1.00  0.00     0.012 A 
HETATM   10  C13 UNL     1      28.590   2.649  53.604  1.00  0.00     0.037 A 
HETATM   11  C14 UNL     1      29.568   1.931  54.298  1.00  0.00     0.065 A 
HETATM   12  C15 UNL     1      29.531   0.551  54.239  1.00  0.00     0.037 A 
HETATM   13  C16 UNL     1      28.543  -0.102  53.504  1.00  0.00     0.012 A 
BRANCH  11  14
HETATM   14  O1  UNL     1      30.532   2.633  55.017  1.00  0.00    -0.361 OA
HETATM   15  H13 UNL     1      30.411   2.725  56.037  1.00  0.00     0.217 HD
ENDBRANCH  11  14
ENDBRANCH   5   8
ENDBRANCH   2   3
BRANCH   1  16
HETATM   16  N2  UNL     1      21.198   1.601  52.387  1.00  0.00    -0.349 N 
HETATM   17  H8  UNL     1      21.231   2.605  52.702  1.00  0.00     0.167 HD
BRANCH  16  18
HETATM   18  C7  UNL     1      20.003   0.834  52.142  1.00  0.00     0.062 A 
HETATM   19  C2  UNL     1      19.620  -0.083  53.103  1.00  0.00     0.093 A 
HETATM   20  C3  UNL     1      18.503  -0.886  52.967  1.00  0.00     0.144 A 
HETATM   21  F1  UNL     1      18.053  -1.797  53.842  1.00  0.00    -0.204 F 
HETATM   22  C4  UNL     1      17.773  -0.710  51.785  1.00  0.00     0.045 A 
HETATM   23  C5  UNL     1      18.164   0.207  50.830  1.00  0.00     0.005 A 
HETATM   24  C6  UNL     1      19.299   1.017  50.976  1.00  0.00     0.032 A 
BRANCH  19  25
HETATM   25  N1  UNL     1      20.302  -0.313  54.335  1.00  0.00    -0.390 N 
HETATM   26  C1  UNL     1      21.089  -1.520  54.432  1.00  0.00     0.146 C 
HETATM   27  H4  UNL     1      20.371   0.218  55.237  1.00  0.00     0.159 HD
ENDBRANCH  19  25
ENDBRANCH  16  18
ENDBRANCH   1  16
TORSDOF 6
ENDMDL
MODEL 2
REMARK VINA RESULT:      -8.0      4.128      8.583
REMARK  6 active torsions:
REMARK  status: ('A' for Active; 'I' for Inactive)
REMARK    1  A    between atoms: N1_2  and  C2_3 
REMARK    2  A    between atoms: C7_9  and  N2_10 
REMARK    3  A    between atoms: N2_10  and  C8_11 
REMARK    4  A    between atoms: N3_12  and  C9_13 
REMARK    5  A    between atoms: C10_15  and  C11_16 
REMARK    6  A    between atoms: C14_19  and  O1_20 
ROOT
HETATM    1  C8  UNL     1      24.728   0.771  53.052  1.00  0.00     0.209 C 
HETATM    2  N3  UNL     1      24.044   1.869  52.973  1.00  0.00    -0.229 NA
ENDROOT
BRANCH   2   3
HETATM    3  C9  UNL     1      22.797   1.900  52.252  1.00  0.00     0.122 C 
HETATM    4  N4  UNL     1      22.649   0.866  51.498  1.00  0.00    -0.265 NA
HETATM    5  C10 UNL     1      21.391   0.893  50.762  1.00  0.00     0.143 C 
HETATM    6  C17 UNL     1      21.190   2.421  50.666  1.00  0.00     0.040 C 
HETATM    7  C18 UNL     1      21.602   2.762  52.110  1.00  0.00     0.082 C 
BRANCH   5   8
HETATM    8  C11 UNL     1      20.241   0.366  51.516  1.00  0.00    -0.033 A 
HETATM    9  C12 UNL     1      20.521  -0.302  52.712  1.00  0.00     0.012 A 
HETATM   10  C13 UNL     1      19.483  -0.859  53.478  1.00  0.00     0.037 A 
HETATM   11  C14 UNL     1      18.151  -0.755  53.066  1.00  0.00     0.065 A 
HETATM   12  C15 UNL     1      17.883  -0.091  51.884  1.00  0.00     0.037 A 
HETATM   13  C16 UNL     1      18.917   0.457  51.127  1.00  0.00     0.012 A 
BRANCH  11  14
HETATM   14  O1  UNL     1      17.158  -1.320  53.860  1.00  0.00    -0.361 OA
HETATM   15  H13 UNL     1      17.377  -2.185  54.376  1.00  0.00     0.217 HD
ENDBRANCH  11  14
ENDBRANCH   5   8
ENDBRANCH   2   3
BRANCH   1  16
HETATM   16  N2  UNL     1      25.969   0.832  53.795  1.00  0.00    -0.349 N 
HETATM   17  H8  UNL     1      26.081   1.627  54.477  1.00  0.00     0.167 HD
BRANCH  16  18
HETATM   18  C7  UNL     1      26.944  -0.193  53.530  1.00  0.00     0.062 A 
HETATM   19  C2  UNL     1      28.251   0.048  53.914  1.00  0.00     0.093 A 
HETATM   20  C3  UNL     1      29.273  -0.856  53.694  1.00  0.00     0.144 A 
HETATM   21  F1  UNL     1      30.563  -0.713  54.032  1.00  0.00    -0.204 F 
HETATM   22  C4  UNL     1      28.902  -2.045  53.053  1.00  0.00     0.045 A 
HETATM   23  C5  UNL     1      27.596  -2.276  52.672  1.00  0.00     0.005 A 
HETATM   24  C6  UNL     1      26.565  -1.353  52.898  1.00  0.00     0.032 A 
BRANCH  19  25
HETATM   25  N1  UNL     1      28.705   1.225  54.579  1.00  0.00    -0.390 N 
HETATM   26  C1  UNL     1      28.967   2.382  53.756  1.00  0.00     0.146 C 
HETATM   27  H4  UNL     1      28.904   1.461  55.582  1.00  0.00     0.159 HD
ENDBRANCH  19  25
ENDBRANCH  16  18
ENDBRANCH   1  16
TORSDOF 6
ENDMDL
MODEL 3
REMARK VINA RESULT:      -7.8      5.123      7.468
REMARK  6 active torsions:
REMARK  status: ('A' for Active; 'I' for Inactive)
REMARK    1  A    between atoms: N1_2  and  C2_3 
REMARK    2  A    between atoms: C7_9  and  N2_10 
REMARK    3  A    between atoms: N2_10  and  C8_11 
REMARK    4  A    between atoms: N3_12  and  C9_13 
REMARK    5  A    between atoms: C10_15  and  C11_16 
REMARK    6  A    between atoms: C14_19  and  O1_20 
ROOT
HETATM    1  C8  UNL     1      26.256   2.885  51.182  1.00  0.00     0.209 C 
HETATM    2  N3  UNL     1      27.147   1.979  51.438  1.00  0.00    -0.229 NA
ENDROOT
BRANCH   2   3
HETATM    3  C9  UNL     1      26.815   0.841  52.256  1.00  0.00     0.122 C 
HETATM    4  N4  UNL     1      26.713   1.155  53.502  1.00  0.00    -0.265 NA
HETATM    5  C10 UNL     1      26.381   0.006  54.336  1.00  0.00     0.143 C 
HETATM    6  C17 UNL     1      27.016  -1.114  53.483  1.00  0.00     0.040 C 
HETATM    7  C18 UNL     1      26.539  -0.606  52.110  1.00  0.00     0.082 C 
BRANCH   5   8
HETATM    8  C11 UNL     1      24.941  -0.289  54.409  1.00  0.00    -0.033 A 
HETATM    9  C12 UNL     1      24.532  -1.212  55.377  1.00  0.00     0.012 A 
HETATM   10  C13 UNL     1      23.178  -1.570  55.496  1.00  0.00     0.037 A 
HETATM   11  C14 UNL     1      22.212  -1.010  54.654  1.00  0.00     0.065 A 
HETATM   12  C15 UNL     1      22.624  -0.098  53.702  1.00  0.00     0.037 A 
HETATM   13  C16 UNL     1      23.968   0.252  53.588  1.00  0.00     0.012 A 
BRANCH  11  14
HETATM   14  O1  UNL     1      20.884  -1.394  54.811  1.00  0.00    -0.361 OA
HETATM   15  H13 UNL     1      20.610  -1.862  55.688  1.00  0.00     0.217 HD
ENDBRANCH  11  14
ENDBRANCH   5   8
ENDBRANCH   2   3
BRANCH   1  16
HETATM   16  N2  UNL     1      26.678   3.993  50.352  1.00  0.00    -0.349 N 
HETATM   17  H8  UNL     1      27.702   4.239  50.363  1.00  0.00     0.167 HD
BRANCH  16  18
HETATM   18  C7  UNL     1      25.658   4.669  49.591  1.00  0.00     0.062 A 
HETATM   19  C2  UNL     1      25.943   5.938  49.120  1.00  0.00     0.093 A 
HETATM   20  C3  UNL     1      25.035   6.686  48.395  1.00  0.00     0.144 A 
HETATM   21  F1  UNL     1      25.220   7.918  47.897  1.00  0.00    -0.204 F 
HETATM   22  C4  UNL     1      23.797   6.076  48.162  1.00  0.00     0.045 A 
HETATM   23  C5  UNL     1      23.521   4.809  48.637  1.00  0.00     0.005 A 
HETATM   24  C6  UNL     1      24.448   4.057  49.372  1.00  0.00     0.032 A 
BRANCH  19  25
HETATM   25  N1  UNL     1      27.181   6.623  49.306  1.00  0.00    -0.390 N 
HETATM   26  C1  UNL     1      28.162   6.498  48.254  1.00  0.00     0.146 C 
HETATM   27  H4  UNL     1      27.567   7.229  50.069  1.00  0.00     0.159 HD
ENDBRANCH  19  25
ENDBRANCH  16  18
ENDBRANCH   1  16
TORSDOF 6
ENDMDL
MODEL 4
REMARK VINA RESULT:      -7.6      5.777      8.581
REMARK  6 active torsions:
REMARK  status: ('A' for Active; 'I' for Inactive)
REMARK    1  A    between atoms: N1_2  and  C2_3 
REMARK    2  A    between atoms: C7_9  and  N2_10 
REMARK    3  A    between atoms: N2_10  and  C8_11 
REMARK    4  A    between atoms: N3_12  and  C9_13 
REMARK    5  A    between atoms: C10_15  and  C11_16 
REMARK    6  A    between atoms: C14_19  and  O1_20 
ROOT
HETATM    1  C8  UNL     1      25.520   4.748  49.811  1.00  0.00     0.209 C 
HETATM    2  N3  UNL     1      24.543   4.824  50.659  1.00  0.00    -0.229 NA
ENDROOT
BRANCH   2   3
HETATM    3  C9  UNL     1      24.166   3.675  51.441  1.00  0.00     0.122 C 
HETATM    4  N4  UNL     1      24.253   2.581  50.765  1.00  0.00    -0.265 NA
HETATM    5  C10 UNL     1      23.869   1.413  51.550  1.00  0.00     0.143 C 
HETATM    6  C17 UNL     1      22.877   2.084  52.526  1.00  0.00     0.040 C 
HETATM    7  C18 UNL     1      23.709   3.347  52.811  1.00  0.00     0.082 C 
BRANCH   5   8
HETATM    8  C11 UNL     1      24.955   0.857  52.374  1.00  0.00    -0.033 A 
HETATM    9  C12 UNL     1      26.252   0.951  51.858  1.00  0.00     0.012 A 
HETATM   10  C13 UNL     1      27.343   0.421  52.568  1.00  0.00     0.037 A 
HETATM   11  C14 UNL     1      27.157  -0.206  53.804  1.00  0.00     0.065 A 
HETATM   12  C15 UNL     1      25.874  -0.292  54.307  1.00  0.00     0.037 A 
HETATM   13  C16 UNL     1      24.796   0.233  53.597  1.00  0.00     0.012 A 
BRANCH  11  14
HETATM   14  O1  UNL     1      28.269  -0.713  54.471  1.00  0.00    -0.361 OA
HETATM   15  H13 UNL     1      28.198  -1.649  54.899  1.00  0.00     0.217 HD
ENDBRANCH  11  14
ENDBRANCH   5   8
ENDBRANCH   2   3
BRANCH   1  16
HETATM   16  N2  UNL     1      25.829   5.952  49.069  1.00  0.00    -0.349 N 
HETATM   17  H8  UNL     1      25.026   6.593  48.838  1.00  0.00     0.167 HD
BRANCH  16  18
HETATM   18  C7  UNL     1      27.206   6.162  48.703  1.00  0.00     0.062 A 
HETATM   19  C2  UNL     1      27.645   7.467  48.578  1.00  0.00     0.093 A 
HETATM   20  C3  UNL     1      28.940   7.788  48.214  1.00  0.00     0.144 A 
HETATM   21  F1  UNL     1      29.456   9.018  48.071  1.00  0.00    -0.204 F 
HETATM   22  C4  UNL     1      29.789   6.700  47.979  1.00  0.00     0.045 A 
HETATM   23  C5  UNL     1      29.341   5.400  48.105  1.00  0.00     0.005 A 
HETATM   24  C6  UNL     1      28.027   5.084  48.473  1.00  0.00     0.032 A 
BRANCH  19  25
HETATM   25  N1  UNL     1      26.847   8.627  48.809  1.00  0.00    -0.390 N 
HETATM   26  C1  UNL     1      26.903   9.206  50.131  1.00  0.00     0.146 C 
HETATM   27  H4  UNL     1      26.193   9.189  48.212  1.00  0.00     0.159 HD
ENDBRANCH  19  25
ENDBRANCH  16  18
ENDBRANCH   1  16
TORSDOF 6
ENDMDL
MODEL 5
REMARK VINA RESULT:      -7.6      5.081      7.747
REMARK  6 active torsions:
REMARK  status: ('A' for Active; 'I' for Inactive)
REMARK    1  A    between atoms: N1_2  and  C2_3 
REMARK    2  A    between atoms: C7_9  and  N2_10 
REMARK    3  A    between atoms: N2_10  and  C8_11 
REMARK    4  A    between atoms: N3_12  and  C9_13 
REMARK    5  A    between atoms: C10_15  and  C11_16 
REMARK    6  A    between atoms: C14_19  and  O1_20 
ROOT
HETATM    1  C8  UNL     1      23.713   4.205  51.773  1.00  0.00     0.209 C 
HETATM    2  N3  UNL     1      22.509   3.825  51.478  1.00  0.00    -0.229 NA
ENDROOT
BRANCH   2   3
HETATM    3  C9  UNL     1      22.010   2.558  51.948  1.00  0.00     0.122 C 
HETATM    4  N4  UNL     1      22.575   1.565  51.352  1.00  0.00    -0.265 NA
HETATM    5  C10 UNL     1      22.071   0.279  51.820  1.00  0.00     0.143 C 
HETATM    6  C17 UNL     1      20.648   0.707  52.240  1.00  0.00     0.040 C 
HETATM    7  C18 UNL     1      21.037   2.027  52.929  1.00  0.00     0.082 C 
BRANCH   5   8
HETATM    8  C11 UNL     1      22.733  -0.221  53.036  1.00  0.00    -0.033 A 
HETATM    9  C12 UNL     1      24.121  -0.060  53.113  1.00  0.00     0.012 A 
HETATM   10  C13 UNL     1      24.834  -0.533  54.227  1.00  0.00     0.037 A 
HETATM   11  C14 UNL     1      24.174  -1.171  55.282  1.00  0.00     0.065 A 
HETATM   12  C15 UNL     1      22.804  -1.324  55.199  1.00  0.00     0.037 A 
HETATM   13  C16 UNL     1      22.103  -0.855  54.090  1.00  0.00     0.012 A 
BRANCH  11  14
HETATM   14  O1  UNL     1      24.924  -1.621  56.366  1.00  0.00    -0.361 OA
HETATM   15  H13 UNL     1      25.697  -2.279  56.187  1.00  0.00     0.217 HD
ENDBRANCH  11  14
ENDBRANCH   5   8
ENDBRANCH   2   3
BRANCH   1  16
HETATM   16  N2  UNL     1      24.131   5.492  51.258  1.00  0.00    -0.349 N 
HETATM   17  H8  UNL     1      23.587   6.336  51.577  1.00  0.00     0.167 HD
BRANCH  16  18
HETATM   18  C7  UNL     1      25.247   5.504  50.348  1.00  0.00     0.062 A 
HETATM   19  C2  UNL     1      25.749   6.734  49.963  1.00  0.00     0.093 A 
HETATM   20  C3  UNL     1      26.805   6.867  49.081  1.00  0.00     0.144 A 
HETATM   21  F1  UNL     1      27.360   8.010  48.653  1.00  0.00    -0.204 F 
HETATM   22  C4  UNL     1      27.342   5.668  48.596  1.00  0.00     0.045 A 
HETATM   23  C5  UNL     1      26.834   4.445  48.985  1.00  0.00     0.005 A 
HETATM   24  C6  UNL     1      25.762   4.319  49.880  1.00  0.00     0.032 A 
BRANCH  19  25
HETATM   25  N1  UNL     1      25.264   7.996  50.419  1.00  0.00    -0.390 N 
HETATM   26  C1  UNL     1      24.265   8.646  49.604  1.00  0.00     0.146 C 
HETATM   27  H4  UNL     1      25.475   8.595  51.254  1.00  0.00     0.159 HD
ENDBRANCH  19  25
ENDBRANCH  16  18
ENDBRANCH   1  16
TORSDOF 6
ENDMDL
MODEL 6
REMARK VINA RESULT:      -7.5      5.413      7.826
REMARK  6 active torsions:
REMARK  status: ('A' for Active; 'I' for Inactive)
REMARK    1  A    between atoms: N1_2  and  C2_3 
REMARK    2  A    between atoms: C7_9  and  N2_10 
REMARK    3  A    between atoms: N2_10  and  C8_11 
REMARK    4  A    between atoms: N3_12  and  C9_13 
REMARK    5  A    between atoms: C10_15  and  C11_16 
REMARK    6  A    between atoms: C14_19  and  O1_20 
ROOT
HETATM    1  C8  UNL     1      23.594   4.739  51.991  1.00  0.00     0.209 C 
HETATM    2  N3  UNL     1      22.314   4.634  52.170  1.00  0.00    -0.229 NA
ENDROOT
BRANCH   2   3
HETATM    3  C9  UNL     1      21.679   3.341  52.139  1.00  0.00     0.122 C 
HETATM    4  N4  UNL     1      22.383   2.472  51.498  1.00  0.00    -0.265 NA
HETATM    5  C10 UNL     1      21.743   1.162  51.460  1.00  0.00     0.143 C 
HETATM    6  C17 UNL     1      20.265   1.603  51.548  1.00  0.00     0.040 C 
HETATM    7  C18 UNL     1      20.449   2.681  52.631  1.00  0.00     0.082 C 
BRANCH   5   8
HETATM    8  C11 UNL     1      22.003   0.330  52.646  1.00  0.00    -0.033 A 
HETATM    9  C12 UNL     1      23.329   0.244  53.081  1.00  0.00     0.012 A 
HETATM   10  C13 UNL     1      23.667  -0.550  54.189  1.00  0.00     0.037 A 
HETATM   11  C14 UNL     1      22.688  -1.268  54.883  1.00  0.00     0.065 A 
HETATM   12  C15 UNL     1      21.380  -1.176  54.448  1.00  0.00     0.037 A 
HETATM   13  C16 UNL     1      21.051  -0.388  53.347  1.00  0.00     0.012 A 
BRANCH  11  14
HETATM   14  O1  UNL     1      23.071  -2.040  55.976  1.00  0.00    -0.361 OA
HETATM   15  H13 UNL     1      23.229  -3.048  55.832  1.00  0.00     0.217 HD
ENDBRANCH  11  14
ENDBRANCH   5   8
ENDBRANCH   2   3
BRANCH   1  16
HETATM   16  N2  UNL     1      24.146   6.077  52.038  1.00  0.00    -0.349 N 
HETATM   17  H8  UNL     1      24.503   6.417  52.968  1.00  0.00     0.167 HD
BRANCH  16  18
HETATM   18  C7  UNL     1      24.150   6.828  50.809  1.00  0.00     0.062 A 
HETATM   19  C2  UNL     1      25.203   6.625  49.935  1.00  0.00     0.093 A 
HETATM   20  C3  UNL     1      25.321   7.303  48.737  1.00  0.00     0.144 A 
HETATM   21  F1  UNL     1      26.299   7.172  47.828  1.00  0.00    -0.204 F 
HETATM   22  C4  UNL     1      24.297   8.217  48.456  1.00  0.00     0.045 A 
HETATM   23  C5  UNL     1      23.251   8.413  49.334  1.00  0.00     0.005 A 
HETATM   24  C6  UNL     1      23.140   7.722  50.548  1.00  0.00     0.032 A 
BRANCH  19  25
HETATM   25  N1  UNL     1      26.276   5.707  50.144  1.00  0.00    -0.390 N 
HETATM   26  C1  UNL     1      26.215   4.456  49.425  1.00  0.00     0.146 C 
HETATM   27  H4  UNL     1      27.147   5.730  50.728  1.00  0.00     0.159 HD
ENDBRANCH  19  25
ENDBRANCH  16  18
ENDBRANCH   1  16
TORSDOF 6
ENDMDL
MODEL 7
REMARK VINA RESULT:      -7.5      4.208      8.039
REMARK  6 active torsions:
REMARK  status: ('A' for Active; 'I' for Inactive)
REMARK    1  A    between atoms: N1_2  and  C2_3 
REMARK    2  A    between atoms: C7_9  and  N2_10 
REMARK    3  A    between atoms: N2_10  and  C8_11 
REMARK    4  A    between atoms: N3_12  and  C9_13 
REMARK    5  A    between atoms: C10_15  and  C11_16 
REMARK    6  A    between atoms: C14_19  and  O1_20 
ROOT
HETATM    1  C8  UNL     1      26.308   2.462  53.413  1.00  0.00     0.209 C 
HETATM    2  N3  UNL     1      25.012   2.458  53.463  1.00  0.00    -0.229 NA
ENDROOT
BRANCH   2   3
HETATM    3  C9  UNL     1      24.243   3.180  52.483  1.00  0.00     0.122 C 
HETATM    4  N4  UNL     1      24.517   2.803  51.281  1.00  0.00    -0.265 NA
HETATM    5  C10 UNL     1      23.745   3.535  50.283  1.00  0.00     0.143 C 
HETATM    6  C17 UNL     1      23.534   4.858  51.050  1.00  0.00     0.040 C 
HETATM    7  C18 UNL     1      23.209   4.237  52.421  1.00  0.00     0.082 C 
BRANCH   5   8
HETATM    8  C11 UNL     1      22.405   2.978  50.031  1.00  0.00    -0.033 A 
HETATM    9  C12 UNL     1      22.290   1.584  50.026  1.00  0.00     0.012 A 
HETATM   10  C13 UNL     1      21.052   0.972  49.767  1.00  0.00     0.037 A 
HETATM   11  C14 UNL     1      19.911   1.739  49.513  1.00  0.00     0.065 A 
HETATM   12  C15 UNL     1      20.033   3.115  49.522  1.00  0.00     0.037 A 
HETATM   13  C16 UNL     1      21.264   3.717  49.777  1.00  0.00     0.012 A 
BRANCH  11  14
HETATM   14  O1  UNL     1      18.707   1.087  49.264  1.00  0.00    -0.361 OA
HETATM   15  H13 UNL     1      18.034   1.530  48.621  1.00  0.00     0.217 HD
ENDBRANCH  11  14
ENDBRANCH   5   8
ENDBRANCH   2   3
BRANCH   1  16
HETATM   16  N2  UNL     1      26.998   1.709  54.439  1.00  0.00    -0.349 N 
HETATM   17  H8  UNL     1      26.874   2.029  55.435  1.00  0.00     0.167 HD
BRANCH  16  18
HETATM   18  C7  UNL     1      27.800   0.594  54.007  1.00  0.00     0.062 A 
HETATM   19  C2  UNL     1      27.142  -0.519  53.514  1.00  0.00     0.093 A 
HETATM   20  C3  UNL     1      27.808  -1.652  53.088  1.00  0.00     0.144 A 
HETATM   21  F1  UNL     1      27.259  -2.773  52.596  1.00  0.00    -0.204 F 
HETATM   22  C4  UNL     1      29.204  -1.605  53.183  1.00  0.00     0.045 A 
HETATM   23  C5  UNL     1      29.852  -0.491  53.677  1.00  0.00     0.005 A 
HETATM   24  C6  UNL     1      29.169   0.654  54.108  1.00  0.00     0.032 A 
BRANCH  19  25
HETATM   25  N1  UNL     1      25.727  -0.640  53.377  1.00  0.00    -0.390 N 
HETATM   26  C1  UNL     1      24.979  -0.957  54.570  1.00  0.00     0.146 C 
HETATM   27  H4  UNL     1      25.067  -0.547  52.567  1.00  0.00     0.159 HD
ENDBRANCH  19  25
ENDBRANCH  16  18
ENDBRANCH   1  16
TORSDOF 6
ENDMDL
MODEL 8
REMARK VINA RESULT:      -7.5      4.959      8.268
REMARK  6 active torsions:
REMARK  status: ('A' for Active; 'I' for Inactive)
REMARK    1  A    between atoms: N1_2  and  C2_3 
REMARK    2  A    between atoms: C7_9  and  N2_10 
REMARK    3  A    between atoms: N2_10  and  C8_11 
REMARK    4  A    between atoms: N3_12  and  C9_13 
REMARK    5  A    between atoms: C10_15  and  C11_16 
REMARK    6  A    between atoms: C14_19  and  O1_20 
ROOT
HETATM    1  C8  UNL     1      25.375   1.565  52.925  1.00  0.00     0.209 C 
HETATM    2  N3  UNL     1      24.677   2.600  53.277  1.00  0.00    -0.229 NA
ENDROOT
BRANCH   2   3
HETATM    3  C9  UNL     1      24.131   3.483  52.279  1.00  0.00     0.122 C 
HETATM    4  N4  UNL     1      24.747   3.378  51.152  1.00  0.00    -0.265 NA
HETATM    5  C10 UNL     1      24.201   4.274  50.138  1.00  0.00     0.143 C 
HETATM    6  C17 UNL     1      23.670   5.396  51.056  1.00  0.00     0.040 C 
HETATM    7  C18 UNL     1      23.054   4.489  52.136  1.00  0.00     0.082 C 
BRANCH   5   8
HETATM    8  C11 UNL     1      23.035   3.732  49.421  1.00  0.00    -0.033 A 
HETATM    9  C12 UNL     1      22.110   4.657  48.926  1.00  0.00     0.012 A 
HETATM   10  C13 UNL     1      20.955   4.222  48.254  1.00  0.00     0.037 A 
HETATM   11  C14 UNL     1      20.707   2.859  48.063  1.00  0.00     0.065 A 
HETATM   12  C15 UNL     1      21.626   1.952  48.553  1.00  0.00     0.037 A 
HETATM   13  C16 UNL     1      22.768   2.390  49.221  1.00  0.00     0.012 A 
BRANCH  11  14
HETATM   14  O1  UNL     1      19.550   2.478  47.389  1.00  0.00    -0.361 OA
HETATM   15  H13 UNL     1      19.429   1.482  47.150  1.00  0.00     0.217 HD
ENDBRANCH  11  14
ENDBRANCH   5   8
ENDBRANCH   2   3
BRANCH   1  16
HETATM   16  N2  UNL     1      25.885   0.734  53.994  1.00  0.00    -0.349 N 
HETATM   17  H8  UNL     1      25.518   0.920  54.964  1.00  0.00     0.167 HD
BRANCH  16  18
HETATM   18  C7  UNL     1      26.856  -0.269  53.640  1.00  0.00     0.062 A 
HETATM   19  C2  UNL     1      28.177  -0.031  53.974  1.00  0.00     0.093 A 
HETATM   20  C3  UNL     1      29.195  -0.914  53.667  1.00  0.00     0.144 A 
HETATM   21  F1  UNL     1      30.498  -0.771  53.951  1.00  0.00    -0.204 F 
HETATM   22  C4  UNL     1      28.805  -2.077  52.993  1.00  0.00     0.045 A 
HETATM   23  C5  UNL     1      27.484  -2.306  52.663  1.00  0.00     0.005 A 
HETATM   24  C6  UNL     1      26.457  -1.405  52.976  1.00  0.00     0.032 A 
BRANCH  19  25
HETATM   25  N1  UNL     1      28.652   1.122  54.668  1.00  0.00    -0.390 N 
HETATM   26  C1  UNL     1      29.002   2.269  53.865  1.00  0.00     0.146 C 
HETATM   27  H4  UNL     1      28.814   1.343  55.680  1.00  0.00     0.159 HD
ENDBRANCH  19  25
ENDBRANCH  16  18
ENDBRANCH   1  16
TORSDOF 6
ENDMDL
MODEL 9
REMARK VINA RESULT:      -7.1      3.080      4.260
REMARK  6 active torsions:
REMARK  status: ('A' for Active; 'I' for Inactive)
REMARK    1  A    between atoms: N1_2  and  C2_3 
REMARK    2  A    between atoms: C7_9  and  N2_10 
REMARK    3  A    between atoms: N2_10  and  C8_11 
REMARK    4  A    between atoms: N3_12  and  C9_13 
REMARK    5  A    between atoms: C10_15  and  C11_16 
REMARK    6  A    between atoms: C14_19  and  O1_20 
ROOT
HETATM    1  C8  UNL     1      24.161   4.141  51.405  1.00  0.00     0.209 C 
HETATM    2  N3  UNL     1      24.380   2.890  51.664  1.00  0.00    -0.229 NA
ENDROOT
BRANCH   2   3
HETATM    3  C9  UNL     1      25.652   2.468  52.192  1.00  0.00     0.122 C 
HETATM    4  N4  UNL     1      25.553   2.038  53.403  1.00  0.00    -0.265 NA
HETATM    5  C10 UNL     1      26.839   1.614  53.946  1.00  0.00     0.143 C 
HETATM    6  C17 UNL     1      27.772   2.531  53.125  1.00  0.00     0.040 C 
HETATM    7  C18 UNL     1      27.066   2.362  51.768  1.00  0.00     0.082 C 
BRANCH   5   8
HETATM    8  C11 UNL     1      27.208   0.229  53.605  1.00  0.00    -0.033 A 
HETATM    9  C12 UNL     1      28.538  -0.143  53.824  1.00  0.00     0.012 A 
HETATM   10  C13 UNL     1      28.980  -1.437  53.500  1.00  0.00     0.037 A 
HETATM   11  C14 UNL     1      28.101  -2.379  52.957  1.00  0.00     0.065 A 
HETATM   12  C15 UNL     1      26.789  -2.004  52.746  1.00  0.00     0.037 A 
HETATM   13  C16 UNL     1      26.357  -0.718  53.067  1.00  0.00     0.012 A 
BRANCH  11  14
HETATM   14  O1  UNL     1      28.585  -3.649  52.655  1.00  0.00    -0.361 OA
HETATM   15  H13 UNL     1      29.474  -3.949  53.082  1.00  0.00     0.217 HD
ENDBRANCH  11  14
ENDBRANCH   5   8
ENDBRANCH   2   3
BRANCH   1  16
HETATM   16  N2  UNL     1      22.855   4.474  50.877  1.00  0.00    -0.349 N 
HETATM   17  H8  UNL     1      22.367   5.309  51.294  1.00  0.00     0.167 HD
BRANCH  16  18
HETATM   18  C7  UNL     1      22.333   3.628  49.835  1.00  0.00     0.062 A 
HETATM   19  C2  UNL     1      21.449   2.629  50.200  1.00  0.00     0.093 A 
HETATM   20  C3  UNL     1      20.900   1.748  49.289  1.00  0.00     0.144 A 
HETATM   21  F1  UNL     1      20.037   0.754  49.546  1.00  0.00    -0.204 F 
HETATM   22  C4  UNL     1      21.296   1.930  47.957  1.00  0.00     0.045 A 
HETATM   23  C5  UNL     1      22.179   2.929  47.602  1.00  0.00     0.005 A 
HETATM   24  C6  UNL     1      22.732   3.819  48.534  1.00  0.00     0.032 A 
BRANCH  19  25
HETATM   25  N1  UNL     1      20.991   2.386  51.529  1.00  0.00    -0.390 N 
HETATM   26  C1  UNL     1      19.759   3.027  51.924  1.00  0.00     0.146 C 
HETATM   27  H4  UNL     1      21.359   1.819  52.331  1.00  0.00     0.159 HD
ENDBRANCH  19  25
ENDBRANCH  16  18
ENDBRANCH   1  16
TORSDOF 6
ENDMDL
