MODEL 1
REMARK VINA RESULT:     -11.2      0.000      0.000
REMARK  4 active torsions:
REMARK  status: ('A' for Active; 'I' for Inactive)
REMARK    1  A    between atoms: C1_2  and  O2_3 
REMARK    2  A    between atoms: C1_2  and  C2_4 
REMARK    3  A    between atoms: C5_7  and  C6_8 
REMARK    4  A    between atoms: C16_21  and  C17_22 
ROOT
HETATM    1  C6  UNL     1      20.385  -0.575  53.100  1.00  0.00     0.156 A 
HETATM    2  N1  UNL     1      20.460  -1.358  54.191  1.00  0.00    -0.240 NA
HETATM    3  C7  UNL     1      21.595  -1.572  54.891  1.00  0.00     0.130 A 
HETATM    4  C8  UNL     1      22.766  -0.964  54.486  1.00  0.00     0.009 A 
HETATM    5  C9  UNL     1      22.645  -0.167  53.358  1.00  0.00     0.079 A 
HETATM    6  N2  UNL     1      21.505   0.034  52.675  1.00  0.00    -0.228 NA
HETATM    7  C10 UNL     1      23.710   0.591  52.712  1.00  0.00     0.006 A 
HETATM    8  C11 UNL     1      23.280   1.497  51.743  1.00  0.00     0.016 A 
HETATM    9  C12 UNL     1      24.247   2.247  51.093  1.00  0.00     0.025 A 
HETATM   10  C13 UNL     1      25.586   2.133  51.363  1.00  0.00     0.035 A 
HETATM   11 CL1  UNL     1      26.763   3.115  50.501  1.00  0.00    -0.084 Cl
HETATM   12  C14 UNL     1      26.019   1.244  52.315  1.00  0.00     0.038 A 
HETATM   13  C15 UNL     1      25.063   0.495  52.964  1.00  0.00     0.007 A 
HETATM   14  C16 UNL     1      25.723  -0.379  53.929  1.00  0.00     0.079 C 
HETATM   15  N3  UNL     1      25.186  -1.078  54.867  1.00  0.00    -0.283 NA
HETATM   16  C23 UNL     1      23.881  -1.317  55.366  1.00  0.00     0.192 C 
ENDROOT
BRANCH   1  17
HETATM   17  C5  UNL     1      19.141  -0.387  52.398  1.00  0.00    -0.006 A 
HETATM   18  C4  UNL     1      18.966   0.268  51.256  1.00  0.00     0.012 A 
HETATM   19  C3  UNL     1      17.573   0.258  50.837  1.00  0.00     0.015 A 
HETATM   20  C2  UNL     1      16.871  -0.426  51.755  1.00  0.00     0.020 A 
HETATM   21  C24 UNL     1      17.807  -0.887  52.814  1.00  0.00     0.088 A 
BRANCH  20  22
HETATM   22  C1  UNL     1      15.446  -0.739  51.831  1.00  0.00     0.172 C 
HETATM   23  O1  UNL     1      14.676  -0.915  50.843  1.00  0.00    -0.646 OA
BRANCH  22  24
HETATM   24  O2  UNL     1      14.832  -0.867  53.093  1.00  0.00    -0.773 OA
HETATM   25  H1  UNL     1      15.034  -0.216  53.856  1.00  0.00     0.167 HD
ENDBRANCH  22  24
ENDBRANCH  20  22
ENDBRANCH   1  17
BRANCH  14  26
HETATM   26  C17 UNL     1      27.189  -0.479  53.819  1.00  0.00     0.070 A 
HETATM   27  C18 UNL     1      27.582  -1.555  53.035  1.00  0.00     0.132 A 
HETATM   28  F1  UNL     1      26.763  -2.450  52.412  1.00  0.00    -0.205 F 
HETATM   29  C19 UNL     1      28.914  -1.827  52.804  1.00  0.00     0.043 A 
HETATM   30  C20 UNL     1      29.882  -0.997  53.377  1.00  0.00     0.006 A 
HETATM   31  C21 UNL     1      29.474   0.061  54.148  1.00  0.00     0.043 A 
HETATM   32  C22 UNL     1      28.147   0.338  54.383  1.00  0.00     0.132 A 
HETATM   33  F2  UNL     1      27.642   1.351  55.123  1.00  0.00    -0.205 F 
ENDBRANCH  14  26
TORSDOF 4
ENDMDL
MODEL 2
REMARK VINA RESULT:     -11.0      1.153      2.134
REMARK  4 active torsions:
REMARK  status: ('A' for Active; 'I' for Inactive)
REMARK    1  A    between atoms: C1_2  and  O2_3 
REMARK    2  A    between atoms: C1_2  and  C2_4 
REMARK    3  A    between atoms: C5_7  and  C6_8 
REMARK    4  A    between atoms: C16_21  and  C17_22 
ROOT
HETATM    1  C6  UNL     1      20.204  -0.383  52.787  1.00  0.00     0.156 A 
HETATM    2  N1  UNL     1      20.216  -1.182  53.869  1.00  0.00    -0.240 NA
HETATM    3  C7  UNL     1      21.320  -1.446  54.600  1.00  0.00     0.130 A 
HETATM    4  C8  UNL     1      22.525  -0.878  54.240  1.00  0.00     0.009 A 
HETATM    5  C9  UNL     1      22.469  -0.063  53.120  1.00  0.00     0.079 A 
HETATM    6  N2  UNL     1      21.359   0.189  52.405  1.00  0.00    -0.228 NA
HETATM    7  C10 UNL     1      23.581   0.662  52.517  1.00  0.00     0.006 A 
HETATM    8  C11 UNL     1      23.215   1.595  51.548  1.00  0.00     0.016 A 
HETATM    9  C12 UNL     1      24.229   2.317  50.938  1.00  0.00     0.025 A 
HETATM   10  C13 UNL     1      25.554   2.150  51.247  1.00  0.00     0.035 A 
HETATM   11 CL1  UNL     1      26.792   3.098  50.436  1.00  0.00    -0.084 Cl
HETATM   12  C14 UNL     1      25.924   1.234  52.201  1.00  0.00     0.038 A 
HETATM   13  C15 UNL     1      24.920   0.513  52.810  1.00  0.00     0.007 A 
HETATM   14  C16 UNL     1      25.518  -0.397  53.782  1.00  0.00     0.079 C 
HETATM   15  N3  UNL     1      24.926  -1.086  54.694  1.00  0.00    -0.283 NA
HETATM   16  C23 UNL     1      23.599  -1.282  55.149  1.00  0.00     0.192 C 
ENDROOT
BRANCH   1  17
HETATM   17  C5  UNL     1      18.991  -0.141  52.050  1.00  0.00    -0.006 A 
HETATM   18  C4  UNL     1      17.784  -0.616  52.332  1.00  0.00     0.012 A 
HETATM   19  C3  UNL     1      16.789  -0.167  51.371  1.00  0.00     0.015 A 
HETATM   20  C2  UNL     1      17.409   0.611  50.468  1.00  0.00     0.020 A 
HETATM   21  C24 UNL     1      18.850   0.688  50.826  1.00  0.00     0.088 A 
BRANCH  20  22
HETATM   22  C1  UNL     1      16.893   1.317  49.298  1.00  0.00     0.172 C 
HETATM   23  O1  UNL     1      15.695   1.294  48.892  1.00  0.00    -0.646 OA
BRANCH  22  24
HETATM   24  O2  UNL     1      17.767   2.106  48.524  1.00  0.00    -0.773 OA
HETATM   25  H1  UNL     1      18.700   2.357  48.859  1.00  0.00     0.167 HD
ENDBRANCH  22  24
ENDBRANCH  20  22
ENDBRANCH   1  17
BRANCH  14  26
HETATM   26  C17 UNL     1      26.981  -0.550  53.717  1.00  0.00     0.070 A 
HETATM   27  C18 UNL     1      27.641   0.386  54.503  1.00  0.00     0.132 A 
HETATM   28  F1  UNL     1      27.063   1.357  55.267  1.00  0.00    -0.205 F 
HETATM   29  C19 UNL     1      29.017   0.416  54.583  1.00  0.00     0.043 A 
HETATM   30  C20 UNL     1      29.756  -0.519  53.852  1.00  0.00     0.006 A 
HETATM   31  C21 UNL     1      29.087  -1.435  53.082  1.00  0.00     0.043 A 
HETATM   32  C22 UNL     1      27.714  -1.471  52.997  1.00  0.00     0.132 A 
HETATM   33  F2  UNL     1      26.962  -2.329  52.272  1.00  0.00    -0.205 F 
ENDBRANCH  14  26
TORSDOF 4
ENDMDL
MODEL 3
REMARK VINA RESULT:     -10.0      5.924      9.279
REMARK  4 active torsions:
REMARK  status: ('A' for Active; 'I' for Inactive)
REMARK    1  A    between atoms: C1_2  and  O2_3 
REMARK    2  A    between atoms: C1_2  and  C2_4 
REMARK    3  A    between atoms: C5_7  and  C6_8 
REMARK    4  A    between atoms: C16_21  and  C17_22 
ROOT
HETATM    1  C6  UNL     1      25.851   1.408  51.838  1.00  0.00     0.156 A 
HETATM    2  N1  UNL     1      24.578   1.027  52.045  1.00  0.00    -0.240 NA
HETATM    3  C7  UNL     1      23.506   1.663  51.526  1.00  0.00     0.130 A 
HETATM    4  C8  UNL     1      23.696   2.775  50.732  1.00  0.00     0.009 A 
HETATM    5  C9  UNL     1      25.022   3.134  50.545  1.00  0.00     0.079 A 
HETATM    6  N2  UNL     1      26.076   2.487  51.070  1.00  0.00    -0.228 NA
HETATM    7  C10 UNL     1      25.515   4.259  49.759  1.00  0.00     0.006 A 
HETATM    8  C11 UNL     1      26.891   4.258  49.535  1.00  0.00     0.016 A 
HETATM    9  C12 UNL     1      27.420   5.304  48.794  1.00  0.00     0.025 A 
HETATM   10  C13 UNL     1      26.654   6.318  48.280  1.00  0.00     0.035 A 
HETATM   11 CL1  UNL     1      27.387   7.614  47.348  1.00  0.00    -0.084 Cl
HETATM   12  C14 UNL     1      25.297   6.326  48.495  1.00  0.00     0.038 A 
HETATM   13  C15 UNL     1      24.766   5.291  49.233  1.00  0.00     0.007 A 
HETATM   14  C16 UNL     1      23.324   5.484  49.345  1.00  0.00     0.079 C 
HETATM   15  N3  UNL     1      22.440   4.650  49.769  1.00  0.00    -0.283 NA
HETATM   16  C23 UNL     1      22.420   3.323  50.267  1.00  0.00     0.192 C 
ENDROOT
BRANCH   1  17
HETATM   17  C5  UNL     1      26.952   0.684  52.421  1.00  0.00    -0.006 A 
HETATM   18  C4  UNL     1      27.998   1.205  53.052  1.00  0.00     0.012 A 
HETATM   19  C3  UNL     1      28.918   0.176  53.511  1.00  0.00     0.015 A 
HETATM   20  C2  UNL     1      28.419  -1.016  53.147  1.00  0.00     0.020 A 
HETATM   21  C24 UNL     1      27.136  -0.789  52.429  1.00  0.00     0.088 A 
BRANCH  20  22
HETATM   22  C1  UNL     1      28.930  -2.370  53.350  1.00  0.00     0.172 C 
HETATM   23  O1  UNL     1      29.966  -2.676  54.008  1.00  0.00    -0.646 OA
BRANCH  22  24
HETATM   24  O2  UNL     1      28.241  -3.461  52.783  1.00  0.00    -0.773 OA
HETATM   25  H1  UNL     1      28.701  -4.360  52.622  1.00  0.00     0.167 HD
ENDBRANCH  22  24
ENDBRANCH  20  22
ENDBRANCH   1  17
BRANCH  14  26
HETATM   26  C17 UNL     1      22.808   6.797  48.920  1.00  0.00     0.070 A 
HETATM   27  C18 UNL     1      22.339   6.777  47.613  1.00  0.00     0.132 A 
HETATM   28  F1  UNL     1      22.328   5.705  46.770  1.00  0.00    -0.205 F 
HETATM   29  C19 UNL     1      21.813   7.906  47.021  1.00  0.00     0.043 A 
HETATM   30  C20 UNL     1      21.756   9.091  47.760  1.00  0.00     0.006 A 
HETATM   31  C21 UNL     1      22.224   9.092  49.049  1.00  0.00     0.043 A 
HETATM   32  C22 UNL     1      22.750   7.969  49.646  1.00  0.00     0.132 A 
HETATM   33  F2  UNL     1      23.235   7.863  50.904  1.00  0.00    -0.205 F 
ENDBRANCH  14  26
TORSDOF 4
ENDMDL
MODEL 4
REMARK VINA RESULT:     -10.0      5.000      8.994
REMARK  4 active torsions:
REMARK  status: ('A' for Active; 'I' for Inactive)
REMARK    1  A    between atoms: C1_2  and  O2_3 
REMARK    2  A    between atoms: C1_2  and  C2_4 
REMARK    3  A    between atoms: C5_7  and  C6_8 
REMARK    4  A    between atoms: C16_21  and  C17_22 
ROOT
HETATM    1  C6  UNL     1      24.058   0.033  53.226  1.00  0.00     0.156 A 
HETATM    2  N1  UNL     1      23.420  -0.644  54.197  1.00  0.00    -0.240 NA
HETATM    3  C7  UNL     1      22.087  -0.857  54.218  1.00  0.00     0.130 A 
HETATM    4  C8  UNL     1      21.304  -0.362  53.195  1.00  0.00     0.009 A 
HETATM    5  C9  UNL     1      22.001   0.329  52.216  1.00  0.00     0.079 A 
HETATM    6  N2  UNL     1      23.330   0.531  52.212  1.00  0.00    -0.228 NA
HETATM    7  C10 UNL     1      21.435   0.956  51.027  1.00  0.00     0.006 A 
HETATM    8  C11 UNL     1      22.373   1.377  50.085  1.00  0.00     0.016 A 
HETATM    9  C12 UNL     1      21.896   1.981  48.932  1.00  0.00     0.025 A 
HETATM   10  C13 UNL     1      20.562   2.176  48.688  1.00  0.00     0.035 A 
HETATM   11 CL1  UNL     1      20.022   2.949  47.205  1.00  0.00    -0.084 Cl
HETATM   12  C14 UNL     1      19.631   1.765  49.610  1.00  0.00     0.038 A 
HETATM   13  C15 UNL     1      20.099   1.164  50.758  1.00  0.00     0.007 A 
HETATM   14  C16 UNL     1      18.961   0.804  51.599  1.00  0.00     0.079 C 
HETATM   15  N3  UNL     1      18.951   0.053  52.644  1.00  0.00    -0.283 NA
HETATM   16  C23 UNL     1      19.892  -0.693  53.395  1.00  0.00     0.192 C 
ENDROOT
BRANCH   1  17
HETATM   17  C5  UNL     1      25.485   0.225  53.262  1.00  0.00    -0.006 A 
HETATM   18  C4  UNL     1      26.414  -0.671  52.950  1.00  0.00     0.012 A 
HETATM   19  C3  UNL     1      27.756  -0.133  53.102  1.00  0.00     0.015 A 
HETATM   20  C2  UNL     1      27.646   1.137  53.523  1.00  0.00     0.020 A 
HETATM   21  C24 UNL     1      26.201   1.464  53.657  1.00  0.00     0.088 A 
BRANCH  20  22
HETATM   22  C1  UNL     1      28.667   2.135  53.833  1.00  0.00     0.172 C 
HETATM   23  O1  UNL     1      29.304   2.225  54.922  1.00  0.00    -0.646 OA
BRANCH  22  24
HETATM   24  O2  UNL     1      29.006   3.102  52.865  1.00  0.00    -0.773 OA
HETATM   25  H1  UNL     1      29.536   2.858  52.026  1.00  0.00     0.167 HD
ENDBRANCH  22  24
ENDBRANCH  20  22
ENDBRANCH   1  17
BRANCH  14  26
HETATM   26  C17 UNL     1      17.658   1.370  51.207  1.00  0.00     0.070 A 
HETATM   27  C18 UNL     1      16.863   0.442  50.548  1.00  0.00     0.132 A 
HETATM   28  F1  UNL     1      17.187  -0.853  50.265  1.00  0.00    -0.205 F 
HETATM   29  C19 UNL     1      15.601   0.768  50.096  1.00  0.00     0.043 A 
HETATM   30  C20 UNL     1      15.123   2.064  50.310  1.00  0.00     0.006 A 
HETATM   31  C21 UNL     1      15.922   2.966  50.963  1.00  0.00     0.043 A 
HETATM   32  C22 UNL     1      17.182   2.647  51.416  1.00  0.00     0.132 A 
HETATM   33  F2  UNL     1      18.046   3.458  52.068  1.00  0.00    -0.205 F 
ENDBRANCH  14  26
TORSDOF 4
ENDMDL
MODEL 5
REMARK VINA RESULT:      -9.9      5.573      8.144
REMARK  4 active torsions:
REMARK  status: ('A' for Active; 'I' for Inactive)
REMARK    1  A    between atoms: C1_2  and  O2_3 
REMARK    2  A    between atoms: C1_2  and  C2_4 
REMARK    3  A    between atoms: C5_7  and  C6_8 
REMARK    4  A    between atoms: C16_21  and  C17_22 
ROOT
HETATM    1  C6  UNL     1      23.030   2.494  51.794  1.00  0.00     0.156 A 
HETATM    2  N1  UNL     1      21.803   3.040  51.711  1.00  0.00    -0.240 NA
HETATM    3  C7  UNL     1      21.515   4.142  50.985  1.00  0.00     0.130 A 
HETATM    4  C8  UNL     1      22.518   4.769  50.276  1.00  0.00     0.009 A 
HETATM    5  C9  UNL     1      23.766   4.174  50.389  1.00  0.00     0.079 A 
HETATM    6  N2  UNL     1      24.033   3.076  51.116  1.00  0.00    -0.228 NA
HETATM    7  C10 UNL     1      25.000   4.619  49.753  1.00  0.00     0.006 A 
HETATM    8  C11 UNL     1      26.059   3.715  49.833  1.00  0.00     0.016 A 
HETATM    9  C12 UNL     1      27.260   4.081  49.247  1.00  0.00     0.025 A 
HETATM   10  C13 UNL     1      27.442   5.277  48.601  1.00  0.00     0.035 A 
HETATM   11 CL1  UNL     1      28.992   5.681  47.878  1.00  0.00    -0.084 Cl
HETATM   12  C14 UNL     1      26.406   6.173  48.517  1.00  0.00     0.038 A 
HETATM   13  C15 UNL     1      25.209   5.815  49.099  1.00  0.00     0.007 A 
HETATM   14  C16 UNL     1      24.247   6.894  48.899  1.00  0.00     0.079 C 
HETATM   15  N3  UNL     1      22.976   6.874  49.104  1.00  0.00    -0.283 NA
HETATM   16  C23 UNL     1      22.013   5.939  49.557  1.00  0.00     0.192 C 
ENDROOT
BRANCH   1  17
HETATM   17  C5  UNL     1      23.271   1.315  52.585  1.00  0.00    -0.006 A 
HETATM   18  C4  UNL     1      24.413   0.644  52.680  1.00  0.00     0.012 A 
HETATM   19  C3  UNL     1      24.294  -0.499  53.572  1.00  0.00     0.015 A 
HETATM   20  C2  UNL     1      23.036  -0.529  54.039  1.00  0.00     0.020 A 
HETATM   21  C24 UNL     1      22.289   0.615  53.451  1.00  0.00     0.088 A 
BRANCH  20  22
HETATM   22  C1  UNL     1      22.378  -1.454  54.958  1.00  0.00     0.172 C 
HETATM   23  O1  UNL     1      21.167  -1.817  54.899  1.00  0.00    -0.646 OA
BRANCH  22  24
HETATM   24  O2  UNL     1      23.116  -2.017  56.018  1.00  0.00    -0.773 OA
HETATM   25  H1  UNL     1      24.100  -1.785  56.170  1.00  0.00     0.167 HD
ENDBRANCH  22  24
ENDBRANCH  20  22
ENDBRANCH   1  17
BRANCH  14  26
HETATM   26  C17 UNL     1      24.792   8.169  48.402  1.00  0.00     0.070 A 
HETATM   27  C18 UNL     1      24.685   8.280  47.022  1.00  0.00     0.132 A 
HETATM   28  F1  UNL     1      24.150   7.358  46.171  1.00  0.00    -0.205 F 
HETATM   29  C19 UNL     1      25.137   9.399  46.353  1.00  0.00     0.043 A 
HETATM   30  C20 UNL     1      25.714  10.437  47.090  1.00  0.00     0.006 A 
HETATM   31  C21 UNL     1      25.812  10.309  48.451  1.00  0.00     0.043 A 
HETATM   32  C22 UNL     1      25.363   9.196  49.125  1.00  0.00     0.132 A 
HETATM   33  F2  UNL     1      25.411   8.972  50.457  1.00  0.00    -0.205 F 
ENDBRANCH  14  26
TORSDOF 4
ENDMDL
MODEL 6
REMARK VINA RESULT:      -9.7      6.762     10.408
REMARK  4 active torsions:
REMARK  status: ('A' for Active; 'I' for Inactive)
REMARK    1  A    between atoms: C1_2  and  O2_3 
REMARK    2  A    between atoms: C1_2  and  C2_4 
REMARK    3  A    between atoms: C5_7  and  C6_8 
REMARK    4  A    between atoms: C16_21  and  C17_22 
ROOT
HETATM    1  C6  UNL     1      27.038   5.952  48.467  1.00  0.00     0.156 A 
HETATM    2  N1  UNL     1      26.078   6.814  48.085  1.00  0.00    -0.240 NA
HETATM    3  C7  UNL     1      24.775   6.688  48.416  1.00  0.00     0.130 A 
HETATM    4  C8  UNL     1      24.372   5.620  49.192  1.00  0.00     0.009 A 
HETATM    5  C9  UNL     1      25.392   4.757  49.563  1.00  0.00     0.079 A 
HETATM    6  N2  UNL     1      26.684   4.900  49.224  1.00  0.00    -0.228 NA
HETATM    7  C10 UNL     1      25.258   3.554  50.376  1.00  0.00     0.006 A 
HETATM    8  C11 UNL     1      26.464   2.999  50.803  1.00  0.00     0.016 A 
HETATM    9  C12 UNL     1      26.402   1.852  51.580  1.00  0.00     0.025 A 
HETATM   10  C13 UNL     1      25.220   1.256  51.939  1.00  0.00     0.035 A 
HETATM   11 CL1  UNL     1      25.211  -0.197  52.927  1.00  0.00    -0.084 Cl
HETATM   12  C14 UNL     1      24.028   1.796  51.523  1.00  0.00     0.038 A 
HETATM   13  C15 UNL     1      24.083   2.935  50.749  1.00  0.00     0.007 A 
HETATM   14  C16 UNL     1      22.723   3.344  50.416  1.00  0.00     0.079 C 
HETATM   15  N3  UNL     1      22.332   4.453  49.892  1.00  0.00    -0.283 NA
HETATM   16  C23 UNL     1      22.930   5.656  49.442  1.00  0.00     0.192 C 
ENDROOT
BRANCH   1  17
HETATM   17  C5  UNL     1      28.412   6.145  48.081  1.00  0.00    -0.006 A 
HETATM   18  C4  UNL     1      28.945   7.249  47.570  1.00  0.00     0.012 A 
HETATM   19  C3  UNL     1      30.364   7.086  47.297  1.00  0.00     0.015 A 
HETATM   20  C2  UNL     1      30.712   5.839  47.651  1.00  0.00     0.020 A 
HETATM   21  C24 UNL     1      29.505   5.145  48.175  1.00  0.00     0.088 A 
BRANCH  20  22
HETATM   22  C1  UNL     1      32.000   5.151  47.592  1.00  0.00     0.172 C 
HETATM   23  O1  UNL     1      32.826   5.215  46.636  1.00  0.00    -0.646 OA
BRANCH  22  24
HETATM   24  O2  UNL     1      32.399   4.335  48.669  1.00  0.00    -0.773 OA
HETATM   25  H1  UNL     1      33.379   4.085  48.818  1.00  0.00     0.167 HD
ENDBRANCH  22  24
ENDBRANCH  20  22
ENDBRANCH   1  17
BRANCH  14  26
HETATM   26  C17 UNL     1      21.659   2.370  50.714  1.00  0.00     0.070 A 
HETATM   27  C18 UNL     1      20.983   2.677  51.888  1.00  0.00     0.132 A 
HETATM   28  F1  UNL     1      21.225   3.737  52.713  1.00  0.00    -0.205 F 
HETATM   29  C19 UNL     1      19.948   1.890  52.349  1.00  0.00     0.043 A 
HETATM   30  C20 UNL     1      19.579   0.762  51.612  1.00  0.00     0.006 A 
HETATM   31  C21 UNL     1      20.258   0.475  50.455  1.00  0.00     0.043 A 
HETATM   32  C22 UNL     1      21.291   1.255  49.990  1.00  0.00     0.132 A 
HETATM   33  F2  UNL     1      22.021   1.062  48.868  1.00  0.00    -0.205 F 
ENDBRANCH  14  26
TORSDOF 4
ENDMDL
MODEL 7
REMARK VINA RESULT:      -9.7      7.194     10.239
REMARK  4 active torsions:
REMARK  status: ('A' for Active; 'I' for Inactive)
REMARK    1  A    between atoms: C1_2  and  O2_3 
REMARK    2  A    between atoms: C1_2  and  C2_4 
REMARK    3  A    between atoms: C5_7  and  C6_8 
REMARK    4  A    between atoms: C16_21  and  C17_22 
ROOT
HETATM    1  C6  UNL     1      25.545   2.959  50.930  1.00  0.00     0.156 A 
HETATM    2  N1  UNL     1      24.210   3.131  50.911  1.00  0.00    -0.240 NA
HETATM    3  C7  UNL     1      23.583   4.096  50.205  1.00  0.00     0.130 A 
HETATM    4  C8  UNL     1      24.329   4.975  49.447  1.00  0.00     0.009 A 
HETATM    5  C9  UNL     1      25.698   4.764  49.494  1.00  0.00     0.079 A 
HETATM    6  N2  UNL     1      26.305   3.796  50.204  1.00  0.00    -0.228 NA
HETATM    7  C10 UNL     1      26.721   5.536  48.798  1.00  0.00     0.006 A 
HETATM    8  C11 UNL     1      27.996   4.972  48.821  1.00  0.00     0.016 A 
HETATM    9  C12 UNL     1      29.012   5.660  48.176  1.00  0.00     0.025 A 
HETATM   10  C13 UNL     1      28.812   6.851  47.526  1.00  0.00     0.035 A 
HETATM   11 CL1  UNL     1      30.143   7.673  46.726  1.00  0.00    -0.084 Cl
HETATM   12  C14 UNL     1      27.559   7.412  47.497  1.00  0.00     0.038 A 
HETATM   13  C15 UNL     1      26.546   6.734  48.138  1.00  0.00     0.007 A 
HETATM   14  C16 UNL     1      25.306   7.491  47.992  1.00  0.00     0.079 C 
HETATM   15  N3  UNL     1      24.106   7.111  48.261  1.00  0.00    -0.283 NA
HETATM   16  C23 UNL     1      23.474   5.944  48.759  1.00  0.00     0.192 C 
ENDROOT
BRANCH   1  17
HETATM   17  C5  UNL     1      26.152   1.908  51.704  1.00  0.00    -0.006 A 
HETATM   18  C4  UNL     1      25.671   0.685  51.897  1.00  0.00     0.012 A 
HETATM   19  C3  UNL     1      26.549  -0.115  52.735  1.00  0.00     0.015 A 
HETATM   20  C2  UNL     1      27.606   0.645  53.068  1.00  0.00     0.020 A 
HETATM   21  C24 UNL     1      27.438   1.983  52.443  1.00  0.00     0.088 A 
BRANCH  20  22
HETATM   22  C1  UNL     1      28.779   0.346  53.886  1.00  0.00     0.172 C 
HETATM   23  O1  UNL     1      28.777  -0.315  54.964  1.00  0.00    -0.646 OA
BRANCH  22  24
HETATM   24  O2  UNL     1      30.044   0.815  53.478  1.00  0.00    -0.773 OA
HETATM   25  H1  UNL     1      30.393   1.732  53.762  1.00  0.00     0.167 HD
ENDBRANCH  22  24
ENDBRANCH  20  22
ENDBRANCH   1  17
BRANCH  14  26
HETATM   26  C17 UNL     1      25.439   8.862  47.471  1.00  0.00     0.070 A 
HETATM   27  C18 UNL     1      25.616   9.792  48.487  1.00  0.00     0.132 A 
HETATM   28  F1  UNL     1      25.669   9.534  49.825  1.00  0.00    -0.205 F 
HETATM   29  C19 UNL     1      25.761  11.136  48.214  1.00  0.00     0.043 A 
HETATM   30  C20 UNL     1      25.727  11.561  46.883  1.00  0.00     0.006 A 
HETATM   31  C21 UNL     1      25.552  10.629  45.893  1.00  0.00     0.043 A 
HETATM   32  C22 UNL     1      25.406   9.286  46.158  1.00  0.00     0.132 A 
HETATM   33  F2  UNL     1      25.230   8.290  45.261  1.00  0.00    -0.205 F 
ENDBRANCH  14  26
TORSDOF 4
ENDMDL
MODEL 8
REMARK VINA RESULT:      -9.6      6.062      8.628
REMARK  4 active torsions:
REMARK  status: ('A' for Active; 'I' for Inactive)
REMARK    1  A    between atoms: C1_2  and  O2_3 
REMARK    2  A    between atoms: C1_2  and  C2_4 
REMARK    3  A    between atoms: C5_7  and  C6_8 
REMARK    4  A    between atoms: C16_21  and  C17_22 
ROOT
HETATM    1  C6  UNL     1      23.061   2.697  51.648  1.00  0.00     0.156 A 
HETATM    2  N1  UNL     1      21.837   3.247  51.547  1.00  0.00    -0.240 NA
HETATM    3  C7  UNL     1      21.562   4.350  50.818  1.00  0.00     0.130 A 
HETATM    4  C8  UNL     1      22.578   4.974  50.123  1.00  0.00     0.009 A 
HETATM    5  C9  UNL     1      23.822   4.376  50.255  1.00  0.00     0.079 A 
HETATM    6  N2  UNL     1      24.076   3.278  50.985  1.00  0.00    -0.228 NA
HETATM    7  C10 UNL     1      25.067   4.818  49.637  1.00  0.00     0.006 A 
HETATM    8  C11 UNL     1      26.122   3.910  49.733  1.00  0.00     0.016 A 
HETATM    9  C12 UNL     1      27.333   4.274  49.164  1.00  0.00     0.025 A 
HETATM   10  C13 UNL     1      27.527   5.469  48.521  1.00  0.00     0.035 A 
HETATM   11 CL1  UNL     1      29.089   5.869  47.821  1.00  0.00    -0.084 Cl
HETATM   12  C14 UNL     1      26.494   6.368  48.422  1.00  0.00     0.038 A 
HETATM   13  C15 UNL     1      25.288   6.013  48.986  1.00  0.00     0.007 A 
HETATM   14  C16 UNL     1      24.332   7.095  48.773  1.00  0.00     0.079 C 
HETATM   15  N3  UNL     1      23.059   7.079  48.959  1.00  0.00    -0.283 NA
HETATM   16  C23 UNL     1      22.086   6.146  49.397  1.00  0.00     0.192 C 
ENDROOT
BRANCH   1  17
HETATM   17  C5  UNL     1      23.287   1.518  52.443  1.00  0.00    -0.006 A 
HETATM   18  C4  UNL     1      22.421   0.538  52.672  1.00  0.00     0.012 A 
HETATM   19  C3  UNL     1      22.990  -0.497  53.522  1.00  0.00     0.015 A 
HETATM   20  C2  UNL     1      24.248  -0.137  53.824  1.00  0.00     0.020 A 
HETATM   21  C24 UNL     1      24.535   1.165  53.166  1.00  0.00     0.088 A 
BRANCH  20  22
HETATM   22  C1  UNL     1      25.264  -0.801  54.637  1.00  0.00     0.172 C 
HETATM   23  O1  UNL     1      26.509  -0.791  54.415  1.00  0.00    -0.646 OA
BRANCH  22  24
HETATM   24  O2  UNL     1      24.870  -1.528  55.779  1.00  0.00    -0.773 OA
HETATM   25  H1  UNL     1      25.386  -2.352  56.094  1.00  0.00     0.167 HD
ENDBRANCH  22  24
ENDBRANCH  20  22
ENDBRANCH   1  17
BRANCH  14  26
HETATM   26  C17 UNL     1      24.888   8.368  48.283  1.00  0.00     0.070 A 
HETATM   27  C18 UNL     1      24.820   8.471  46.900  1.00  0.00     0.132 A 
HETATM   28  F1  UNL     1      24.311   7.543  46.040  1.00  0.00    -0.205 F 
HETATM   29  C19 UNL     1      25.287   9.587  46.238  1.00  0.00     0.043 A 
HETATM   30  C20 UNL     1      25.841  10.631  46.985  1.00  0.00     0.006 A 
HETATM   31  C21 UNL     1      25.901  10.511  48.349  1.00  0.00     0.043 A 
HETATM   32  C22 UNL     1      25.436   9.401  49.016  1.00  0.00     0.132 A 
HETATM   33  F2  UNL     1      25.447   9.185  50.351  1.00  0.00    -0.205 F 
ENDBRANCH  14  26
TORSDOF 4
ENDMDL
MODEL 9
REMARK VINA RESULT:      -9.6      8.808     12.540
REMARK  4 active torsions:
REMARK  status: ('A' for Active; 'I' for Inactive)
REMARK    1  A    between atoms: C1_2  and  O2_3 
REMARK    2  A    between atoms: C1_2  and  C2_4 
REMARK    3  A    between atoms: C5_7  and  C6_8 
REMARK    4  A    between atoms: C16_21  and  C17_22 
ROOT
HETATM    1  C6  UNL     1      30.143   5.609  47.814  1.00  0.00     0.156 A 
HETATM    2  N1  UNL     1      30.282   6.937  47.656  1.00  0.00    -0.240 NA
HETATM    3  C7  UNL     1      29.297   7.832  47.884  1.00  0.00     0.130 A 
HETATM    4  C8  UNL     1      28.061   7.387  48.306  1.00  0.00     0.009 A 
HETATM    5  C9  UNL     1      27.960   6.013  48.455  1.00  0.00     0.079 A 
HETATM    6  N2  UNL     1      28.953   5.137  48.223  1.00  0.00    -0.228 NA
HETATM    7  C10 UNL     1      26.780   5.271  48.884  1.00  0.00     0.006 A 
HETATM    8  C11 UNL     1      27.010   3.928  49.183  1.00  0.00     0.016 A 
HETATM    9  C12 UNL     1      25.927   3.169  49.596  1.00  0.00     0.025 A 
HETATM   10  C13 UNL     1      24.661   3.681  49.722  1.00  0.00     0.035 A 
HETATM   11 CL1  UNL     1      23.329   2.664  50.252  1.00  0.00    -0.084 Cl
HETATM   12  C14 UNL     1      24.425   5.001  49.430  1.00  0.00     0.038 A 
HETATM   13  C15 UNL     1      25.498   5.761  49.018  1.00  0.00     0.007 A 
HETATM   14  C16 UNL     1      25.040   7.123  48.761  1.00  0.00     0.079 C 
HETATM   15  N3  UNL     1      25.752   8.176  48.561  1.00  0.00    -0.283 NA
HETATM   16  C23 UNL     1      27.130   8.501  48.498  1.00  0.00     0.192 C 
ENDROOT
BRANCH   1  17
HETATM   17  C5  UNL     1      31.235   4.706  47.554  1.00  0.00    -0.006 A 
HETATM   18  C4  UNL     1      31.180   3.573  46.863  1.00  0.00     0.012 A 
HETATM   19  C3  UNL     1      32.475   2.915  46.802  1.00  0.00     0.015 A 
HETATM   20  C2  UNL     1      33.354   3.672  47.480  1.00  0.00     0.020 A 
HETATM   21  C24 UNL     1      32.639   4.864  48.008  1.00  0.00     0.088 A 
BRANCH  20  22
HETATM   22  C1  UNL     1      34.781   3.485  47.734  1.00  0.00     0.172 C 
HETATM   23  O1  UNL     1      35.649   3.169  46.870  1.00  0.00    -0.646 OA
BRANCH  22  24
HETATM   24  O2  UNL     1      35.280   3.663  49.040  1.00  0.00    -0.773 OA
HETATM   25  H1  UNL     1      36.010   3.058  49.421  1.00  0.00     0.167 HD
ENDBRANCH  22  24
ENDBRANCH  20  22
ENDBRANCH   1  17
BRANCH  14  26
HETATM   26  C17 UNL     1      23.582   7.323  48.725  1.00  0.00     0.070 A 
HETATM   27  C18 UNL     1      23.090   7.801  49.933  1.00  0.00     0.132 A 
HETATM   28  F1  UNL     1      23.815   8.074  51.056  1.00  0.00    -0.205 F 
HETATM   29  C19 UNL     1      21.747   8.057  50.111  1.00  0.00     0.043 A 
HETATM   30  C20 UNL     1      20.869   7.826  49.048  1.00  0.00     0.006 A 
HETATM   31  C21 UNL     1      21.373   7.354  47.864  1.00  0.00     0.043 A 
HETATM   32  C22 UNL     1      22.712   7.096  47.679  1.00  0.00     0.132 A 
HETATM   33  F2  UNL     1      23.308   6.632  46.557  1.00  0.00    -0.205 F 
ENDBRANCH  14  26
TORSDOF 4
ENDMDL
