MODEL 1
REMARK VINA RESULT:      -8.1      0.000      0.000
REMARK  3 active torsions:
REMARK  status: ('A' for Active; 'I' for Inactive)
REMARK       I    between atoms: C2_2  and  N1_4 
REMARK    1  A    between atoms: N1_4  and  C3_5 
REMARK    2  A    between atoms: C9_12  and  N2_13 
REMARK    3  A    between atoms: N2_13  and  C10_14 
ROOT
HETATM    1  C3  UNL     1      22.873   0.980  52.480  1.00  0.00     0.130 C 
HETATM    2  C4  UNL     1      22.200   1.221  51.277  1.00  0.00     0.053 C 
HETATM    3  C5  UNL     1      22.719   2.213  50.260  1.00  0.00     0.038 C 
HETATM    4  C6  UNL     1      23.441   3.358  50.382  1.00  0.00     0.071 C 
HETATM    5  C7  UNL     1      24.334   3.199  49.202  1.00  0.00     0.239 C 
HETATM    6  O2  UNL     1      25.708   3.295  49.707  1.00  0.00    -0.354 OA
HETATM    7  C8  UNL     1      26.343   2.800  50.888  1.00  0.00     0.166 C 
HETATM    8  C9  UNL     1      25.736   2.406  52.055  1.00  0.00     0.082 C 
HETATM    9  C16 UNL     1      24.457   2.868  52.701  1.00  0.00     0.089 C 
HETATM   10  N3  UNL     1      24.034   1.681  53.149  1.00  0.00    -0.231 NA
HETATM   11  C17 UNL     1      23.749   4.223  52.793  1.00  0.00     0.237 C 
HETATM   12  O3  UNL     1      23.362   4.411  51.376  1.00  0.00    -0.347 OA
ENDROOT
BRANCH   8  13
HETATM   13  N2  UNL     1      26.205   1.375  52.900  1.00  0.00    -0.353 N 
HETATM   14  H10 UNL     1      25.629   0.986  53.644  1.00  0.00     0.166 HD
BRANCH  13  15
HETATM   15  C10 UNL     1      27.355   0.570  53.093  1.00  0.00     0.032 A 
HETATM   16  C11 UNL     1      27.213  -0.790  52.853  1.00  0.00     0.029 A 
HETATM   17  C12 UNL     1      28.306  -1.620  53.021  1.00  0.00     0.002 A 
HETATM   18  C13 UNL     1      29.504  -1.083  53.419  1.00  0.00     0.000 A 
HETATM   19  C14 UNL     1      29.694   0.262  53.670  1.00  0.00     0.002 A 
HETATM   20  C15 UNL     1      28.579   1.063  53.491  1.00  0.00     0.029 A 
ENDBRANCH  13  15
ENDBRANCH   8  13
BRANCH   1  21
HETATM   21  N1  UNL     1      22.267  -0.160  53.022  1.00  0.00    -0.312 N 
HETATM   22  C2  UNL     1      21.432  -0.561  54.119  1.00  0.00     0.219 C 
HETATM   23  C1  UNL     1      21.019  -1.969  54.303  1.00  0.00     0.117 C 
HETATM   24  O1  UNL     1      21.063   0.333  54.924  1.00  0.00    -0.274 OA
HETATM   25  H4  UNL     1      22.532  -0.986  52.403  1.00  0.00     0.170 HD
ENDBRANCH   1  21
TORSDOF 3
ENDMDL
MODEL 2
REMARK VINA RESULT:      -7.9      0.829      1.300
REMARK  3 active torsions:
REMARK  status: ('A' for Active; 'I' for Inactive)
REMARK       I    between atoms: C2_2  and  N1_4 
REMARK    1  A    between atoms: N1_4  and  C3_5 
REMARK    2  A    between atoms: C9_12  and  N2_13 
REMARK    3  A    between atoms: N2_13  and  C10_14 
ROOT
HETATM    1  C3  UNL     1      22.594   1.426  52.513  1.00  0.00     0.130 C 
HETATM    2  C4  UNL     1      21.908   1.522  51.296  1.00  0.00     0.053 C 
HETATM    3  C5  UNL     1      22.411   2.394  50.167  1.00  0.00     0.038 C 
HETATM    4  C6  UNL     1      23.125   3.550  50.149  1.00  0.00     0.071 C 
HETATM    5  C7  UNL     1      24.009   3.262  48.987  1.00  0.00     0.239 C 
HETATM    6  O2  UNL     1      25.387   3.426  49.465  1.00  0.00    -0.354 OA
HETATM    7  C8  UNL     1      26.035   3.074  50.689  1.00  0.00     0.166 C 
HETATM    8  C9  UNL     1      25.442   2.813  51.899  1.00  0.00     0.082 C 
HETATM    9  C16 UNL     1      24.165   3.337  52.500  1.00  0.00     0.089 C 
HETATM   10  N3  UNL     1      23.755   2.207  53.086  1.00  0.00    -0.231 NA
HETATM   11  C17 UNL     1      23.446   4.689  52.442  1.00  0.00     0.237 C 
HETATM   12  O3  UNL     1      23.046   4.709  51.016  1.00  0.00    -0.347 OA
ENDROOT
BRANCH   8  13
HETATM   13  N2  UNL     1      25.926   1.890  52.852  1.00  0.00    -0.353 N 
HETATM   14  H10 UNL     1      25.374   1.613  53.663  1.00  0.00     0.166 HD
BRANCH  13  15
HETATM   15  C10 UNL     1      27.069   1.090  53.105  1.00  0.00     0.032 A 
HETATM   16  C11 UNL     1      28.182   1.738  53.624  1.00  0.00     0.029 A 
HETATM   17  C12 UNL     1      29.322   1.004  53.893  1.00  0.00     0.002 A 
HETATM   18  C13 UNL     1      29.329  -0.345  53.643  1.00  0.00     0.000 A 
HETATM   19  C14 UNL     1      28.248  -1.032  53.127  1.00  0.00     0.002 A 
HETATM   20  C15 UNL     1      27.124  -0.266  52.870  1.00  0.00     0.029 A 
ENDBRANCH  13  15
ENDBRANCH   8  13
BRANCH   1  21
HETATM   21  N1  UNL     1      22.001   0.352  53.188  1.00  0.00    -0.312 N 
HETATM   22  C2  UNL     1      22.344  -0.757  54.032  1.00  0.00     0.219 C 
HETATM   23  C1  UNL     1      21.316  -1.692  54.539  1.00  0.00     0.117 C 
HETATM   24  O1  UNL     1      23.558  -0.907  54.328  1.00  0.00    -0.274 OA
HETATM   25  H4  UNL     1      20.955   0.390  52.989  1.00  0.00     0.170 HD
ENDBRANCH   1  21
TORSDOF 3
ENDMDL
MODEL 3
REMARK VINA RESULT:      -7.8      2.759      5.551
REMARK  3 active torsions:
REMARK  status: ('A' for Active; 'I' for Inactive)
REMARK       I    between atoms: C2_2  and  N1_4 
REMARK    1  A    between atoms: N1_4  and  C3_5 
REMARK    2  A    between atoms: C9_12  and  N2_13 
REMARK    3  A    between atoms: N2_13  and  C10_14 
ROOT
HETATM    1  C3  UNL     1      25.792   1.838  52.223  1.00  0.00     0.130 C 
HETATM    2  C4  UNL     1      24.860   0.825  52.477  1.00  0.00     0.053 C 
HETATM    3  C5  UNL     1      23.449   0.890  51.938  1.00  0.00     0.038 C 
HETATM    4  C6  UNL     1      22.623   1.930  51.654  1.00  0.00     0.071 C 
HETATM    5  C7  UNL     1      22.011   1.409  50.401  1.00  0.00     0.239 C 
HETATM    6  O2  UNL     1      22.241   2.431  49.372  1.00  0.00    -0.354 OA
HETATM    7  C8  UNL     1      23.359   3.270  49.075  1.00  0.00     0.166 C 
HETATM    8  C9  UNL     1      24.395   3.603  49.912  1.00  0.00     0.082 C 
HETATM    9  C16 UNL     1      24.440   3.744  51.410  1.00  0.00     0.089 C 
HETATM   10  N3  UNL     1      25.651   3.214  51.612  1.00  0.00    -0.231 NA
HETATM   11  C17 UNL     1      23.438   4.243  52.456  1.00  0.00     0.237 C 
HETATM   12  O3  UNL     1      22.414   3.178  52.364  1.00  0.00    -0.347 OA
ENDROOT
BRANCH   8  13
HETATM   13  N2  UNL     1      25.725   3.836  49.496  1.00  0.00    -0.353 N 
HETATM   14  H10 UNL     1      26.434   3.106  49.529  1.00  0.00     0.166 HD
BRANCH  13  15
HETATM   15  C10 UNL     1      26.528   4.874  48.962  1.00  0.00     0.032 A 
HETATM   16  C11 UNL     1      25.901   6.091  48.727  1.00  0.00     0.029 A 
HETATM   17  C12 UNL     1      26.641   7.139  48.212  1.00  0.00     0.002 A 
HETATM   18  C13 UNL     1      27.973   6.956  47.944  1.00  0.00     0.000 A 
HETATM   19  C14 UNL     1      28.640   5.765  48.161  1.00  0.00     0.002 A 
HETATM   20  C15 UNL     1      27.870   4.738  48.678  1.00  0.00     0.029 A 
ENDBRANCH  13  15
ENDBRANCH   8  13
BRANCH   1  21
HETATM   21  N1  UNL     1      27.026   1.319  52.635  1.00  0.00    -0.312 N 
HETATM   22  C2  UNL     1      28.125   1.622  53.505  1.00  0.00     0.219 C 
HETATM   23  C1  UNL     1      29.292   0.721  53.623  1.00  0.00     0.117 C 
HETATM   24  O1  UNL     1      28.063   2.690  54.169  1.00  0.00    -0.274 OA
HETATM   25  H4  UNL     1      27.174   0.402  52.113  1.00  0.00     0.170 HD
ENDBRANCH   1  21
TORSDOF 3
ENDMDL
MODEL 4
REMARK VINA RESULT:      -7.3      2.538      5.196
REMARK  3 active torsions:
REMARK  status: ('A' for Active; 'I' for Inactive)
REMARK       I    between atoms: C2_2  and  N1_4 
REMARK    1  A    between atoms: N1_4  and  C3_5 
REMARK    2  A    between atoms: C9_12  and  N2_13 
REMARK    3  A    between atoms: N2_13  and  C10_14 
ROOT
HETATM    1  C3  UNL     1      24.383  -0.003  53.594  1.00  0.00     0.130 C 
HETATM    2  C4  UNL     1      24.880  -0.333  54.861  1.00  0.00     0.053 C 
HETATM    3  C5  UNL     1      26.355  -0.246  55.183  1.00  0.00     0.038 C 
HETATM    4  C6  UNL     1      27.470  -0.402  54.423  1.00  0.00     0.071 C 
HETATM    5  C7  UNL     1      28.301   0.691  54.998  1.00  0.00     0.239 C 
HETATM    6  O2  UNL     1      28.698   1.545  53.873  1.00  0.00    -0.354 OA
HETATM    7  C8  UNL     1      28.001   2.001  52.711  1.00  0.00     0.166 C 
HETATM    8  C9  UNL     1      26.873   1.455  52.150  1.00  0.00     0.082 C 
HETATM    9  C16 UNL     1      26.376   0.034  52.129  1.00  0.00     0.089 C 
HETATM   10  N3  UNL     1      25.072   0.289  52.280  1.00  0.00    -0.231 NA
HETATM   11  C17 UNL     1      27.073  -1.328  52.048  1.00  0.00     0.237 C 
HETATM   12  O3  UNL     1      27.753  -1.351  53.363  1.00  0.00    -0.347 OA
ENDROOT
BRANCH   8  13
HETATM   13  N2  UNL     1      25.863   2.191  51.490  1.00  0.00    -0.353 N 
HETATM   14  H10 UNL     1      24.885   1.910  51.521  1.00  0.00     0.166 HD
BRANCH  13  15
HETATM   15  C10 UNL     1      25.714   3.355  50.696  1.00  0.00     0.032 A 
HETATM   16  C11 UNL     1      26.719   3.616  49.774  1.00  0.00     0.029 A 
HETATM   17  C12 UNL     1      26.619   4.737  48.971  1.00  0.00     0.002 A 
HETATM   18  C13 UNL     1      25.533   5.564  49.101  1.00  0.00     0.000 A 
HETATM   19  C14 UNL     1      24.510   5.346  50.003  1.00  0.00     0.002 A 
HETATM   20  C15 UNL     1      24.642   4.216  50.790  1.00  0.00     0.029 A 
ENDBRANCH  13  15
ENDBRANCH   8  13
BRANCH   1  21
HETATM   21  N1  UNL     1      22.992   0.059  53.746  1.00  0.00    -0.312 N 
HETATM   22  C2  UNL     1      21.913  -0.630  54.393  1.00  0.00     0.219 C 
HETATM   23  C1  UNL     1      20.512  -0.173  54.260  1.00  0.00     0.117 C 
HETATM   24  O1  UNL     1      22.201  -1.644  55.081  1.00  0.00    -0.274 OA
HETATM   25  H4  UNL     1      22.648   0.896  53.183  1.00  0.00     0.170 HD
ENDBRANCH   1  21
TORSDOF 3
ENDMDL
MODEL 5
REMARK VINA RESULT:      -7.3      3.002      5.716
REMARK  3 active torsions:
REMARK  status: ('A' for Active; 'I' for Inactive)
REMARK       I    between atoms: C2_2  and  N1_4 
REMARK    1  A    between atoms: N1_4  and  C3_5 
REMARK    2  A    between atoms: C9_12  and  N2_13 
REMARK    3  A    between atoms: N2_13  and  C10_14 
ROOT
HETATM    1  C3  UNL     1      25.644   5.841  49.870  1.00  0.00     0.130 C 
HETATM    2  C4  UNL     1      24.628   6.778  50.091  1.00  0.00     0.053 C 
HETATM    3  C5  UNL     1      23.279   6.374  50.642  1.00  0.00     0.038 C 
HETATM    4  C6  UNL     1      22.552   5.231  50.538  1.00  0.00     0.071 C 
HETATM    5  C7  UNL     1      22.024   5.161  51.927  1.00  0.00     0.239 C 
HETATM    6  O2  UNL     1      22.413   3.847  52.453  1.00  0.00    -0.354 OA
HETATM    7  C8  UNL     1      23.606   3.070  52.329  1.00  0.00     0.166 C 
HETATM    8  C9  UNL     1      24.581   3.190  51.370  1.00  0.00     0.082 C 
HETATM    9  C16 UNL     1      24.499   3.649  49.939  1.00  0.00     0.089 C 
HETATM   10  N3  UNL     1      25.649   4.329  49.894  1.00  0.00    -0.231 NA
HETATM   11  C17 UNL     1      23.441   3.502  48.841  1.00  0.00     0.237 C 
HETATM   12  O3  UNL     1      22.362   4.344  49.405  1.00  0.00    -0.347 OA
ENDROOT
BRANCH   8  13
HETATM   13  N2  UNL     1      25.956   2.943  51.583  1.00  0.00    -0.353 N 
HETATM   14  H10 UNL     1      26.675   3.578  51.243  1.00  0.00     0.166 HD
BRANCH  13  15
HETATM   15  C10 UNL     1      26.803   1.991  52.202  1.00  0.00     0.032 A 
HETATM   16  C11 UNL     1      26.501   0.652  51.986  1.00  0.00     0.029 A 
HETATM   17  C12 UNL     1      27.299  -0.318  52.563  1.00  0.00     0.002 A 
HETATM   18  C13 UNL     1      28.369   0.060  53.334  1.00  0.00     0.000 A 
HETATM   19  C14 UNL     1      28.708   1.377  53.577  1.00  0.00     0.002 A 
HETATM   20  C15 UNL     1      27.888   2.322  52.984  1.00  0.00     0.029 A 
ENDBRANCH  13  15
ENDBRANCH   8  13
BRANCH   1  21
HETATM   21  N1  UNL     1      26.798   6.596  49.626  1.00  0.00    -0.312 N 
HETATM   22  C2  UNL     1      27.450   7.324  48.576  1.00  0.00     0.219 C 
HETATM   23  C1  UNL     1      28.745   8.005  48.794  1.00  0.00     0.117 C 
HETATM   24  O1  UNL     1      26.879   7.362  47.456  1.00  0.00    -0.274 OA
HETATM   25  H4  UNL     1      27.361   6.615  50.531  1.00  0.00     0.170 HD
ENDBRANCH   1  21
TORSDOF 3
ENDMDL
MODEL 6
REMARK VINA RESULT:      -7.2      6.515      9.750
REMARK  3 active torsions:
REMARK  status: ('A' for Active; 'I' for Inactive)
REMARK       I    between atoms: C2_2  and  N1_4 
REMARK    1  A    between atoms: N1_4  and  C3_5 
REMARK    2  A    between atoms: C9_12  and  N2_13 
REMARK    3  A    between atoms: N2_13  and  C10_14 
ROOT
HETATM    1  C3  UNL     1      31.359   5.949  47.936  1.00  0.00     0.130 C 
HETATM    2  C4  UNL     1      32.307   6.908  48.312  1.00  0.00     0.053 C 
HETATM    3  C5  UNL     1      31.922   8.346  48.576  1.00  0.00     0.038 C 
HETATM    4  C6  UNL     1      30.944   9.141  48.069  1.00  0.00     0.071 C 
HETATM    5  C7  UNL     1      30.552   9.854  49.315  1.00  0.00     0.239 C 
HETATM    6  O2  UNL     1      29.108   9.644  49.475  1.00  0.00    -0.354 OA
HETATM    7  C8  UNL     1      28.264   8.511  49.257  1.00  0.00     0.166 C 
HETATM    8  C9  UNL     1      28.534   7.410  48.483  1.00  0.00     0.082 C 
HETATM    9  C16 UNL     1      29.380   7.263  47.246  1.00  0.00     0.089 C 
HETATM   10  N3  UNL     1      29.909   6.067  47.521  1.00  0.00    -0.231 NA
HETATM   11  C17 UNL     1      29.666   8.173  46.047  1.00  0.00     0.237 C 
HETATM   12  O3  UNL     1      30.436   9.248  46.715  1.00  0.00    -0.347 OA
ENDROOT
BRANCH   8  13
HETATM   13  N2  UNL     1      28.083   6.100  48.758  1.00  0.00    -0.353 N 
HETATM   14  H10 UNL     1      28.729   5.324  48.890  1.00  0.00     0.166 HD
BRANCH  13  15
HETATM   15  C10 UNL     1      26.872   5.389  48.953  1.00  0.00     0.032 A 
HETATM   16  C11 UNL     1      25.694   6.082  48.707  1.00  0.00     0.029 A 
HETATM   17  C12 UNL     1      24.485   5.433  48.877  1.00  0.00     0.002 A 
HETATM   18  C13 UNL     1      24.475   4.124  49.285  1.00  0.00     0.000 A 
HETATM   19  C14 UNL     1      25.619   3.394  49.542  1.00  0.00     0.002 A 
HETATM   20  C15 UNL     1      26.812   4.074  49.361  1.00  0.00     0.029 A 
ENDBRANCH  13  15
ENDBRANCH   8  13
BRANCH   1  21
HETATM   21  N1  UNL     1      32.015   4.716  48.045  1.00  0.00    -0.312 N 
HETATM   22  C2  UNL     1      32.532   3.656  47.229  1.00  0.00     0.219 C 
HETATM   23  C1  UNL     1      33.185   2.469  47.824  1.00  0.00     0.117 C 
HETATM   24  O1  UNL     1      32.410   3.771  45.982  1.00  0.00    -0.274 OA
HETATM   25  H4  UNL     1      32.159   4.524  49.084  1.00  0.00     0.170 HD
ENDBRANCH   1  21
TORSDOF 3
ENDMDL
MODEL 7
REMARK VINA RESULT:      -6.9      7.493      9.218
REMARK  3 active torsions:
REMARK  status: ('A' for Active; 'I' for Inactive)
REMARK       I    between atoms: C2_2  and  N1_4 
REMARK    1  A    between atoms: N1_4  and  C3_5 
REMARK    2  A    between atoms: C9_12  and  N2_13 
REMARK    3  A    between atoms: N2_13  and  C10_14 
ROOT
HETATM    1  C3  UNL     1      29.112   6.550  48.296  1.00  0.00     0.130 C 
HETATM    2  C4  UNL     1      28.379   7.200  47.296  1.00  0.00     0.053 C 
HETATM    3  C5  UNL     1      28.980   8.313  46.466  1.00  0.00     0.038 C 
HETATM    4  C6  UNL     1      29.929   9.247  46.735  1.00  0.00     0.071 C 
HETATM    5  C7  UNL     1      30.641   9.240  45.428  1.00  0.00     0.239 C 
HETATM    6  O2  UNL     1      32.052   8.967  45.727  1.00  0.00    -0.354 OA
HETATM    7  C8  UNL     1      32.693   8.087  46.653  1.00  0.00     0.166 C 
HETATM    8  C9  UNL     1      32.145   7.521  47.777  1.00  0.00     0.082 C 
HETATM    9  C16 UNL     1      31.062   8.018  48.698  1.00  0.00     0.089 C 
HETATM   10  N3  UNL     1      30.456   6.847  48.923  1.00  0.00    -0.231 NA
HETATM   11  C17 UNL     1      30.659   9.406  49.204  1.00  0.00     0.237 C 
HETATM   12  O3  UNL     1      30.172  10.010  47.943  1.00  0.00    -0.347 OA
ENDROOT
BRANCH   8  13
HETATM   13  N2  UNL     1      32.479   6.245  48.283  1.00  0.00    -0.353 N 
HETATM   14  H10 UNL     1      32.361   6.008  49.266  1.00  0.00     0.166 HD
BRANCH  13  15
HETATM   15  C10 UNL     1      32.982   4.998  47.833  1.00  0.00     0.032 A 
HETATM   16  C11 UNL     1      32.077   4.147  47.213  1.00  0.00     0.029 A 
HETATM   17  C12 UNL     1      32.517   2.921  46.751  1.00  0.00     0.002 A 
HETATM   18  C13 UNL     1      33.833   2.572  46.914  1.00  0.00     0.000 A 
HETATM   19  C14 UNL     1      34.769   3.384  47.524  1.00  0.00     0.002 A 
HETATM   20  C15 UNL     1      34.295   4.604  47.974  1.00  0.00     0.029 A 
ENDBRANCH  13  15
ENDBRANCH   8  13
BRANCH   1  21
HETATM   21  N1  UNL     1      28.346   5.432  48.649  1.00  0.00    -0.312 N 
HETATM   22  C2  UNL     1      27.056   5.089  49.175  1.00  0.00     0.219 C 
HETATM   23  C1  UNL     1      26.659   3.681  49.398  1.00  0.00     0.117 C 
HETATM   24  O1  UNL     1      26.268   6.033  49.442  1.00  0.00    -0.274 OA
HETATM   25  H4  UNL     1      28.941   4.567  48.462  1.00  0.00     0.170 HD
ENDBRANCH   1  21
TORSDOF 3
ENDMDL
MODEL 8
REMARK VINA RESULT:      -6.8      2.380      6.322
REMARK  3 active torsions:
REMARK  status: ('A' for Active; 'I' for Inactive)
REMARK       I    between atoms: C2_2  and  N1_4 
REMARK    1  A    between atoms: N1_4  and  C3_5 
REMARK    2  A    between atoms: C9_12  and  N2_13 
REMARK    3  A    between atoms: N2_13  and  C10_14 
ROOT
HETATM    1  C3  UNL     1      24.715   3.065  50.886  1.00  0.00     0.130 C 
HETATM    2  C4  UNL     1      26.039   2.727  50.580  1.00  0.00     0.053 C 
HETATM    3  C5  UNL     1      26.790   1.671  51.359  1.00  0.00     0.038 C 
HETATM    4  C6  UNL     1      26.714   1.257  52.650  1.00  0.00     0.071 C 
HETATM    5  C7  UNL     1      26.880  -0.207  52.438  1.00  0.00     0.239 C 
HETATM    6  O2  UNL     1      25.720  -0.851  53.064  1.00  0.00    -0.354 OA
HETATM    7  C8  UNL     1      24.334  -0.505  53.120  1.00  0.00     0.166 C 
HETATM    8  C9  UNL     1      23.776   0.731  52.906  1.00  0.00     0.082 C 
HETATM    9  C16 UNL     1      24.330   2.112  53.136  1.00  0.00     0.089 C 
HETATM   10  N3  UNL     1      23.820   2.702  52.050  1.00  0.00    -0.231 NA
HETATM   11  C17 UNL     1      25.254   2.716  54.198  1.00  0.00     0.237 C 
HETATM   12  O3  UNL     1      26.519   2.022  53.866  1.00  0.00    -0.347 OA
ENDROOT
BRANCH   8  13
HETATM   13  N2  UNL     1      22.505   0.953  52.330  1.00  0.00    -0.353 N 
HETATM   14  H10 UNL     1      22.352   1.670  51.623  1.00  0.00     0.166 HD
BRANCH  13  15
HETATM   15  C10 UNL     1      21.183   0.447  52.392  1.00  0.00     0.032 A 
HETATM   16  C11 UNL     1      20.355   0.726  51.312  1.00  0.00     0.029 A 
HETATM   17  C12 UNL     1      19.057   0.250  51.320  1.00  0.00     0.002 A 
HETATM   18  C13 UNL     1      18.615  -0.484  52.391  1.00  0.00     0.000 A 
HETATM   19  C14 UNL     1      19.400  -0.786  53.487  1.00  0.00     0.002 A 
HETATM   20  C15 UNL     1      20.694  -0.295  53.445  1.00  0.00     0.029 A 
ENDBRANCH  13  15
ENDBRANCH   8  13
BRANCH   1  21
HETATM   21  N1  UNL     1      24.277   3.855  49.815  1.00  0.00    -0.312 N 
HETATM   22  C2  UNL     1      23.816   5.183  49.528  1.00  0.00     0.219 C 
HETATM   23  C1  UNL     1      23.437   5.592  48.158  1.00  0.00     0.117 C 
HETATM   24  O1  UNL     1      23.745   5.992  50.489  1.00  0.00    -0.274 OA
HETATM   25  H4  UNL     1      24.296   3.243  48.942  1.00  0.00     0.170 HD
ENDBRANCH   1  21
TORSDOF 3
ENDMDL
MODEL 9
REMARK VINA RESULT:      -6.8      2.615      5.086
REMARK  3 active torsions:
REMARK  status: ('A' for Active; 'I' for Inactive)
REMARK       I    between atoms: C2_2  and  N1_4 
REMARK    1  A    between atoms: N1_4  and  C3_5 
REMARK    2  A    between atoms: C9_12  and  N2_13 
REMARK    3  A    between atoms: N2_13  and  C10_14 
ROOT
HETATM    1  C3  UNL     1      22.772   0.967  52.307  1.00  0.00     0.130 C 
HETATM    2  C4  UNL     1      21.649   0.138  52.419  1.00  0.00     0.053 C 
HETATM    3  C5  UNL     1      20.347   0.464  51.725  1.00  0.00     0.038 C 
HETATM    4  C6  UNL     1      19.760   1.641  51.382  1.00  0.00     0.071 C 
HETATM    5  C7  UNL     1      19.217   1.254  50.051  1.00  0.00     0.239 C 
HETATM    6  O2  UNL     1      19.747   2.227  49.089  1.00  0.00    -0.354 OA
HETATM    7  C8  UNL     1      21.024   2.853  48.949  1.00  0.00     0.166 C 
HETATM    8  C9  UNL     1      21.997   2.983  49.909  1.00  0.00     0.082 C 
HETATM    9  C16 UNL     1      21.889   3.096  51.407  1.00  0.00     0.089 C 
HETATM   10  N3  UNL     1      22.953   2.353  51.728  1.00  0.00    -0.231 NA
HETATM   11  C17 UNL     1      20.876   3.757  52.346  1.00  0.00     0.237 C 
HETATM   12  O3  UNL     1      19.696   2.897  52.104  1.00  0.00    -0.347 OA
ENDROOT
BRANCH   8  13
HETATM   13  N2  UNL     1      23.387   2.974  49.656  1.00  0.00    -0.353 N 
HETATM   14  H10 UNL     1      23.923   2.109  49.630  1.00  0.00     0.166 HD
BRANCH  13  15
HETATM   15  C10 UNL     1      24.443   3.876  49.374  1.00  0.00     0.032 A 
HETATM   16  C11 UNL     1      25.735   3.399  49.551  1.00  0.00     0.029 A 
HETATM   17  C12 UNL     1      26.803   4.236  49.284  1.00  0.00     0.002 A 
HETATM   18  C13 UNL     1      26.563   5.516  48.852  1.00  0.00     0.000 A 
HETATM   19  C14 UNL     1      25.297   6.035  48.662  1.00  0.00     0.002 A 
HETATM   20  C15 UNL     1      24.252   5.169  48.938  1.00  0.00     0.029 A 
ENDBRANCH  13  15
ENDBRANCH   8  13
BRANCH   1  21
HETATM   21  N1  UNL     1      23.835   0.228  52.840  1.00  0.00    -0.312 N 
HETATM   22  C2  UNL     1      25.096   0.410  53.498  1.00  0.00     0.219 C 
HETATM   23  C1  UNL     1      25.933  -0.741  53.902  1.00  0.00     0.117 C 
HETATM   24  O1  UNL     1      25.469   1.591  53.722  1.00  0.00    -0.274 OA
HETATM   25  H4  UNL     1      23.611  -0.803  52.689  1.00  0.00     0.170 HD
ENDBRANCH   1  21
TORSDOF 3
ENDMDL
