MODEL 1
REMARK VINA RESULT:      -8.6      0.000      0.000
REMARK  4 active torsions:
REMARK  status: ('A' for Active; 'I' for Inactive)
REMARK    1  A    between atoms: C1_2  and  C2_3 
REMARK       I    between atoms: C1_2  and  N1_11 
REMARK    2  A    between atoms: C2_3  and  C3_4 
REMARK    3  A    between atoms: N1_11  and  S1_12 
REMARK    4  A    between atoms: S1_12  and  C9_15 
ROOT
HETATM    1  O1  UNL     1      25.038   2.008  51.400  1.00  0.00    -0.272 OA
HETATM    2  C1  UNL     1      24.720   2.160  52.631  1.00  0.00     0.235 C 
HETATM    3  N1  UNL     1      25.781   2.224  53.599  1.00  0.00    -0.250 N 
HETATM    4  H7  UNL     1      25.336   2.339  54.533  1.00  0.00     0.181 HD
ENDROOT
BRANCH   3   5
HETATM    5  S1  UNL     1      27.427   2.108  53.029  1.00  0.00     0.265 S 
HETATM    6  O2  UNL     1      28.327   2.791  54.029  1.00  0.00    -0.200 OA
HETATM    7  O3  UNL     1      27.476   2.685  51.673  1.00  0.00    -0.200 OA
BRANCH   5   8
HETATM    8  C9  UNL     1      27.782   0.369  53.058  1.00  0.00     0.080 A 
HETATM    9  C10 UNL     1      29.033   0.033  53.534  1.00  0.00     0.028 A 
HETATM   10  C11 UNL     1      29.370  -1.300  53.571  1.00  0.00     0.044 A 
HETATM   11  C12 UNL     1      28.435  -2.242  53.126  1.00  0.00     0.116 A 
HETATM   12  F2  UNL     1      28.842  -3.541  53.196  1.00  0.00    -0.206 F 
HETATM   13  C13 UNL     1      27.185  -1.854  52.653  1.00  0.00     0.044 A 
HETATM   14  C14 UNL     1      26.823  -0.514  52.607  1.00  0.00     0.028 A 
ENDBRANCH   5   8
ENDBRANCH   3   5
BRANCH   2  15
HETATM   15  C2  UNL     1      23.253   2.227  52.671  1.00  0.00     0.145 C 
BRANCH  15  16
HETATM   16  C3  UNL     1      22.637   0.980  53.193  1.00  0.00    -0.011 A 
HETATM   17  C4  UNL     1      23.245  -0.224  53.529  1.00  0.00     0.011 A 
HETATM   18  C5  UNL     1      22.423  -1.228  53.982  1.00  0.00     0.001 A 
HETATM   19  C6  UNL     1      21.044  -1.091  54.113  1.00  0.00     0.003 A 
HETATM   20  C7  UNL     1      20.439   0.118  53.775  1.00  0.00     0.043 A 
HETATM   21  C8  UNL     1      21.271   1.145  53.313  1.00  0.00     0.123 A 
HETATM   22  F1  UNL     1      20.551   2.254  53.026  1.00  0.00    -0.206 F 
ENDBRANCH  15  16
ENDBRANCH   2  15
TORSDOF 4
ENDMDL
MODEL 2
REMARK VINA RESULT:      -8.4      3.509      6.473
REMARK  4 active torsions:
REMARK  status: ('A' for Active; 'I' for Inactive)
REMARK    1  A    between atoms: C1_2  and  C2_3 
REMARK       I    between atoms: C1_2  and  N1_11 
REMARK    2  A    between atoms: C2_3  and  C3_4 
REMARK    3  A    between atoms: N1_11  and  S1_12 
REMARK    4  A    between atoms: S1_12  and  C9_15 
ROOT
HETATM    1  O1  UNL     1      23.808   0.695  53.124  1.00  0.00    -0.272 OA
HETATM    2  C1  UNL     1      24.984   0.575  52.631  1.00  0.00     0.235 C 
HETATM    3  N1  UNL     1      25.442   1.593  51.724  1.00  0.00    -0.250 N 
HETATM    4  H7  UNL     1      26.401   1.325  51.424  1.00  0.00     0.181 HD
ENDROOT
BRANCH   3   5
HETATM    5  S1  UNL     1      24.373   2.928  51.374  1.00  0.00     0.265 S 
HETATM    6  O2  UNL     1      24.075   3.651  52.664  1.00  0.00    -0.200 OA
HETATM    7  O3  UNL     1      23.184   2.386  50.692  1.00  0.00    -0.200 OA
BRANCH   5   8
HETATM    8  C9  UNL     1      25.336   4.005  50.343  1.00  0.00     0.080 A 
HETATM    9  C10 UNL     1      26.446   3.425  49.763  1.00  0.00     0.028 A 
HETATM   10  C11 UNL     1      27.238   4.213  48.961  1.00  0.00     0.044 A 
HETATM   11  C12 UNL     1      26.882   5.553  48.774  1.00  0.00     0.116 A 
HETATM   12  F2  UNL     1      27.713   6.267  47.964  1.00  0.00    -0.206 F 
HETATM   13  C13 UNL     1      25.751   6.094  49.380  1.00  0.00     0.044 A 
HETATM   14  C14 UNL     1      24.937   5.317  50.194  1.00  0.00     0.028 A 
ENDBRANCH   5   8
ENDBRANCH   3   5
BRANCH   2  15
HETATM   15  C2  UNL     1      25.540  -0.665  53.190  1.00  0.00     0.145 C 
BRANCH  15  16
HETATM   16  C3  UNL     1      26.989  -0.555  53.498  1.00  0.00    -0.011 A 
HETATM   17  C4  UNL     1      27.665   0.444  54.188  1.00  0.00     0.011 A 
HETATM   18  C5  UNL     1      29.025   0.295  54.318  1.00  0.00     0.001 A 
HETATM   19  C6  UNL     1      29.732  -0.786  53.800  1.00  0.00     0.003 A 
HETATM   20  C7  UNL     1      29.051  -1.785  53.109  1.00  0.00     0.043 A 
HETATM   21  C8  UNL     1      27.664  -1.639  52.972  1.00  0.00     0.123 A 
HETATM   22  F1  UNL     1      27.137  -2.678  52.284  1.00  0.00    -0.206 F 
ENDBRANCH  15  16
ENDBRANCH   2  15
TORSDOF 4
ENDMDL
MODEL 3
REMARK VINA RESULT:      -8.1      3.920      5.657
REMARK  4 active torsions:
REMARK  status: ('A' for Active; 'I' for Inactive)
REMARK    1  A    between atoms: C1_2  and  C2_3 
REMARK       I    between atoms: C1_2  and  N1_11 
REMARK    2  A    between atoms: C2_3  and  C3_4 
REMARK    3  A    between atoms: N1_11  and  S1_12 
REMARK    4  A    between atoms: S1_12  and  C9_15 
ROOT
HETATM    1  O1  UNL     1      27.325   2.801  51.593  1.00  0.00    -0.272 OA
HETATM    2  C1  UNL     1      26.318   2.510  50.857  1.00  0.00     0.235 C 
HETATM    3  N1  UNL     1      25.222   1.802  51.463  1.00  0.00    -0.250 N 
HETATM    4  H7  UNL     1      24.510   1.647  50.719  1.00  0.00     0.181 HD
ENDROOT
BRANCH   3   5
HETATM    5  S1  UNL     1      25.332   1.406  53.159  1.00  0.00     0.265 S 
HETATM    6  O2  UNL     1      24.064   0.699  53.566  1.00  0.00    -0.200 OA
HETATM    7  O3  UNL     1      25.596   2.655  53.897  1.00  0.00    -0.200 OA
BRANCH   5   8
HETATM    8  C9  UNL     1      26.671   0.246  53.255  1.00  0.00     0.080 A 
HETATM    9  C10 UNL     1      27.705   0.610  54.094  1.00  0.00     0.028 A 
HETATM   10  C11 UNL     1      28.777  -0.245  54.202  1.00  0.00     0.044 A 
HETATM   11  C12 UNL     1      28.767  -1.432  53.460  1.00  0.00     0.116 A 
HETATM   12  F2  UNL     1      29.862  -2.227  53.623  1.00  0.00    -0.206 F 
HETATM   13  C13 UNL     1      27.701  -1.756  52.626  1.00  0.00     0.044 A 
HETATM   14  C14 UNL     1      26.608  -0.908  52.502  1.00  0.00     0.028 A 
ENDBRANCH   5   8
ENDBRANCH   3   5
BRANCH   2  15
HETATM   15  C2  UNL     1      26.623   3.031  49.517  1.00  0.00     0.145 C 
BRANCH  15  16
HETATM   16  C3  UNL     1      26.401   4.495  49.408  1.00  0.00    -0.011 A 
HETATM   17  C4  UNL     1      25.353   5.263  49.902  1.00  0.00     0.011 A 
HETATM   18  C5  UNL     1      25.396   6.612  49.641  1.00  0.00     0.001 A 
HETATM   19  C6  UNL     1      26.419   7.222  48.921  1.00  0.00     0.003 A 
HETATM   20  C7  UNL     1      27.468   6.449  48.428  1.00  0.00     0.043 A 
HETATM   21  C8  UNL     1      27.430   5.074  48.690  1.00  0.00     0.123 A 
HETATM   22  F1  UNL     1      28.507   4.453  48.156  1.00  0.00    -0.206 F 
ENDBRANCH  15  16
ENDBRANCH   2  15
TORSDOF 4
ENDMDL
MODEL 4
REMARK VINA RESULT:      -8.0      2.639      6.012
REMARK  4 active torsions:
REMARK  status: ('A' for Active; 'I' for Inactive)
REMARK    1  A    between atoms: C1_2  and  C2_3 
REMARK       I    between atoms: C1_2  and  N1_11 
REMARK    2  A    between atoms: C2_3  and  C3_4 
REMARK    3  A    between atoms: N1_11  and  S1_12 
REMARK    4  A    between atoms: S1_12  and  C9_15 
ROOT
HETATM    1  O1  UNL     1      24.855   3.038  52.986  1.00  0.00    -0.272 OA
HETATM    2  C1  UNL     1      25.058   2.576  51.809  1.00  0.00     0.235 C 
HETATM    3  N1  UNL     1      23.911   2.291  50.989  1.00  0.00    -0.250 N 
HETATM    4  H7  UNL     1      24.268   1.921  50.084  1.00  0.00     0.181 HD
ENDROOT
BRANCH   3   5
HETATM    5  S1  UNL     1      22.326   2.611  51.647  1.00  0.00     0.265 S 
HETATM    6  O2  UNL     1      21.333   2.624  50.511  1.00  0.00    -0.200 OA
HETATM    7  O3  UNL     1      22.399   3.872  52.406  1.00  0.00    -0.200 OA
BRANCH   5   8
HETATM    8  C9  UNL     1      21.982   1.203  52.670  1.00  0.00     0.080 A 
HETATM    9  C10 UNL     1      22.918   0.191  52.611  1.00  0.00     0.028 A 
HETATM   10  C11 UNL     1      22.700  -0.932  53.375  1.00  0.00     0.044 A 
HETATM   11  C12 UNL     1      21.548  -0.993  54.168  1.00  0.00     0.116 A 
HETATM   12  F2  UNL     1      21.405  -2.135  54.897  1.00  0.00    -0.206 F 
HETATM   13  C13 UNL     1      20.632   0.055  54.194  1.00  0.00     0.044 A 
HETATM   14  C14 UNL     1      20.831   1.198  53.431  1.00  0.00     0.028 A 
ENDBRANCH   5   8
ENDBRANCH   3   5
BRANCH   2  15
HETATM   15  C2  UNL     1      26.515   2.473  51.654  1.00  0.00     0.145 C 
BRANCH  15  16
HETATM   16  C3  UNL     1      27.072   1.241  52.268  1.00  0.00    -0.011 A 
HETATM   17  C4  UNL     1      26.655  -0.077  52.121  1.00  0.00     0.011 A 
HETATM   18  C5  UNL     1      27.353  -1.030  52.825  1.00  0.00     0.001 A 
HETATM   19  C6  UNL     1      28.429  -0.734  53.657  1.00  0.00     0.003 A 
HETATM   20  C7  UNL     1      28.843   0.588  53.801  1.00  0.00     0.043 A 
HETATM   21  C8  UNL     1      28.136   1.563  53.087  1.00  0.00     0.123 A 
HETATM   22  F1  UNL     1      28.647   2.795  53.321  1.00  0.00    -0.206 F 
ENDBRANCH  15  16
ENDBRANCH   2  15
TORSDOF 4
ENDMDL
MODEL 5
REMARK VINA RESULT:      -7.9      3.759      5.546
REMARK  4 active torsions:
REMARK  status: ('A' for Active; 'I' for Inactive)
REMARK    1  A    between atoms: C1_2  and  C2_3 
REMARK       I    between atoms: C1_2  and  N1_11 
REMARK    2  A    between atoms: C2_3  and  C3_4 
REMARK    3  A    between atoms: N1_11  and  S1_12 
REMARK    4  A    between atoms: S1_12  and  C9_15 
ROOT
HETATM    1  O1  UNL     1      23.951   3.464  51.626  1.00  0.00    -0.272 OA
HETATM    2  C1  UNL     1      24.868   3.084  50.817  1.00  0.00     0.235 C 
HETATM    3  N1  UNL     1      25.830   2.124  51.288  1.00  0.00    -0.250 N 
HETATM    4  H7  UNL     1      26.492   1.946  50.506  1.00  0.00     0.181 HD
ENDROOT
BRANCH   3   5
HETATM    5  S1  UNL     1      25.670   1.532  52.922  1.00  0.00     0.265 S 
HETATM    6  O2  UNL     1      24.574   0.496  52.948  1.00  0.00    -0.200 OA
HETATM    7  O3  UNL     1      25.432   2.691  53.801  1.00  0.00    -0.200 OA
BRANCH   5   8
HETATM    8  C9  UNL     1      27.212   0.717  53.248  1.00  0.00     0.080 A 
HETATM    9  C10 UNL     1      27.243  -0.628  52.939  1.00  0.00     0.028 A 
HETATM   10  C11 UNL     1      28.409  -1.317  53.179  1.00  0.00     0.044 A 
HETATM   11  C12 UNL     1      29.498  -0.626  53.723  1.00  0.00     0.116 A 
HETATM   12  F2  UNL     1      30.617  -1.375  53.930  1.00  0.00    -0.206 F 
HETATM   13  C13 UNL     1      29.419   0.732  54.019  1.00  0.00     0.044 A 
HETATM   14  C14 UNL     1      28.252   1.448  53.785  1.00  0.00     0.028 A 
ENDBRANCH   5   8
ENDBRANCH   3   5
BRANCH   2  15
HETATM   15  C2  UNL     1      24.632   3.807  49.559  1.00  0.00     0.145 C 
BRANCH  15  16
HETATM   16  C3  UNL     1      25.807   4.605  49.127  1.00  0.00    -0.011 A 
HETATM   17  C4  UNL     1      27.134   4.212  48.999  1.00  0.00     0.011 A 
HETATM   18  C5  UNL     1      28.028   5.172  48.585  1.00  0.00     0.001 A 
HETATM   19  C6  UNL     1      27.665   6.484  48.298  1.00  0.00     0.003 A 
HETATM   20  C7  UNL     1      26.334   6.874  48.428  1.00  0.00     0.043 A 
HETATM   21  C8  UNL     1      25.419   5.901  48.849  1.00  0.00     0.123 A 
HETATM   22  F1  UNL     1      24.171   6.417  48.928  1.00  0.00    -0.206 F 
ENDBRANCH  15  16
ENDBRANCH   2  15
TORSDOF 4
ENDMDL
MODEL 6
REMARK VINA RESULT:      -7.8      4.321      6.765
REMARK  4 active torsions:
REMARK  status: ('A' for Active; 'I' for Inactive)
REMARK    1  A    between atoms: C1_2  and  C2_3 
REMARK       I    between atoms: C1_2  and  N1_11 
REMARK    2  A    between atoms: C2_3  and  C3_4 
REMARK    3  A    between atoms: N1_11  and  S1_12 
REMARK    4  A    between atoms: S1_12  and  C9_15 
ROOT
HETATM    1  O1  UNL     1      24.190   2.639  53.192  1.00  0.00    -0.272 OA
HETATM    2  C1  UNL     1      25.445   2.496  52.980  1.00  0.00     0.235 C 
HETATM    3  N1  UNL     1      25.988   3.027  51.759  1.00  0.00    -0.250 N 
HETATM    4  H7  UNL     1      27.006   2.810  51.758  1.00  0.00     0.181 HD
ENDROOT
BRANCH   3   5
HETATM    5  S1  UNL     1      24.905   3.846  50.662  1.00  0.00     0.265 S 
HETATM    6  O2  UNL     1      24.033   4.781  51.462  1.00  0.00    -0.200 OA
HETATM    7  O3  UNL     1      24.164   2.817  49.910  1.00  0.00    -0.200 OA
BRANCH   5   8
HETATM    8  C9  UNL     1      25.973   4.823  49.635  1.00  0.00     0.080 A 
HETATM    9  C10 UNL     1      25.483   6.068  49.297  1.00  0.00     0.028 A 
HETATM   10  C11 UNL     1      26.262   6.868  48.493  1.00  0.00     0.044 A 
HETATM   11  C12 UNL     1      27.502   6.383  48.061  1.00  0.00     0.116 A 
HETATM   12  F2  UNL     1      28.215   7.234  47.272  1.00  0.00    -0.206 F 
HETATM   13  C13 UNL     1      27.953   5.119  48.430  1.00  0.00     0.044 A 
HETATM   14  C14 UNL     1      27.184   4.294  49.240  1.00  0.00     0.028 A 
ENDBRANCH   5   8
ENDBRANCH   3   5
BRANCH   2  15
HETATM   15  C2  UNL     1      25.979   1.774  54.144  1.00  0.00     0.145 C 
BRANCH  15  16
HETATM   16  C3  UNL     1      26.981   0.744  53.769  1.00  0.00    -0.011 A 
HETATM   17  C4  UNL     1      26.779  -0.569  53.361  1.00  0.00     0.011 A 
HETATM   18  C5  UNL     1      27.901  -1.313  53.084  1.00  0.00     0.001 A 
HETATM   19  C6  UNL     1      29.197  -0.815  53.193  1.00  0.00     0.003 A 
HETATM   20  C7  UNL     1      29.395   0.502  53.602  1.00  0.00     0.043 A 
HETATM   21  C8  UNL     1      28.255   1.264  53.886  1.00  0.00     0.123 A 
HETATM   22  F1  UNL     1      28.597   2.517  54.267  1.00  0.00    -0.206 F 
ENDBRANCH  15  16
ENDBRANCH   2  15
TORSDOF 4
ENDMDL
MODEL 7
REMARK VINA RESULT:      -7.6      3.168      5.732
REMARK  4 active torsions:
REMARK  status: ('A' for Active; 'I' for Inactive)
REMARK    1  A    between atoms: C1_2  and  C2_3 
REMARK       I    between atoms: C1_2  and  N1_11 
REMARK    2  A    between atoms: C2_3  and  C3_4 
REMARK    3  A    between atoms: N1_11  and  S1_12 
REMARK    4  A    between atoms: S1_12  and  C9_15 
ROOT
HETATM    1  O1  UNL     1      26.427   0.258  51.616  1.00  0.00    -0.272 OA
HETATM    2  C1  UNL     1      26.382   1.299  52.360  1.00  0.00     0.235 C 
HETATM    3  N1  UNL     1      25.967   1.135  53.727  1.00  0.00    -0.250 N 
HETATM    4  H7  UNL     1      25.983   2.078  54.166  1.00  0.00     0.181 HD
ENDROOT
BRANCH   3   5
HETATM    5  S1  UNL     1      25.572  -0.472  54.282  1.00  0.00     0.265 S 
HETATM    6  O2  UNL     1      25.849  -0.545  55.764  1.00  0.00    -0.200 OA
HETATM    7  O3  UNL     1      26.344  -1.431  53.471  1.00  0.00    -0.200 OA
BRANCH   5   8
HETATM    8  C9  UNL     1      23.820  -0.605  54.037  1.00  0.00     0.080 A 
HETATM    9  C10 UNL     1      23.135  -1.261  55.040  1.00  0.00     0.028 A 
HETATM   10  C11 UNL     1      21.774  -1.405  54.901  1.00  0.00     0.044 A 
HETATM   11  C12 UNL     1      21.157  -0.885  53.757  1.00  0.00     0.116 A 
HETATM   12  F2  UNL     1      19.807  -1.064  53.694  1.00  0.00    -0.206 F 
HETATM   13  C13 UNL     1      21.891  -0.231  52.772  1.00  0.00     0.044 A 
HETATM   14  C14 UNL     1      23.265  -0.074  52.891  1.00  0.00     0.028 A 
ENDBRANCH   5   8
ENDBRANCH   3   5
BRANCH   2  15
HETATM   15  C2  UNL     1      26.800   2.426  51.515  1.00  0.00     0.145 C 
BRANCH  15  16
HETATM   16  C3  UNL     1      25.653   3.124  50.881  1.00  0.00    -0.011 A 
HETATM   17  C4  UNL     1      24.299   3.039  51.184  1.00  0.00     0.011 A 
HETATM   18  C5  UNL     1      23.444   3.796  50.419  1.00  0.00     0.001 A 
HETATM   19  C6  UNL     1      23.869   4.620  49.381  1.00  0.00     0.003 A 
HETATM   20  C7  UNL     1      25.226   4.702  49.080  1.00  0.00     0.043 A 
HETATM   21  C8  UNL     1      26.103   3.933  49.856  1.00  0.00     0.123 A 
HETATM   22  F1  UNL     1      27.383   4.112  49.455  1.00  0.00    -0.206 F 
ENDBRANCH  15  16
ENDBRANCH   2  15
TORSDOF 4
ENDMDL
MODEL 8
REMARK VINA RESULT:      -7.5      2.380      6.727
REMARK  4 active torsions:
REMARK  status: ('A' for Active; 'I' for Inactive)
REMARK    1  A    between atoms: C1_2  and  C2_3 
REMARK       I    between atoms: C1_2  and  N1_11 
REMARK    2  A    between atoms: C2_3  and  C3_4 
REMARK    3  A    between atoms: N1_11  and  S1_12 
REMARK    4  A    between atoms: S1_12  and  C9_15 
ROOT
HETATM    1  O1  UNL     1      24.080   0.577  53.538  1.00  0.00    -0.272 OA
HETATM    2  C1  UNL     1      25.037   0.499  52.691  1.00  0.00     0.235 C 
HETATM    3  N1  UNL     1      25.180   1.563  51.734  1.00  0.00    -0.250 N 
HETATM    4  H7  UNL     1      25.994   1.324  51.132  1.00  0.00     0.181 HD
ENDROOT
BRANCH   3   5
HETATM    5  S1  UNL     1      24.052   2.893  51.805  1.00  0.00     0.265 S 
HETATM    6  O2  UNL     1      24.424   3.891  50.737  1.00  0.00    -0.200 OA
HETATM    7  O3  UNL     1      24.078   3.433  53.177  1.00  0.00    -0.200 OA
BRANCH   5   8
HETATM    8  C9  UNL     1      22.490   2.170  51.372  1.00  0.00     0.080 A 
HETATM    9  C10 UNL     1      21.468   2.399  52.270  1.00  0.00     0.028 A 
HETATM   10  C11 UNL     1      20.235   1.855  51.994  1.00  0.00     0.044 A 
HETATM   11  C12 UNL     1      20.080   1.101  50.825  1.00  0.00     0.116 A 
HETATM   12  F2  UNL     1      18.831   0.599  50.620  1.00  0.00    -0.206 F 
HETATM   13  C13 UNL     1      21.142   0.898  49.948  1.00  0.00     0.044 A 
HETATM   14  C14 UNL     1      22.395   1.438  50.207  1.00  0.00     0.028 A 
ENDBRANCH   5   8
ENDBRANCH   3   5
BRANCH   2  15
HETATM   15  C2  UNL     1      25.746  -0.754  52.986  1.00  0.00     0.145 C 
BRANCH  15  16
HETATM   16  C3  UNL     1      27.181  -0.540  53.303  1.00  0.00    -0.011 A 
HETATM   17  C4  UNL     1      27.804   0.585  53.829  1.00  0.00     0.011 A 
HETATM   18  C5  UNL     1      29.165   0.511  54.013  1.00  0.00     0.001 A 
HETATM   19  C6  UNL     1      29.921  -0.614  53.700  1.00  0.00     0.003 A 
HETATM   20  C7  UNL     1      29.293  -1.740  53.173  1.00  0.00     0.043 A 
HETATM   21  C8  UNL     1      27.907  -1.671  52.983  1.00  0.00     0.123 A 
HETATM   22  F1  UNL     1      27.434  -2.830  52.469  1.00  0.00    -0.206 F 
ENDBRANCH  15  16
ENDBRANCH   2  15
TORSDOF 4
ENDMDL
MODEL 9
REMARK VINA RESULT:      -7.4      4.330      5.958
REMARK  4 active torsions:
REMARK  status: ('A' for Active; 'I' for Inactive)
REMARK    1  A    between atoms: C1_2  and  C2_3 
REMARK       I    between atoms: C1_2  and  N1_11 
REMARK    2  A    between atoms: C2_3  and  C3_4 
REMARK    3  A    between atoms: N1_11  and  S1_12 
REMARK    4  A    between atoms: S1_12  and  C9_15 
ROOT
HETATM    1  O1  UNL     1      23.787   4.236  52.553  1.00  0.00    -0.272 OA
HETATM    2  C1  UNL     1      23.367   3.264  51.833  1.00  0.00     0.235 C 
HETATM    3  N1  UNL     1      23.054   3.530  50.455  1.00  0.00    -0.250 N 
HETATM    4  H7  UNL     1      22.723   2.635  50.039  1.00  0.00     0.181 HD
ENDROOT
BRANCH   3   5
HETATM    5  S1  UNL     1      23.286   5.152  49.854  1.00  0.00     0.265 S 
HETATM    6  O2  UNL     1      23.118   6.114  51.004  1.00  0.00    -0.200 OA
HETATM    7  O3  UNL     1      22.339   5.361  48.744  1.00  0.00    -0.200 OA
BRANCH   5   8
HETATM    8  C9  UNL     1      24.983   5.192  49.338  1.00  0.00     0.080 A 
HETATM    9  C10 UNL     1      25.678   4.013  49.511  1.00  0.00     0.028 A 
HETATM   10  C11 UNL     1      27.001   3.985  49.138  1.00  0.00     0.044 A 
HETATM   11  C12 UNL     1      27.574   5.147  48.608  1.00  0.00     0.116 A 
HETATM   12  F2  UNL     1      28.887   5.040  48.260  1.00  0.00    -0.206 F 
HETATM   13  C13 UNL     1      26.832   6.315  48.452  1.00  0.00     0.044 A 
HETATM   14  C14 UNL     1      25.495   6.365  48.822  1.00  0.00     0.028 A 
ENDBRANCH   5   8
ENDBRANCH   3   5
BRANCH   2  15
HETATM   15  C2  UNL     1      23.332   2.087  52.713  1.00  0.00     0.145 C 
BRANCH  15  16
HETATM   16  C3  UNL     1      24.547   1.242  52.589  1.00  0.00    -0.011 A 
HETATM   17  C4  UNL     1      25.696   1.465  51.839  1.00  0.00     0.011 A 
HETATM   18  C5  UNL     1      26.673   0.499  51.900  1.00  0.00     0.001 A 
HETATM   19  C6  UNL     1      26.558  -0.660  52.662  1.00  0.00     0.003 A 
HETATM   20  C7  UNL     1      25.405  -0.879  53.412  1.00  0.00     0.043 A 
HETATM   21  C8  UNL     1      24.406   0.101  53.353  1.00  0.00     0.123 A 
HETATM   22  F1  UNL     1      23.351  -0.241  54.128  1.00  0.00    -0.206 F 
ENDBRANCH  15  16
ENDBRANCH   2  15
TORSDOF 4
ENDMDL
