MODEL 1
REMARK VINA RESULT:      -7.9      0.000      0.000
REMARK  9 active torsions:
REMARK  status: ('A' for Active; 'I' for Inactive)
REMARK    1  A    between atoms: C2_2  and  C3_3 
REMARK    2  A    between atoms: C3_3  and  C4_4 
REMARK    3  A    between atoms: C4_4  and  C5_5 
REMARK    4  A    between atoms: C5_5  and  C6_6 
REMARK    5  A    between atoms: C6_6  and  C7_7 
REMARK    6  A    between atoms: C7_7  and  C8_8 
REMARK    7  A    between atoms: C10_10  and  N1_11 
REMARK    8  A    between atoms: C11_12  and  N2_13 
REMARK    9  A    between atoms: N2_13  and  C12_14 
ROOT
HETATM    1  C8  UNL     1      25.838   3.769  50.242  1.00  0.00    -0.058 A 
HETATM    2  C9  UNL     1      25.145   4.899  50.377  1.00  0.00     0.021 A 
HETATM    3  C10 UNL     1      25.743   5.932  49.532  1.00  0.00     0.291 A 
HETATM    4  C11 UNL     1      26.910   5.282  48.862  1.00  0.00     0.063 A 
HETATM    5  C21 UNL     1      26.910   4.055  49.303  1.00  0.00     0.035 A 
ENDROOT
BRANCH   4   6
HETATM    6  N2  UNL     1      27.704   6.070  47.969  1.00  0.00    -0.189 N 
HETATM    7  H20 UNL     1      27.101   6.472  47.188  1.00  0.00     0.184 HD
BRANCH   6   8
HETATM    8  C12 UNL     1      29.097   6.232  48.183  1.00  0.00     0.727 A 
HETATM    9  N3  UNL     1      29.215   7.517  48.650  1.00  0.00    -0.075 NA
HETATM   10  C13 UNL     1      30.442   8.025  48.971  1.00  0.00     0.139 A 
HETATM   11  C14 UNL     1      31.525   7.190  48.802  1.00  0.00     0.053 A 
HETATM   12  C15 UNL     1      31.416   5.896  48.333  1.00  0.00     0.089 A 
HETATM   13  C16 UNL     1      32.563   5.032  48.161  1.00  0.00     0.011 A 
HETATM   14  N5  UNL     1      30.178   5.450  48.031  1.00  0.00    -0.062 NA
HETATM   15  C17 UNL     1      33.798   5.520  48.458  1.00  0.00     0.017 A 
HETATM   16  C20 UNL     1      32.520   3.742  47.729  1.00  0.00     0.130 A 
HETATM   17  C18 UNL     1      34.910   4.718  48.315  1.00  0.00     0.020 A 
HETATM   18  C19 UNL     1      34.850   3.408  47.876  1.00  0.00     0.116 A 
HETATM   19  N4  UNL     1      33.618   2.940  47.586  1.00  0.00    -0.272 NA
ENDBRANCH   6   8
ENDBRANCH   4   6
BRANCH   3  20
HETATM   20  N1  UNL     1      26.227   7.022  50.356  1.00  0.00     0.092 N 
HETATM   21  H18 UNL     1      26.374   7.886  49.828  1.00  0.00     0.314 HD
HETATM   22  H19 UNL     1      27.060   6.752  50.899  1.00  0.00     0.314 HD
ENDBRANCH   3  20
BRANCH   1  23
HETATM   23  C7  UNL     1      25.509   2.536  50.950  1.00  0.00     0.038 C 
BRANCH  23  24
HETATM   24  C6  UNL     1      26.637   1.752  51.505  1.00  0.00     0.005 C 
BRANCH  24  25
HETATM   25  C5  UNL     1      26.827   1.780  52.974  1.00  0.00     0.000 C 
BRANCH  25  26
HETATM   26  C4  UNL     1      28.177   2.303  53.400  1.00  0.00     0.000 C 
BRANCH  26  27
HETATM   27  C3  UNL     1      29.162   1.262  53.787  1.00  0.00    -0.000 C 
BRANCH  27  28
HETATM   28  C2  UNL     1      28.626  -0.103  54.053  1.00  0.00    -0.005 C 
HETATM   29  C1  UNL     1      29.415  -1.207  53.387  1.00  0.00     0.005 C 
ENDBRANCH  27  28
ENDBRANCH  26  27
ENDBRANCH  25  26
ENDBRANCH  24  25
ENDBRANCH  23  24
ENDBRANCH   1  23
TORSDOF 9
ENDMDL
MODEL 2
REMARK VINA RESULT:      -7.7      1.835      3.237
REMARK  9 active torsions:
REMARK  status: ('A' for Active; 'I' for Inactive)
REMARK    1  A    between atoms: C2_2  and  C3_3 
REMARK    2  A    between atoms: C3_3  and  C4_4 
REMARK    3  A    between atoms: C4_4  and  C5_5 
REMARK    4  A    between atoms: C5_5  and  C6_6 
REMARK    5  A    between atoms: C6_6  and  C7_7 
REMARK    6  A    between atoms: C7_7  and  C8_8 
REMARK    7  A    between atoms: C10_10  and  N1_11 
REMARK    8  A    between atoms: C11_12  and  N2_13 
REMARK    9  A    between atoms: N2_13  and  C12_14 
ROOT
HETATM    1  C8  UNL     1      26.012   2.126  52.849  1.00  0.00    -0.058 A 
HETATM    2  C9  UNL     1      24.793   2.661  52.808  1.00  0.00     0.021 A 
HETATM    3  C10 UNL     1      24.570   3.247  51.487  1.00  0.00     0.291 A 
HETATM    4  C11 UNL     1      25.830   3.007  50.720  1.00  0.00     0.063 A 
HETATM    5  C21 UNL     1      26.608   2.364  51.546  1.00  0.00     0.035 A 
ENDROOT
BRANCH   4   6
HETATM    6  N2  UNL     1      25.907   3.490  49.375  1.00  0.00    -0.189 N 
HETATM    7  H20 UNL     1      25.256   2.935  48.740  1.00  0.00     0.184 HD
BRANCH   6   8
HETATM    8  C12 UNL     1      26.766   4.567  49.036  1.00  0.00     0.727 A 
HETATM    9  N3  UNL     1      26.004   5.685  49.267  1.00  0.00    -0.075 NA
HETATM   10  C13 UNL     1      26.521   6.931  49.046  1.00  0.00     0.139 A 
HETATM   11  C14 UNL     1      27.820   6.994  48.590  1.00  0.00     0.053 A 
HETATM   12  C15 UNL     1      28.594   5.875  48.355  1.00  0.00     0.089 A 
HETATM   13  C16 UNL     1      29.955   5.959  47.875  1.00  0.00     0.011 A 
HETATM   14  N5  UNL     1      28.028   4.672  48.590  1.00  0.00    -0.062 NA
HETATM   15  C17 UNL     1      30.488   7.187  47.633  1.00  0.00     0.017 A 
HETATM   16  C20 UNL     1      30.777   4.898  47.648  1.00  0.00     0.130 A 
HETATM   17  C18 UNL     1      31.786   7.300  47.185  1.00  0.00     0.020 A 
HETATM   18  C19 UNL     1      32.610   6.213  46.961  1.00  0.00     0.116 A 
HETATM   19  N4  UNL     1      32.066   5.002  47.206  1.00  0.00    -0.272 NA
ENDBRANCH   6   8
ENDBRANCH   4   6
BRANCH   3  20
HETATM   20  N1  UNL     1      24.367   4.676  51.611  1.00  0.00     0.092 N 
HETATM   21  H18 UNL     1      25.130   5.225  51.206  1.00  0.00     0.314 HD
HETATM   22  H19 UNL     1      24.164   4.953  52.583  1.00  0.00     0.314 HD
ENDBRANCH   3  20
BRANCH   1  23
HETATM   23  C7  UNL     1      26.556   1.457  54.026  1.00  0.00     0.038 C 
BRANCH  23  24
HETATM   24  C6  UNL     1      25.969   0.148  54.393  1.00  0.00     0.005 C 
BRANCH  24  25
HETATM   25  C5  UNL     1      25.725  -0.820  53.299  1.00  0.00     0.000 C 
BRANCH  25  26
HETATM   26  C4  UNL     1      26.955  -1.138  52.486  1.00  0.00     0.000 C 
BRANCH  26  27
HETATM   27  C3  UNL     1      27.663  -2.383  52.875  1.00  0.00    -0.000 C 
BRANCH  27  28
HETATM   28  C2  UNL     1      29.120  -2.266  53.163  1.00  0.00    -0.005 C 
HETATM   29  C1  UNL     1      29.553  -0.873  53.555  1.00  0.00     0.005 C 
ENDBRANCH  27  28
ENDBRANCH  26  27
ENDBRANCH  25  26
ENDBRANCH  24  25
ENDBRANCH  23  24
ENDBRANCH   1  23
TORSDOF 9
ENDMDL
MODEL 3
REMARK VINA RESULT:      -7.7      0.826      1.194
REMARK  9 active torsions:
REMARK  status: ('A' for Active; 'I' for Inactive)
REMARK    1  A    between atoms: C2_2  and  C3_3 
REMARK    2  A    between atoms: C3_3  and  C4_4 
REMARK    3  A    between atoms: C4_4  and  C5_5 
REMARK    4  A    between atoms: C5_5  and  C6_6 
REMARK    5  A    between atoms: C6_6  and  C7_7 
REMARK    6  A    between atoms: C7_7  and  C8_8 
REMARK    7  A    between atoms: C10_10  and  N1_11 
REMARK    8  A    between atoms: C11_12  and  N2_13 
REMARK    9  A    between atoms: N2_13  and  C12_14 
ROOT
HETATM    1  C8  UNL     1      25.909   4.244  49.716  1.00  0.00    -0.058 A 
HETATM    2  C9  UNL     1      25.214   5.333  50.043  1.00  0.00     0.021 A 
HETATM    3  C10 UNL     1      25.851   6.506  49.447  1.00  0.00     0.291 A 
HETATM    4  C11 UNL     1      27.045   5.988  48.712  1.00  0.00     0.063 A 
HETATM    5  C21 UNL     1      27.022   4.698  48.900  1.00  0.00     0.035 A 
ENDROOT
BRANCH   4   6
HETATM    6  N2  UNL     1      27.880   6.929  48.029  1.00  0.00    -0.189 N 
HETATM    7  H20 UNL     1      27.306   7.515  47.350  1.00  0.00     0.184 HD
BRANCH   6   8
HETATM    8  C12 UNL     1      29.273   6.991  48.291  1.00  0.00     0.727 A 
HETATM    9  N3  UNL     1      29.455   8.242  48.826  1.00  0.00    -0.075 NA
HETATM   10  C13 UNL     1      30.701   8.655  49.208  1.00  0.00     0.139 A 
HETATM   11  C14 UNL     1      31.735   7.762  49.029  1.00  0.00     0.053 A 
HETATM   12  C15 UNL     1      31.561   6.502  48.492  1.00  0.00     0.089 A 
HETATM   13  C16 UNL     1      32.658   5.577  48.310  1.00  0.00     0.011 A 
HETATM   14  N5  UNL     1      30.308   6.151  48.132  1.00  0.00    -0.062 NA
HETATM   15  C17 UNL     1      33.910   5.970  48.668  1.00  0.00     0.017 A 
HETATM   16  C20 UNL     1      32.549   4.315  47.811  1.00  0.00     0.130 A 
HETATM   17  C18 UNL     1      34.974   5.107  48.517  1.00  0.00     0.020 A 
HETATM   18  C19 UNL     1      34.848   3.827  48.010  1.00  0.00     0.116 A 
HETATM   19  N4  UNL     1      33.599   3.453  47.660  1.00  0.00    -0.272 NA
ENDBRANCH   6   8
ENDBRANCH   4   6
BRANCH   3  20
HETATM   20  N1  UNL     1      26.300   7.405  50.490  1.00  0.00     0.092 N 
HETATM   21  H18 UNL     1      26.110   7.051  51.431  1.00  0.00     0.314 HD
HETATM   22  H19 UNL     1      25.938   8.361  50.356  1.00  0.00     0.314 HD
ENDBRANCH   3  20
BRANCH   1  23
HETATM   23  C7  UNL     1      25.545   2.899  50.150  1.00  0.00     0.038 C 
BRANCH  23  24
HETATM   24  C6  UNL     1      26.473   2.213  51.080  1.00  0.00     0.005 C 
BRANCH  24  25
HETATM   25  C5  UNL     1      25.908   1.152  51.944  1.00  0.00     0.000 C 
BRANCH  25  26
HETATM   26  C4  UNL     1      26.881   0.041  52.254  1.00  0.00     0.000 C 
BRANCH  26  27
HETATM   27  C3  UNL     1      27.580   0.162  53.558  1.00  0.00    -0.000 C 
BRANCH  27  28
HETATM   28  C2  UNL     1      28.928   0.797  53.541  1.00  0.00    -0.005 C 
HETATM   29  C1  UNL     1      28.910   2.273  53.867  1.00  0.00     0.005 C 
ENDBRANCH  27  28
ENDBRANCH  26  27
ENDBRANCH  25  26
ENDBRANCH  24  25
ENDBRANCH  23  24
ENDBRANCH   1  23
TORSDOF 9
ENDMDL
MODEL 4
REMARK VINA RESULT:      -7.6      1.478      1.850
REMARK  9 active torsions:
REMARK  status: ('A' for Active; 'I' for Inactive)
REMARK    1  A    between atoms: C2_2  and  C3_3 
REMARK    2  A    between atoms: C3_3  and  C4_4 
REMARK    3  A    between atoms: C4_4  and  C5_5 
REMARK    4  A    between atoms: C5_5  and  C6_6 
REMARK    5  A    between atoms: C6_6  and  C7_7 
REMARK    6  A    between atoms: C7_7  and  C8_8 
REMARK    7  A    between atoms: C10_10  and  N1_11 
REMARK    8  A    between atoms: C11_12  and  N2_13 
REMARK    9  A    between atoms: N2_13  and  C12_14 
ROOT
HETATM    1  C8  UNL     1      26.046   4.351  49.493  1.00  0.00    -0.058 A 
HETATM    2  C9  UNL     1      25.308   5.401  49.850  1.00  0.00     0.021 A 
HETATM    3  C10 UNL     1      25.970   6.626  49.403  1.00  0.00     0.291 A 
HETATM    4  C11 UNL     1      27.227   6.183  48.727  1.00  0.00     0.063 A 
HETATM    5  C21 UNL     1      27.212   4.882  48.809  1.00  0.00     0.035 A 
ENDROOT
BRANCH   4   6
HETATM    6  N2  UNL     1      28.097   7.186  48.190  1.00  0.00    -0.189 N 
HETATM    7  H20 UNL     1      27.538   7.921  47.660  1.00  0.00     0.184 HD
BRANCH   6   8
HETATM    8  C12 UNL     1      29.499   7.118  48.394  1.00  0.00     0.727 A 
HETATM    9  N3  UNL     1      29.819   8.346  48.918  1.00  0.00    -0.075 NA
HETATM   10  C13 UNL     1      31.112   8.640  49.247  1.00  0.00     0.139 A 
HETATM   11  C14 UNL     1      32.051   7.655  49.026  1.00  0.00     0.053 A 
HETATM   12  C15 UNL     1      31.738   6.418  48.500  1.00  0.00     0.089 A 
HETATM   13  C16 UNL     1      32.735   5.395  48.275  1.00  0.00     0.011 A 
HETATM   14  N5  UNL     1      30.444   6.186  48.194  1.00  0.00    -0.062 NA
HETATM   15  C17 UNL     1      34.033   5.670  48.579  1.00  0.00     0.017 A 
HETATM   16  C20 UNL     1      32.489   4.149  47.784  1.00  0.00     0.130 A 
HETATM   17  C18 UNL     1      35.005   4.712  48.385  1.00  0.00     0.020 A 
HETATM   18  C19 UNL     1      34.739   3.449  47.887  1.00  0.00     0.116 A 
HETATM   19  N4  UNL     1      33.447   3.194  47.591  1.00  0.00    -0.272 NA
ENDBRANCH   6   8
ENDBRANCH   4   6
BRANCH   3  20
HETATM   20  N1  UNL     1      26.319   7.442  50.548  1.00  0.00     0.092 N 
HETATM   21  H18 UNL     1      26.562   8.403  50.294  1.00  0.00     0.314 HD
HETATM   22  H19 UNL     1      27.047   6.999  51.129  1.00  0.00     0.314 HD
ENDBRANCH   3  20
BRANCH   1  23
HETATM   23  C7  UNL     1      25.673   2.971  49.787  1.00  0.00     0.038 C 
BRANCH  23  24
HETATM   24  C6  UNL     1      25.130   2.689  51.136  1.00  0.00     0.005 C 
BRANCH  24  25
HETATM   25  C5  UNL     1      23.826   1.989  51.212  1.00  0.00     0.000 C 
BRANCH  25  26
HETATM   26  C4  UNL     1      23.653   1.165  52.463  1.00  0.00     0.000 C 
BRANCH  26  27
HETATM   27  C3  UNL     1      24.906   0.882  53.209  1.00  0.00    -0.000 C 
BRANCH  27  28
HETATM   28  C2  UNL     1      25.489  -0.480  53.051  1.00  0.00    -0.005 C 
HETATM   29  C1  UNL     1      26.749  -0.509  52.217  1.00  0.00     0.005 C 
ENDBRANCH  27  28
ENDBRANCH  26  27
ENDBRANCH  25  26
ENDBRANCH  24  25
ENDBRANCH  23  24
ENDBRANCH   1  23
TORSDOF 9
ENDMDL
MODEL 5
REMARK VINA RESULT:      -7.5      5.579      7.847
REMARK  9 active torsions:
REMARK  status: ('A' for Active; 'I' for Inactive)
REMARK    1  A    between atoms: C2_2  and  C3_3 
REMARK    2  A    between atoms: C3_3  and  C4_4 
REMARK    3  A    between atoms: C4_4  and  C5_5 
REMARK    4  A    between atoms: C5_5  and  C6_6 
REMARK    5  A    between atoms: C6_6  and  C7_7 
REMARK    6  A    between atoms: C7_7  and  C8_8 
REMARK    7  A    between atoms: C10_10  and  N1_11 
REMARK    8  A    between atoms: C11_12  and  N2_13 
REMARK    9  A    between atoms: N2_13  and  C12_14 
ROOT
HETATM    1  C8  UNL     1      21.719   5.581  50.761  1.00  0.00    -0.058 A 
HETATM    2  C9  UNL     1      22.883   6.126  50.409  1.00  0.00     0.021 A 
HETATM    3  C10 UNL     1      23.923   5.678  51.334  1.00  0.00     0.291 A 
HETATM    4  C11 UNL     1      23.234   4.784  52.314  1.00  0.00     0.063 A 
HETATM    5  C21 UNL     1      21.987   4.767  51.934  1.00  0.00     0.035 A 
ENDROOT
BRANCH   4   6
HETATM    6  N2  UNL     1      24.014   4.198  53.362  1.00  0.00    -0.189 N 
HETATM    7  H20 UNL     1      24.107   4.872  54.181  1.00  0.00     0.184 HD
BRANCH   6   8
HETATM    8  C12 UNL     1      24.546   2.889  53.229  1.00  0.00     0.727 A 
HETATM    9  N3  UNL     1      23.460   2.121  52.889  1.00  0.00    -0.075 NA
HETATM   10  C13 UNL     1      23.604   0.779  52.674  1.00  0.00     0.139 A 
HETATM   11  C14 UNL     1      24.872   0.258  52.815  1.00  0.00     0.053 A 
HETATM   12  C15 UNL     1      25.970   1.023  53.157  1.00  0.00     0.089 A 
HETATM   13  C16 UNL     1      27.294   0.460  53.301  1.00  0.00     0.011 A 
HETATM   14  N5  UNL     1      25.765   2.342  53.357  1.00  0.00    -0.062 NA
HETATM   15  C17 UNL     1      27.460  -0.877  53.108  1.00  0.00     0.017 A 
HETATM   16  C20 UNL     1      28.419   1.162  53.609  1.00  0.00     0.130 A 
HETATM   17  C18 UNL     1      28.712  -1.441  53.228  1.00  0.00     0.020 A 
HETATM   18  C19 UNL     1      29.846  -0.714  53.540  1.00  0.00     0.116 A 
HETATM   19  N4  UNL     1      29.663   0.610  53.728  1.00  0.00    -0.272 NA
ENDBRANCH   6   8
ENDBRANCH   4   6
BRANCH   3  20
HETATM   20  N1  UNL     1      24.471   6.814  52.046  1.00  0.00     0.092 N 
HETATM   21  H18 UNL     1      23.765   7.331  52.577  1.00  0.00     0.314 HD
HETATM   22  H19 UNL     1      25.017   7.430  51.426  1.00  0.00     0.314 HD
ENDBRANCH   3  20
BRANCH   1  23
HETATM   23  C7  UNL     1      20.471   5.822  50.046  1.00  0.00     0.038 C 
BRANCH  23  24
HETATM   24  C6  UNL     1      20.426   5.444  48.614  1.00  0.00     0.005 C 
BRANCH  24  25
HETATM   25  C5  UNL     1      19.859   4.118  48.277  1.00  0.00     0.000 C 
BRANCH  25  26
HETATM   26  C4  UNL     1      20.828   3.208  47.564  1.00  0.00     0.000 C 
BRANCH  26  27
HETATM   27  C3  UNL     1      22.263   3.512  47.794  1.00  0.00    -0.000 C 
BRANCH  27  28
HETATM   28  C2  UNL     1      22.969   2.688  48.815  1.00  0.00    -0.005 C 
HETATM   29  C1  UNL     1      22.109   1.606  49.425  1.00  0.00     0.005 C 
ENDBRANCH  27  28
ENDBRANCH  26  27
ENDBRANCH  25  26
ENDBRANCH  24  25
ENDBRANCH  23  24
ENDBRANCH   1  23
TORSDOF 9
ENDMDL
MODEL 6
REMARK VINA RESULT:      -7.3      3.277      4.733
REMARK  9 active torsions:
REMARK  status: ('A' for Active; 'I' for Inactive)
REMARK    1  A    between atoms: C2_2  and  C3_3 
REMARK    2  A    between atoms: C3_3  and  C4_4 
REMARK    3  A    between atoms: C4_4  and  C5_5 
REMARK    4  A    between atoms: C5_5  and  C6_6 
REMARK    5  A    between atoms: C6_6  and  C7_7 
REMARK    6  A    between atoms: C7_7  and  C8_8 
REMARK    7  A    between atoms: C10_10  and  N1_11 
REMARK    8  A    between atoms: C11_12  and  N2_13 
REMARK    9  A    between atoms: N2_13  and  C12_14 
ROOT
HETATM    1  C8  UNL     1      24.106   3.453  52.229  1.00  0.00    -0.058 A 
HETATM    2  C9  UNL     1      23.553   4.614  52.577  1.00  0.00     0.021 A 
HETATM    3  C10 UNL     1      23.694   5.563  51.473  1.00  0.00     0.291 A 
HETATM    4  C11 UNL     1      24.422   4.825  50.397  1.00  0.00     0.063 A 
HETATM    5  C21 UNL     1      24.625   3.633  50.884  1.00  0.00     0.035 A 
ENDROOT
BRANCH   4   6
HETATM    6  N2  UNL     1      24.715   5.519  49.179  1.00  0.00    -0.189 N 
HETATM    7  H20 UNL     1      23.879   5.489  48.520  1.00  0.00     0.184 HD
BRANCH   6   8
HETATM    8  C12 UNL     1      25.979   6.131  48.976  1.00  0.00     0.727 A 
HETATM    9  N3  UNL     1      26.812   5.083  48.675  1.00  0.00    -0.075 NA
HETATM   10  C13 UNL     1      28.134   5.305  48.411  1.00  0.00     0.139 A 
HETATM   11  C14 UNL     1      28.568   6.612  48.462  1.00  0.00     0.053 A 
HETATM   12  C15 UNL     1      27.737   7.673  48.764  1.00  0.00     0.089 A 
HETATM   13  C16 UNL     1      28.209   9.039  48.814  1.00  0.00     0.011 A 
HETATM   14  N5  UNL     1      26.441   7.391  49.017  1.00  0.00    -0.062 NA
HETATM   15  C17 UNL     1      29.525   9.285  48.571  1.00  0.00     0.017 A 
HETATM   16  C20 UNL     1      27.438  10.129  49.079  1.00  0.00     0.130 A 
HETATM   17  C18 UNL     1      30.002  10.578  48.601  1.00  0.00     0.020 A 
HETATM   18  C19 UNL     1      29.206  11.676  48.870  1.00  0.00     0.116 A 
HETATM   19  N4  UNL     1      27.904  11.414  49.110  1.00  0.00    -0.272 NA
ENDBRANCH   6   8
ENDBRANCH   4   6
BRANCH   3  20
HETATM   20  N1  UNL     1      24.503   6.690  51.894  1.00  0.00     0.092 N 
HETATM   21  H18 UNL     1      23.982   7.571  51.910  1.00  0.00     0.314 HD
HETATM   22  H19 UNL     1      25.373   6.765  51.346  1.00  0.00     0.314 HD
ENDBRANCH   3  20
BRANCH   1  23
HETATM   23  C7  UNL     1      24.140   2.286  53.104  1.00  0.00     0.038 C 
BRANCH  23  24
HETATM   24  C6  UNL     1      24.344   0.966  52.465  1.00  0.00     0.005 C 
BRANCH  24  25
HETATM   25  C5  UNL     1      25.398   0.091  53.030  1.00  0.00     0.000 C 
BRANCH  25  26
HETATM   26  C4  UNL     1      26.747   0.270  52.378  1.00  0.00     0.000 C 
BRANCH  26  27
HETATM   27  C3  UNL     1      27.907  -0.143  53.208  1.00  0.00    -0.000 C 
BRANCH  27  28
HETATM   28  C2  UNL     1      28.873   0.925  53.591  1.00  0.00    -0.005 C 
HETATM   29  C1  UNL     1      28.314   2.324  53.470  1.00  0.00     0.005 C 
ENDBRANCH  27  28
ENDBRANCH  26  27
ENDBRANCH  25  26
ENDBRANCH  24  25
ENDBRANCH  23  24
ENDBRANCH   1  23
TORSDOF 9
ENDMDL
MODEL 7
REMARK VINA RESULT:      -7.2      6.844     10.542
REMARK  9 active torsions:
REMARK  status: ('A' for Active; 'I' for Inactive)
REMARK    1  A    between atoms: C2_2  and  C3_3 
REMARK    2  A    between atoms: C3_3  and  C4_4 
REMARK    3  A    between atoms: C4_4  and  C5_5 
REMARK    4  A    between atoms: C5_5  and  C6_6 
REMARK    5  A    between atoms: C6_6  and  C7_7 
REMARK    6  A    between atoms: C7_7  and  C8_8 
REMARK    7  A    between atoms: C10_10  and  N1_11 
REMARK    8  A    between atoms: C11_12  and  N2_13 
REMARK    9  A    between atoms: N2_13  and  C12_14 
ROOT
HETATM    1  C8  UNL     1      17.957  -0.151  51.372  1.00  0.00    -0.058 A 
HETATM    2  C9  UNL     1      17.086  -0.815  52.131  1.00  0.00     0.021 A 
HETATM    3  C10 UNL     1      17.755  -1.256  53.355  1.00  0.00     0.291 A 
HETATM    4  C11 UNL     1      19.166  -0.778  53.238  1.00  0.00     0.063 A 
HETATM    5  C21 UNL     1      19.218  -0.157  52.093  1.00  0.00     0.035 A 
ENDROOT
BRANCH   4   6
HETATM    6  N2  UNL     1      20.073  -1.079  54.304  1.00  0.00    -0.189 N 
HETATM    7  H20 UNL     1      19.556  -1.525  55.121  1.00  0.00     0.184 HD
BRANCH   6   8
HETATM    8  C12 UNL     1      21.456  -0.784  54.189  1.00  0.00     0.727 A 
HETATM    9  N3  UNL     1      22.040  -1.532  55.181  1.00  0.00    -0.075 NA
HETATM   10  C13 UNL     1      23.394  -1.498  55.366  1.00  0.00     0.139 A 
HETATM   11  C14 UNL     1      24.117  -0.688  54.517  1.00  0.00     0.053 A 
HETATM   12  C15 UNL     1      23.539   0.068  53.517  1.00  0.00     0.089 A 
HETATM   13  C16 UNL     1      24.313   0.913  52.635  1.00  0.00     0.011 A 
HETATM   14  N5  UNL     1      22.198  -0.007  53.384  1.00  0.00    -0.062 NA
HETATM   15  C17 UNL     1      25.661   0.977  52.810  1.00  0.00     0.017 A 
HETATM   16  C20 UNL     1      23.808   1.661  51.617  1.00  0.00     0.130 A 
HETATM   17  C18 UNL     1      26.428   1.765  51.978  1.00  0.00     0.020 A 
HETATM   18  C19 UNL     1      25.900   2.518  50.946  1.00  0.00     0.116 A 
HETATM   19  N4  UNL     1      24.562   2.444  50.788  1.00  0.00    -0.272 NA
ENDBRANCH   6   8
ENDBRANCH   4   6
BRANCH   3  20
HETATM   20  N1  UNL     1      17.757  -2.703  53.420  1.00  0.00     0.092 N 
HETATM   21  H18 UNL     1      18.536  -3.077  53.968  1.00  0.00     0.314 HD
HETATM   22  H19 UNL     1      17.702  -3.130  52.483  1.00  0.00     0.314 HD
ENDBRANCH   3  20
BRANCH   1  23
HETATM   23  C7  UNL     1      17.615   0.425  50.075  1.00  0.00     0.038 C 
BRANCH  23  24
HETATM   24  C6  UNL     1      17.775   1.890  49.922  1.00  0.00     0.005 C 
BRANCH  24  25
HETATM   25  C5  UNL     1      18.819   2.367  48.985  1.00  0.00     0.000 C 
BRANCH  25  26
HETATM   26  C4  UNL     1      20.218   2.275  49.541  1.00  0.00     0.000 C 
BRANCH  26  27
HETATM   27  C3  UNL     1      21.077   1.238  48.916  1.00  0.00    -0.000 C 
BRANCH  27  28
HETATM   28  C2  UNL     1      22.212   1.720  48.080  1.00  0.00    -0.005 C 
HETATM   29  C1  UNL     1      22.313   3.225  48.000  1.00  0.00     0.005 C 
ENDBRANCH  27  28
ENDBRANCH  26  27
ENDBRANCH  25  26
ENDBRANCH  24  25
ENDBRANCH  23  24
ENDBRANCH   1  23
TORSDOF 9
ENDMDL
MODEL 8
REMARK VINA RESULT:      -6.9      5.312      9.019
REMARK  9 active torsions:
REMARK  status: ('A' for Active; 'I' for Inactive)
REMARK    1  A    between atoms: C2_2  and  C3_3 
REMARK    2  A    between atoms: C3_3  and  C4_4 
REMARK    3  A    between atoms: C4_4  and  C5_5 
REMARK    4  A    between atoms: C5_5  and  C6_6 
REMARK    5  A    between atoms: C6_6  and  C7_7 
REMARK    6  A    between atoms: C7_7  and  C8_8 
REMARK    7  A    between atoms: C10_10  and  N1_11 
REMARK    8  A    between atoms: C11_12  and  N2_13 
REMARK    9  A    between atoms: N2_13  and  C12_14 
ROOT
HETATM    1  C8  UNL     1      23.565  -0.039  53.207  1.00  0.00    -0.058 A 
HETATM    2  C9  UNL     1      22.671  -0.917  53.661  1.00  0.00     0.021 A 
HETATM    3  C10 UNL     1      21.340  -0.312  53.618  1.00  0.00     0.291 A 
HETATM    4  C11 UNL     1      21.540   1.068  53.081  1.00  0.00     0.063 A 
HETATM    5  C21 UNL     1      22.823   1.162  52.865  1.00  0.00     0.035 A 
ENDROOT
BRANCH   4   6
HETATM    6  N2  UNL     1      20.393   1.912  52.937  1.00  0.00    -0.189 N 
HETATM    7  H20 UNL     1      19.571   1.524  53.492  1.00  0.00     0.184 HD
BRANCH   6   8
HETATM    8  C12 UNL     1      20.446   3.085  52.141  1.00  0.00     0.727 A 
HETATM    9  N3  UNL     1      19.220   3.126  51.526  1.00  0.00    -0.075 NA
HETATM   10  C13 UNL     1      18.911   4.145  50.669  1.00  0.00     0.139 A 
HETATM   11  C14 UNL     1      19.881   5.103  50.466  1.00  0.00     0.053 A 
HETATM   12  C15 UNL     1      21.117   5.070  51.080  1.00  0.00     0.089 A 
HETATM   13  C16 UNL     1      22.124   6.083  50.856  1.00  0.00     0.011 A 
HETATM   14  N5  UNL     1      21.365   4.038  51.915  1.00  0.00    -0.062 NA
HETATM   15  C17 UNL     1      21.847   7.100  49.994  1.00  0.00     0.017 A 
HETATM   16  C20 UNL     1      23.349   6.122  51.449  1.00  0.00     0.130 A 
HETATM   17  C18 UNL     1      22.782   8.087  49.768  1.00  0.00     0.020 A 
HETATM   18  C19 UNL     1      24.022   8.113  50.379  1.00  0.00     0.116 A 
HETATM   19  N4  UNL     1      24.280   7.098  51.230  1.00  0.00    -0.272 NA
ENDBRANCH   6   8
ENDBRANCH   4   6
BRANCH   3  20
HETATM   20  N1  UNL     1      20.800  -0.217  54.958  1.00  0.00     0.092 N 
HETATM   21  H18 UNL     1      20.808  -1.111  55.457  1.00  0.00     0.314 HD
HETATM   22  H19 UNL     1      19.868   0.223  54.967  1.00  0.00     0.314 HD
ENDBRANCH   3  20
BRANCH   1  23
HETATM   23  C7  UNL     1      24.994  -0.322  53.117  1.00  0.00     0.038 C 
BRANCH  23  24
HETATM   24  C6  UNL     1      25.912   0.592  53.836  1.00  0.00     0.005 C 
BRANCH  24  25
HETATM   25  C5  UNL     1      26.354   1.812  53.122  1.00  0.00     0.000 C 
BRANCH  25  26
HETATM   26  C4  UNL     1      26.302   1.687  51.619  1.00  0.00     0.000 C 
BRANCH  26  27
HETATM   27  C3  UNL     1      26.712   2.903  50.872  1.00  0.00    -0.000 C 
BRANCH  27  28
HETATM   28  C2  UNL     1      25.684   3.531  49.995  1.00  0.00    -0.005 C 
HETATM   29  C1  UNL     1      24.326   2.874  50.082  1.00  0.00     0.005 C 
ENDBRANCH  27  28
ENDBRANCH  26  27
ENDBRANCH  25  26
ENDBRANCH  24  25
ENDBRANCH  23  24
ENDBRANCH   1  23
TORSDOF 9
ENDMDL
MODEL 9
REMARK VINA RESULT:      -6.9      5.963     10.410
REMARK  9 active torsions:
REMARK  status: ('A' for Active; 'I' for Inactive)
REMARK    1  A    between atoms: C2_2  and  C3_3 
REMARK    2  A    between atoms: C3_3  and  C4_4 
REMARK    3  A    between atoms: C4_4  and  C5_5 
REMARK    4  A    between atoms: C5_5  and  C6_6 
REMARK    5  A    between atoms: C6_6  and  C7_7 
REMARK    6  A    between atoms: C7_7  and  C8_8 
REMARK    7  A    between atoms: C10_10  and  N1_11 
REMARK    8  A    between atoms: C11_12  and  N2_13 
REMARK    9  A    between atoms: N2_13  and  C12_14 
ROOT
HETATM    1  C8  UNL     1      25.065   2.752  51.365  1.00  0.00    -0.058 A 
HETATM    2  C9  UNL     1      24.549   3.199  52.509  1.00  0.00     0.021 A 
HETATM    3  C10 UNL     1      23.191   3.685  52.266  1.00  0.00     0.291 A 
HETATM    4  C11 UNL     1      22.945   3.482  50.806  1.00  0.00     0.063 A 
HETATM    5  C21 UNL     1      24.043   2.948  50.351  1.00  0.00     0.035 A 
ENDROOT
BRANCH   4   6
HETATM    6  N2  UNL     1      21.679   3.884  50.271  1.00  0.00    -0.189 N 
HETATM    7  H20 UNL     1      21.750   4.850  49.828  1.00  0.00     0.184 HD
BRANCH   6   8
HETATM    8  C12 UNL     1      20.545   3.037  50.368  1.00  0.00     0.727 A 
HETATM    9  N3  UNL     1      19.709   3.485  49.376  1.00  0.00    -0.075 NA
HETATM   10  C13 UNL     1      18.498   2.886  49.171  1.00  0.00     0.139 A 
HETATM   11  C14 UNL     1      18.177   1.832  49.999  1.00  0.00     0.053 A 
HETATM   12  C15 UNL     1      19.011   1.374  50.999  1.00  0.00     0.089 A 
HETATM   13  C16 UNL     1      18.659   0.267  51.859  1.00  0.00     0.011 A 
HETATM   14  N5  UNL     1      20.194   2.007  51.154  1.00  0.00    -0.062 NA
HETATM   15  C17 UNL     1      17.451  -0.336  51.685  1.00  0.00     0.017 A 
HETATM   16  C20 UNL     1      19.446  -0.248  52.843  1.00  0.00     0.130 A 
HETATM   17  C18 UNL     1      17.091  -1.401  52.483  1.00  0.00     0.020 A 
HETATM   18  C19 UNL     1      17.902  -1.914  53.478  1.00  0.00     0.116 A 
HETATM   19  N4  UNL     1      19.096  -1.305  53.637  1.00  0.00    -0.272 NA
ENDBRANCH   6   8
ENDBRANCH   4   6
BRANCH   3  20
HETATM   20  N1  UNL     1      23.116   5.102  52.559  1.00  0.00     0.092 N 
HETATM   21  H18 UNL     1      22.219   5.517  52.295  1.00  0.00     0.314 HD
HETATM   22  H19 UNL     1      23.914   5.620  52.162  1.00  0.00     0.314 HD
ENDBRANCH   3  20
BRANCH   1  23
HETATM   23  C7  UNL     1      26.410   2.197  51.253  1.00  0.00     0.038 C 
BRANCH  23  24
HETATM   24  C6  UNL     1      27.234   2.167  52.483  1.00  0.00     0.005 C 
BRANCH  24  25
HETATM   25  C5  UNL     1      27.554   0.838  53.056  1.00  0.00     0.000 C 
BRANCH  25  26
HETATM   26  C4  UNL     1      27.006  -0.315  52.252  1.00  0.00     0.000 C 
BRANCH  26  27
HETATM   27  C3  UNL     1      26.070  -1.204  52.985  1.00  0.00    -0.000 C 
BRANCH  27  28
HETATM   28  C2  UNL     1      25.106  -0.547  53.912  1.00  0.00    -0.005 C 
HETATM   29  C1  UNL     1      23.764  -0.249  53.283  1.00  0.00     0.005 C 
ENDBRANCH  27  28
ENDBRANCH  26  27
ENDBRANCH  25  26
ENDBRANCH  24  25
ENDBRANCH  23  24
ENDBRANCH   1  23
TORSDOF 9
ENDMDL
