MODEL 1
REMARK VINA RESULT:      -7.7      0.000      0.000
REMARK  4 active torsions:
REMARK  status: ('A' for Active; 'I' for Inactive)
REMARK    1  A    between atoms: C2_2  and  C3_3 
REMARK    2  A    between atoms: C4_4  and  C5_5 
REMARK    3  A    between atoms: C5_5  and  N1_6 
REMARK    4  A    between atoms: C5_5  and  C6_7 
ROOT
HETATM    1  C3  UNL     1      23.065   1.103  52.904  1.00  0.00    -0.071 C 
HETATM    2  C4  UNL     1      22.748   2.201  52.208  1.00  0.00    -0.017 C 
HETATM    3  C14 UNL     1      23.471   3.178  51.449  1.00  0.00     0.026 C 
HETATM    4  C15 UNL     1      24.727   3.497  51.081  1.00  0.00     0.083 C 
HETATM    5  N3  UNL     1      25.758   2.623  51.568  1.00  0.00    -0.398 N 
HETATM    6  C16 UNL     1      26.793   1.578  51.461  1.00  0.00     0.127 C 
HETATM    7  C17 UNL     1      26.849   1.017  52.912  1.00  0.00    -0.032 C 
HETATM    8  C18 UNL     1      27.588  -0.233  53.053  1.00  0.00     0.016 C 
HETATM    9  C19 UNL     1      27.684   2.108  53.640  1.00  0.00     0.016 C 
HETATM   10  C20 UNL     1      25.457   1.107  53.491  1.00  0.00     0.014 C 
HETATM   11  C21 UNL     1      24.429   0.703  52.491  1.00  0.00     0.035 C 
HETATM   12  H15 UNL     1      25.661   3.116  52.495  1.00  0.00     0.158 HD
ENDROOT
BRANCH   2  13
HETATM   13  C5  UNL     1      21.318   2.674  52.348  1.00  0.00     0.286 C 
BRANCH  13  14
HETATM   14  N1  UNL     1      21.289   4.066  51.958  1.00  0.00     0.091 N 
HETATM   15  H7  UNL     1      21.244   4.668  52.798  1.00  0.00     0.314 HD
HETATM   16  H8  UNL     1      22.193   4.304  51.455  1.00  0.00     0.314 HD
ENDBRANCH  13  14
BRANCH  13  17
HETATM   17  C6  UNL     1      20.499   1.878  51.369  1.00  0.00     0.003 A 
HETATM   18  C7  UNL     1      20.096   1.478  50.216  1.00  0.00    -0.003 A 
HETATM   19  C8  UNL     1      19.455   0.872  51.157  1.00  0.00    -0.004 A 
HETATM   20  C9  UNL     1      18.483  -0.052  51.687  1.00  0.00    -0.022 A 
HETATM   21  C10 UNL     1      18.600  -0.632  52.940  1.00  0.00     0.031 A 
HETATM   22  C13 UNL     1      17.361  -0.425  50.973  1.00  0.00     0.031 A 
HETATM   23  C11 UNL     1      17.667  -1.523  53.457  1.00  0.00     0.117 A 
HETATM   24  N2  UNL     1      16.595  -1.843  52.709  1.00  0.00    -0.273 NA
HETATM   25  C12 UNL     1      16.436  -1.307  51.485  1.00  0.00     0.117 A 
ENDBRANCH  13  17
ENDBRANCH   2  13
BRANCH   1  26
HETATM   26  C2  UNL     1      22.315   0.233  53.815  1.00  0.00     0.030 C 
HETATM   27  C1  UNL     1      22.291  -1.182  53.266  1.00  0.00     0.010 C 
ENDBRANCH   1  26
TORSDOF 4
ENDMDL
MODEL 2
REMARK VINA RESULT:      -7.7      2.073      3.775
REMARK  4 active torsions:
REMARK  status: ('A' for Active; 'I' for Inactive)
REMARK    1  A    between atoms: C2_2  and  C3_3 
REMARK    2  A    between atoms: C4_4  and  C5_5 
REMARK    3  A    between atoms: C5_5  and  N1_6 
REMARK    4  A    between atoms: C5_5  and  C6_7 
ROOT
HETATM    1  C3  UNL     1      22.388   1.515  50.639  1.00  0.00    -0.071 C 
HETATM    2  C4  UNL     1      22.816   1.229  51.874  1.00  0.00    -0.017 C 
HETATM    3  C14 UNL     1      23.653   1.873  52.843  1.00  0.00     0.026 C 
HETATM    4  C15 UNL     1      24.397   2.984  53.011  1.00  0.00     0.083 C 
HETATM    5  N3  UNL     1      24.424   3.887  51.893  1.00  0.00    -0.398 N 
HETATM    6  C16 UNL     1      24.096   5.122  51.158  1.00  0.00     0.127 C 
HETATM    7  C17 UNL     1      24.238   4.672  49.674  1.00  0.00    -0.032 C 
HETATM    8  C18 UNL     1      23.695   5.613  48.699  1.00  0.00     0.016 C 
HETATM    9  C19 UNL     1      25.781   4.684  49.487  1.00  0.00     0.016 C 
HETATM   10  C20 UNL     1      23.822   3.223  49.594  1.00  0.00     0.014 C 
HETATM   11  C21 UNL     1      22.612   2.962  50.423  1.00  0.00     0.035 C 
HETATM   12  H15 UNL     1      25.107   3.223  51.444  1.00  0.00     0.158 HD
ENDROOT
BRANCH   2  13
HETATM   13  C5  UNL     1      22.513  -0.169  52.365  1.00  0.00     0.286 C 
BRANCH  13  14
HETATM   14  N1  UNL     1      23.574  -0.541  53.274  1.00  0.00     0.091 N 
HETATM   15  H7  UNL     1      24.221   0.255  53.408  1.00  0.00     0.314 HD
HETATM   16  H8  UNL     1      23.156  -0.764  54.223  1.00  0.00     0.314 HD
ENDBRANCH  13  14
BRANCH  13  17
HETATM   17  C6  UNL     1      21.222  -0.089  53.133  1.00  0.00     0.003 A 
HETATM   18  C7  UNL     1      20.466   0.055  54.163  1.00  0.00    -0.003 A 
HETATM   19  C8  UNL     1      19.758  -0.148  53.105  1.00  0.00    -0.004 A 
HETATM   20  C9  UNL     1      18.528  -0.318  52.372  1.00  0.00    -0.022 A 
HETATM   21  C10 UNL     1      18.410  -0.032  51.022  1.00  0.00     0.031 A 
HETATM   22  C13 UNL     1      17.374  -0.782  52.974  1.00  0.00     0.031 A 
HETATM   23  C11 UNL     1      17.227  -0.194  50.310  1.00  0.00     0.117 A 
HETATM   24  N2  UNL     1      16.139  -0.651  50.957  1.00  0.00    -0.273 NA
HETATM   25  C12 UNL     1      16.203  -0.943  52.269  1.00  0.00     0.117 A 
ENDBRANCH  13  17
ENDBRANCH   2  13
BRANCH   1  26
HETATM   26  C2  UNL     1      21.678   0.744  49.613  1.00  0.00     0.030 C 
HETATM   27  C1  UNL     1      20.793   1.671  48.801  1.00  0.00     0.010 C 
ENDBRANCH   1  26
TORSDOF 4
ENDMDL
MODEL 3
REMARK VINA RESULT:      -7.7      2.780      7.541
REMARK  4 active torsions:
REMARK  status: ('A' for Active; 'I' for Inactive)
REMARK    1  A    between atoms: C2_2  and  C3_3 
REMARK    2  A    between atoms: C4_4  and  C5_5 
REMARK    3  A    between atoms: C5_5  and  N1_6 
REMARK    4  A    between atoms: C5_5  and  C6_7 
ROOT
HETATM    1  C3  UNL     1      24.265   1.246  51.874  1.00  0.00    -0.071 C 
HETATM    2  C4  UNL     1      23.287   1.867  51.204  1.00  0.00    -0.017 C 
HETATM    3  C14 UNL     1      21.861   1.957  51.322  1.00  0.00     0.026 C 
HETATM    4  C15 UNL     1      20.842   1.501  52.075  1.00  0.00     0.083 C 
HETATM    5  N3  UNL     1      21.209   0.615  53.145  1.00  0.00    -0.398 N 
HETATM    6  C16 UNL     1      21.434   0.229  54.549  1.00  0.00     0.127 C 
HETATM    7  C17 UNL     1      22.479  -0.917  54.415  1.00  0.00    -0.032 C 
HETATM    8  C18 UNL     1      23.114  -1.312  55.669  1.00  0.00     0.016 C 
HETATM    9  C19 UNL     1      21.584  -2.111  53.979  1.00  0.00     0.016 C 
HETATM   10  C20 UNL     1      23.355  -0.601  53.226  1.00  0.00     0.014 C 
HETATM   11  C21 UNL     1      23.709   0.846  53.186  1.00  0.00     0.035 C 
HETATM   12  H15 UNL     1      21.306  -0.138  52.414  1.00  0.00     0.158 HD
ENDROOT
BRANCH   2  13
HETATM   13  C5  UNL     1      23.696   2.518  49.902  1.00  0.00     0.286 C 
BRANCH  13  14
HETATM   14  N1  UNL     1      22.524   2.559  49.058  1.00  0.00     0.091 N 
HETATM   15  H7  UNL     1      22.802   2.696  48.071  1.00  0.00     0.314 HD
HETATM   16  H8  UNL     1      22.025   1.624  49.111  1.00  0.00     0.314 HD
ENDBRANCH  13  14
BRANCH  13  17
HETATM   17  C6  UNL     1      24.108   3.927  50.232  1.00  0.00     0.003 A 
HETATM   18  C7  UNL     1      24.035   5.077  50.803  1.00  0.00    -0.003 A 
HETATM   19  C8  UNL     1      25.059   5.022  50.020  1.00  0.00    -0.004 A 
HETATM   20  C9  UNL     1      26.239   5.546  49.380  1.00  0.00    -0.022 A 
HETATM   21  C10 UNL     1      27.271   4.739  48.927  1.00  0.00     0.031 A 
HETATM   22  C13 UNL     1      26.422   6.899  49.174  1.00  0.00     0.031 A 
HETATM   23  C11 UNL     1      28.412   5.238  48.309  1.00  0.00     0.117 A 
HETATM   24  N2  UNL     1      28.526   6.569  48.138  1.00  0.00    -0.273 NA
HETATM   25  C12 UNL     1      27.551   7.393  48.561  1.00  0.00     0.117 A 
ENDBRANCH  13  17
ENDBRANCH   2  13
BRANCH   1  26
HETATM   26  C2  UNL     1      25.692   1.035  51.612  1.00  0.00     0.030 C 
HETATM   27  C1  UNL     1      26.503   2.105  52.320  1.00  0.00     0.010 C 
ENDBRANCH   1  26
TORSDOF 4
ENDMDL
MODEL 4
REMARK VINA RESULT:      -7.5      3.784      7.658
REMARK  4 active torsions:
REMARK  status: ('A' for Active; 'I' for Inactive)
REMARK    1  A    between atoms: C2_2  and  C3_3 
REMARK    2  A    between atoms: C4_4  and  C5_5 
REMARK    3  A    between atoms: C5_5  and  N1_6 
REMARK    4  A    between atoms: C5_5  and  C6_7 
ROOT
HETATM    1  C3  UNL     1      24.007   4.294  49.688  1.00  0.00    -0.071 C 
HETATM    2  C4  UNL     1      23.212   4.210  50.761  1.00  0.00    -0.017 C 
HETATM    3  C14 UNL     1      21.796   4.168  50.987  1.00  0.00     0.026 C 
HETATM    4  C15 UNL     1      20.628   4.205  50.317  1.00  0.00     0.083 C 
HETATM    5  N3  UNL     1      20.735   4.332  48.890  1.00  0.00    -0.398 N 
HETATM    6  C16 UNL     1      20.660   3.868  47.493  1.00  0.00     0.127 C 
HETATM    7  C17 UNL     1      21.654   4.826  46.772  1.00  0.00    -0.032 C 
HETATM    8  C18 UNL     1      22.010   4.425  45.415  1.00  0.00     0.016 C 
HETATM    9  C19 UNL     1      20.804   6.121  46.640  1.00  0.00     0.016 C 
HETATM   10  C20 UNL     1      22.760   5.154  47.746  1.00  0.00     0.014 C 
HETATM   11  C21 UNL     1      23.186   3.946  48.507  1.00  0.00     0.035 C 
HETATM   12  H15 UNL     1      20.936   5.354  49.051  1.00  0.00     0.158 HD
ENDROOT
BRANCH   2  13
HETATM   13  C5  UNL     1      23.900   4.354  52.100  1.00  0.00     0.286 C 
BRANCH  13  14
HETATM   14  N1  UNL     1      22.995   5.068  52.971  1.00  0.00     0.091 N 
HETATM   15  H7  UNL     1      22.669   5.934  52.509  1.00  0.00     0.314 HD
HETATM   16  H8  UNL     1      22.137   4.469  53.146  1.00  0.00     0.314 HD
ENDBRANCH  13  14
BRANCH  13  17
HETATM   17  C6  UNL     1      24.096   2.962  52.638  1.00  0.00     0.003 A 
HETATM   18  C7  UNL     1      23.758   1.774  52.994  1.00  0.00    -0.003 A 
HETATM   19  C8  UNL     1      25.019   1.964  53.185  1.00  0.00    -0.004 A 
HETATM   20  C9  UNL     1      26.347   1.583  53.597  1.00  0.00    -0.022 A 
HETATM   21  C10 UNL     1      27.493   2.161  53.074  1.00  0.00     0.031 A 
HETATM   22  C13 UNL     1      26.568   0.606  54.548  1.00  0.00     0.031 A 
HETATM   23  C11 UNL     1      28.776   1.799  53.467  1.00  0.00     0.117 A 
HETATM   24  N2  UNL     1      28.920   0.839  54.400  1.00  0.00    -0.273 NA
HETATM   25  C12 UNL     1      27.838   0.247  54.937  1.00  0.00     0.117 A 
ENDBRANCH  13  17
ENDBRANCH   2  13
BRANCH   1  26
HETATM   26  C2  UNL     1      25.446   4.515  49.513  1.00  0.00     0.030 C 
HETATM   27  C1  UNL     1      26.177   3.187  49.571  1.00  0.00     0.010 C 
ENDBRANCH   1  26
TORSDOF 4
ENDMDL
MODEL 5
REMARK VINA RESULT:      -7.5      3.172      5.623
REMARK  4 active torsions:
REMARK  status: ('A' for Active; 'I' for Inactive)
REMARK    1  A    between atoms: C2_2  and  C3_3 
REMARK    2  A    between atoms: C4_4  and  C5_5 
REMARK    3  A    between atoms: C5_5  and  N1_6 
REMARK    4  A    between atoms: C5_5  and  C6_7 
ROOT
HETATM    1  C3  UNL     1      24.801   1.811  51.448  1.00  0.00    -0.071 C 
HETATM    2  C4  UNL     1      23.709   1.194  51.916  1.00  0.00    -0.017 C 
HETATM    3  C14 UNL     1      23.431   0.256  52.965  1.00  0.00     0.026 C 
HETATM    4  C15 UNL     1      24.053  -0.450  53.929  1.00  0.00     0.083 C 
HETATM    5  N3  UNL     1      25.476  -0.272  54.009  1.00  0.00    -0.398 N 
HETATM    6  C16 UNL     1      26.736   0.217  54.598  1.00  0.00     0.127 C 
HETATM    7  C17 UNL     1      27.681   0.272  53.362  1.00  0.00    -0.032 C 
HETATM    8  C18 UNL     1      28.930   0.994  53.582  1.00  0.00     0.016 C 
HETATM    9  C19 UNL     1      28.062  -1.226  53.190  1.00  0.00     0.016 C 
HETATM   10  C20 UNL     1      26.840   0.625  52.159  1.00  0.00     0.014 C 
HETATM   11  C21 UNL     1      25.849   1.689  52.486  1.00  0.00     0.035 C 
HETATM   12  H15 UNL     1      25.548  -0.913  53.176  1.00  0.00     0.158 HD
ENDROOT
BRANCH   2  13
HETATM   13  C5  UNL     1      22.458   1.356  51.082  1.00  0.00     0.286 C 
BRANCH  13  14
HETATM   14  N1  UNL     1      21.613   0.215  51.355  1.00  0.00     0.091 N 
HETATM   15  H7  UNL     1      20.905   0.461  52.068  1.00  0.00     0.314 HD
HETATM   16  H8  UNL     1      21.085  -0.045  50.471  1.00  0.00     0.314 HD
ENDBRANCH  13  14
BRANCH  13  17
HETATM   17  C6  UNL     1      21.767   2.600  51.573  1.00  0.00     0.003 A 
HETATM   18  C7  UNL     1      20.889   3.292  52.206  1.00  0.00    -0.003 A 
HETATM   19  C8  UNL     1      21.719   4.064  51.591  1.00  0.00    -0.004 A 
HETATM   20  C9  UNL     1      22.256   5.338  51.181  1.00  0.00    -0.022 A 
HETATM   21  C10 UNL     1      23.586   5.519  50.838  1.00  0.00     0.031 A 
HETATM   22  C13 UNL     1      21.472   6.473  51.104  1.00  0.00     0.031 A 
HETATM   23  C11 UNL     1      24.110   6.744  50.442  1.00  0.00     0.117 A 
HETATM   24  N2  UNL     1      23.291   7.811  50.387  1.00  0.00    -0.273 NA
HETATM   25  C12 UNL     1      21.991   7.686  50.711  1.00  0.00     0.117 A 
ENDBRANCH  13  17
ENDBRANCH   2  13
BRANCH   1  26
HETATM   26  C2  UNL     1      25.068   2.624  50.259  1.00  0.00     0.030 C 
HETATM   27  C1  UNL     1      26.420   3.300  50.397  1.00  0.00     0.010 C 
ENDBRANCH   1  26
TORSDOF 4
ENDMDL
MODEL 6
REMARK VINA RESULT:      -7.4      2.801      7.361
REMARK  4 active torsions:
REMARK  status: ('A' for Active; 'I' for Inactive)
REMARK    1  A    between atoms: C2_2  and  C3_3 
REMARK    2  A    between atoms: C4_4  and  C5_5 
REMARK    3  A    between atoms: C5_5  and  N1_6 
REMARK    4  A    between atoms: C5_5  and  C6_7 
ROOT
HETATM    1  C3  UNL     1      23.226   2.757  51.445  1.00  0.00    -0.071 C 
HETATM    2  C4  UNL     1      22.624   1.617  51.805  1.00  0.00    -0.017 C 
HETATM    3  C14 UNL     1      21.702   0.707  51.192  1.00  0.00     0.026 C 
HETATM    4  C15 UNL     1      21.003   0.533  50.054  1.00  0.00     0.083 C 
HETATM    5  N3  UNL     1      21.172   1.557  49.060  1.00  0.00    -0.398 N 
HETATM    6  C16 UNL     1      21.659   2.128  47.791  1.00  0.00     0.127 C 
HETATM    7  C17 UNL     1      21.690   3.653  48.104  1.00  0.00    -0.032 C 
HETATM    8  C18 UNL     1      22.406   4.461  47.122  1.00  0.00     0.016 C 
HETATM    9  C19 UNL     1      20.188   4.032  47.977  1.00  0.00     0.016 C 
HETATM   10  C20 UNL     1      22.035   3.813  49.566  1.00  0.00     0.014 C 
HETATM   11  C21 UNL     1      23.110   2.865  49.974  1.00  0.00     0.035 C 
HETATM   12  H15 UNL     1      20.519   2.149  49.639  1.00  0.00     0.158 HD
ENDROOT
BRANCH   2  13
HETATM   13  C5  UNL     1      22.785   1.222  53.256  1.00  0.00     0.286 C 
BRANCH  13  14
HETATM   14  N1  UNL     1      21.588   0.507  53.639  1.00  0.00     0.091 N 
HETATM   15  H7  UNL     1      20.991   1.109  54.232  1.00  0.00     0.314 HD
HETATM   16  H8  UNL     1      21.028   0.277  52.768  1.00  0.00     0.314 HD
ENDBRANCH  13  14
BRANCH  13  17
HETATM   17  C6  UNL     1      23.957   0.281  53.323  1.00  0.00     0.003 A 
HETATM   18  C7  UNL     1      24.569  -0.849  53.279  1.00  0.00    -0.003 A 
HETATM   19  C8  UNL     1      25.397   0.108  53.526  1.00  0.00    -0.004 A 
HETATM   20  C9  UNL     1      26.697   0.669  53.801  1.00  0.00    -0.022 A 
HETATM   21  C10 UNL     1      27.032   1.979  53.496  1.00  0.00     0.031 A 
HETATM   22  C13 UNL     1      27.704  -0.070  54.391  1.00  0.00     0.031 A 
HETATM   23  C11 UNL     1      28.282   2.525  53.759  1.00  0.00     0.117 A 
HETATM   24  N2  UNL     1      29.219   1.750  54.337  1.00  0.00    -0.273 NA
HETATM   25  C12 UNL     1      28.943   0.472  54.651  1.00  0.00     0.117 A 
ENDBRANCH  13  17
ENDBRANCH   2  13
BRANCH   1  26
HETATM   26  C2  UNL     1      24.023   3.751  52.171  1.00  0.00     0.030 C 
HETATM   27  C1  UNL     1      23.110   4.827  52.729  1.00  0.00     0.010 C 
ENDBRANCH   1  26
TORSDOF 4
ENDMDL
MODEL 7
REMARK VINA RESULT:      -7.4      2.606      6.921
REMARK  4 active torsions:
REMARK  status: ('A' for Active; 'I' for Inactive)
REMARK    1  A    between atoms: C2_2  and  C3_3 
REMARK    2  A    between atoms: C4_4  and  C5_5 
REMARK    3  A    between atoms: C5_5  and  N1_6 
REMARK    4  A    between atoms: C5_5  and  C6_7 
ROOT
HETATM    1  C3  UNL     1      21.946   3.249  51.296  1.00  0.00    -0.071 C 
HETATM    2  C4  UNL     1      21.700   1.934  51.304  1.00  0.00    -0.017 C 
HETATM    3  C14 UNL     1      21.508   0.920  50.308  1.00  0.00     0.026 C 
HETATM    4  C15 UNL     1      21.458   0.764  48.971  1.00  0.00     0.083 C 
HETATM    5  N3  UNL     1      21.644   1.961  48.198  1.00  0.00    -0.398 N 
HETATM    6  C16 UNL     1      22.373   2.884  47.311  1.00  0.00     0.127 C 
HETATM    7  C17 UNL     1      21.724   4.257  47.655  1.00  0.00    -0.032 C 
HETATM    8  C18 UNL     1      22.441   5.417  47.135  1.00  0.00     0.016 C 
HETATM    9  C19 UNL     1      20.385   4.178  46.871  1.00  0.00     0.016 C 
HETATM   10  C20 UNL     1      21.350   4.231  49.117  1.00  0.00     0.014 C 
HETATM   11  C21 UNL     1      22.420   3.596  49.938  1.00  0.00     0.035 C 
HETATM   12  H15 UNL     1      20.647   2.203  48.436  1.00  0.00     0.158 HD
ENDROOT
BRANCH   2  13
HETATM   13  C5  UNL     1      21.374   1.336  52.655  1.00  0.00     0.286 C 
BRANCH  13  14
HETATM   14  N1  UNL     1      20.298   0.392  52.456  1.00  0.00     0.091 N 
HETATM   15  H7  UNL     1      19.386   0.878  52.512  1.00  0.00     0.314 HD
HETATM   16  H8  UNL     1      20.371  -0.017  51.479  1.00  0.00     0.314 HD
ENDBRANCH  13  14
BRANCH  13  17
HETATM   17  C6  UNL     1      22.600   0.589  53.106  1.00  0.00     0.003 A 
HETATM   18  C7  UNL     1      23.269  -0.361  53.656  1.00  0.00    -0.003 A 
HETATM   19  C8  UNL     1      24.062   0.534  53.174  1.00  0.00    -0.004 A 
HETATM   20  C9  UNL     1      25.350   1.114  52.883  1.00  0.00    -0.022 A 
HETATM   21  C10 UNL     1      25.565   1.977  51.821  1.00  0.00     0.031 A 
HETATM   22  C13 UNL     1      26.466   0.845  53.652  1.00  0.00     0.031 A 
HETATM   23  C11 UNL     1      26.803   2.540  51.535  1.00  0.00     0.117 A 
HETATM   24  N2  UNL     1      27.850   2.236  52.326  1.00  0.00    -0.273 NA
HETATM   25  C12 UNL     1      27.692   1.403  53.370  1.00  0.00     0.117 A 
ENDBRANCH  13  17
ENDBRANCH   2  13
BRANCH   1  26
HETATM   26  C2  UNL     1      21.956   4.280  52.339  1.00  0.00     0.030 C 
HETATM   27  C1  UNL     1      23.389   4.616  52.709  1.00  0.00     0.010 C 
ENDBRANCH   1  26
TORSDOF 4
ENDMDL
MODEL 8
REMARK VINA RESULT:      -7.3      1.845      7.273
REMARK  4 active torsions:
REMARK  status: ('A' for Active; 'I' for Inactive)
REMARK    1  A    between atoms: C2_2  and  C3_3 
REMARK    2  A    between atoms: C4_4  and  C5_5 
REMARK    3  A    between atoms: C5_5  and  N1_6 
REMARK    4  A    between atoms: C5_5  and  C6_7 
ROOT
HETATM    1  C3  UNL     1      21.471   0.608  51.771  1.00  0.00    -0.071 C 
HETATM    2  C4  UNL     1      21.770   1.701  51.060  1.00  0.00    -0.017 C 
HETATM    3  C14 UNL     1      21.023   2.722  50.386  1.00  0.00     0.026 C 
HETATM    4  C15 UNL     1      19.754   3.085  50.115  1.00  0.00     0.083 C 
HETATM    5  N3  UNL     1      18.736   2.213  50.634  1.00  0.00    -0.398 N 
HETATM    6  C16 UNL     1      17.639   1.819  51.536  1.00  0.00     0.127 C 
HETATM    7  C17 UNL     1      17.712   0.265  51.488  1.00  0.00    -0.032 C 
HETATM    8  C18 UNL     1      16.924  -0.413  52.513  1.00  0.00     0.016 C 
HETATM    9  C19 UNL     1      17.025  -0.042  50.128  1.00  0.00     0.016 C 
HETATM   10  C20 UNL     1      19.162  -0.120  51.315  1.00  0.00     0.014 C 
HETATM   11  C21 UNL     1      20.049   0.721  52.167  1.00  0.00     0.035 C 
HETATM   12  H15 UNL     1      18.962   1.565  49.834  1.00  0.00     0.158 HD
ENDROOT
BRANCH   2  13
HETATM   13  C5  UNL     1      23.231   1.873  50.707  1.00  0.00     0.286 C 
BRANCH  13  14
HETATM   14  N1  UNL     1      23.336   3.060  49.889  1.00  0.00     0.091 N 
HETATM   15  H7  UNL     1      24.308   3.412  49.900  1.00  0.00     0.314 HD
HETATM   16  H8  UNL     1      23.107   2.811  48.884  1.00  0.00     0.314 HD
ENDBRANCH  13  14
BRANCH  13  17
HETATM   17  C6  UNL     1      23.965   2.106  51.999  1.00  0.00     0.003 A 
HETATM   18  C7  UNL     1      24.244   2.685  53.113  1.00  0.00    -0.003 A 
HETATM   19  C8  UNL     1      25.032   1.684  52.911  1.00  0.00    -0.004 A 
HETATM   20  C9  UNL     1      26.115   0.791  53.240  1.00  0.00    -0.022 A 
HETATM   21  C10 UNL     1      26.191  -0.508  52.764  1.00  0.00     0.031 A 
HETATM   22  C13 UNL     1      27.159   1.175  54.059  1.00  0.00     0.031 A 
HETATM   23  C11 UNL     1      27.232  -1.374  53.077  1.00  0.00     0.117 A 
HETATM   24  N2  UNL     1      28.219  -0.936  53.881  1.00  0.00    -0.273 NA
HETATM   25  C12 UNL     1      28.191   0.318  54.368  1.00  0.00     0.117 A 
ENDBRANCH  13  17
ENDBRANCH   2  13
BRANCH   1  26
HETATM   26  C2  UNL     1      22.267  -0.508  52.291  1.00  0.00     0.030 C 
HETATM   27  C1  UNL     1      22.133  -0.570  53.801  1.00  0.00     0.010 C 
ENDBRANCH   1  26
TORSDOF 4
ENDMDL
MODEL 9
REMARK VINA RESULT:      -7.2      2.270      6.779
REMARK  4 active torsions:
REMARK  status: ('A' for Active; 'I' for Inactive)
REMARK    1  A    between atoms: C2_2  and  C3_3 
REMARK    2  A    between atoms: C4_4  and  C5_5 
REMARK    3  A    between atoms: C5_5  and  N1_6 
REMARK    4  A    between atoms: C5_5  and  C6_7 
ROOT
HETATM    1  C3  UNL     1      22.314   2.486  49.204  1.00  0.00    -0.071 C 
HETATM    2  C4  UNL     1      22.881   3.401  49.999  1.00  0.00    -0.017 C 
HETATM    3  C14 UNL     1      22.569   3.992  51.268  1.00  0.00     0.026 C 
HETATM    4  C15 UNL     1      21.628   3.965  52.232  1.00  0.00     0.083 C 
HETATM    5  N3  UNL     1      20.525   3.075  51.997  1.00  0.00    -0.398 N 
HETATM    6  C16 UNL     1      19.708   1.867  52.209  1.00  0.00     0.127 C 
HETATM    7  C17 UNL     1      18.989   1.708  50.837  1.00  0.00    -0.032 C 
HETATM    8  C18 UNL     1      18.321   0.425  50.644  1.00  0.00     0.016 C 
HETATM    9  C19 UNL     1      17.867   2.778  50.943  1.00  0.00     0.016 C 
HETATM   10  C20 UNL     1      19.932   2.203  49.767  1.00  0.00     0.014 C 
HETATM   11  C21 UNL     1      21.328   1.747  50.024  1.00  0.00     0.035 C 
HETATM   12  H15 UNL     1      20.150   3.804  51.335  1.00  0.00     0.158 HD
ENDROOT
BRANCH   2  13
HETATM   13  C5  UNL     1      24.052   4.150  49.404  1.00  0.00     0.286 C 
BRANCH  13  14
HETATM   14  N1  UNL     1      23.971   5.514  49.876  1.00  0.00     0.091 N 
HETATM   15  H7  UNL     1      24.626   6.112  49.344  1.00  0.00     0.314 HD
HETATM   16  H8  UNL     1      22.994   5.887  49.694  1.00  0.00     0.314 HD
ENDBRANCH  13  14
BRANCH  13  17
HETATM   17  C6  UNL     1      25.300   3.517  49.958  1.00  0.00     0.003 A 
HETATM   18  C7  UNL     1      26.562   3.346  50.129  1.00  0.00    -0.003 A 
HETATM   19  C8  UNL     1      25.889   2.493  50.824  1.00  0.00    -0.004 A 
HETATM   20  C9  UNL     1      25.735   1.388  51.737  1.00  0.00    -0.022 A 
HETATM   21  C10 UNL     1      24.606   1.211  52.522  1.00  0.00     0.031 A 
HETATM   22  C13 UNL     1      26.711   0.423  51.893  1.00  0.00     0.031 A 
HETATM   23  C11 UNL     1      24.451   0.148  53.403  1.00  0.00     0.117 A 
HETATM   24  N2  UNL     1      25.441  -0.758  53.506  1.00  0.00    -0.273 NA
HETATM   25  C12 UNL     1      26.557  -0.630  52.766  1.00  0.00     0.117 A 
ENDBRANCH  13  17
ENDBRANCH   2  13
BRANCH   1  26
HETATM   26  C2  UNL     1      22.573   2.042  47.831  1.00  0.00     0.030 C 
HETATM   27  C1  UNL     1      21.962   3.027  46.853  1.00  0.00     0.010 C 
ENDBRANCH   1  26
TORSDOF 4
ENDMDL
