MODEL 1
REMARK VINA RESULT:      -9.4      0.000      0.000
REMARK  2 active torsions:
REMARK  status: ('A' for Active; 'I' for Inactive)
REMARK    1  A    between atoms: O1_1  and  C1_2 
REMARK    2  A    between atoms: C9_11  and  C10_12 
ROOT
HETATM    1  C1  UNL     1      31.857  11.197  45.898  1.00  0.00     0.066 A 
HETATM    2  C2  UNL     1      33.156  10.812  45.615  1.00  0.00     0.037 A 
HETATM    3  C3  UNL     1      33.351   9.520  45.173  1.00  0.00     0.010 A 
HETATM    4  C4  UNL     1      32.329   8.610  45.005  1.00  0.00    -0.051 A 
HETATM    5  C5  UNL     1      31.028   8.976  45.282  1.00  0.00    -0.048 A 
HETATM    6  C6  UNL     1      30.850  10.271  45.723  1.00  0.00     0.044 A 
HETATM    7  C7  UNL     1      29.879   8.069  45.126  1.00  0.00     0.058 C 
HETATM    8  C8  UNL     1      28.639   8.478  45.854  1.00  0.00     0.124 C 
HETATM    9  N1  UNL     1      28.756   8.488  47.288  1.00  0.00    -0.389 N 
HETATM   10  C9  UNL     1      28.888   7.380  48.165  1.00  0.00     0.034 C 
HETATM   11  C16 UNL     1      29.976   6.951  48.733  1.00  0.00     0.007 C 
HETATM   12  C17 UNL     1      31.341   7.505  48.612  1.00  0.00     0.057 C 
HETATM   13  C18 UNL     1      32.234   6.570  47.975  1.00  0.00    -0.013 C 
HETATM   14  C19 UNL     1      33.201   5.779  47.695  1.00  0.00    -0.031 C 
HETATM   15  C20 UNL     1      34.275   5.626  48.717  1.00  0.00     0.159 C 
HETATM   16  N2  UNL     1      34.868   4.277  48.537  1.00  0.00    -0.385 N 
HETATM   17  C21 UNL     1      34.759   3.976  47.150  1.00  0.00     0.036 C 
HETATM   18  C22 UNL     1      35.056   3.347  45.970  1.00  0.00     0.007 C 
HETATM   19  C23 UNL     1      34.828   4.015  44.601  1.00  0.00     0.064 C 
HETATM   20  C24 UNL     1      34.422   5.415  44.915  1.00  0.00    -0.064 C 
HETATM   21  C25 UNL     1      33.274   5.076  45.550  1.00  0.00    -0.009 C 
HETATM   22  C26 UNL     1      33.753   4.918  46.786  1.00  0.00     0.009 C 
HETATM   23  C27 UNL     1      33.931   6.747  45.274  1.00  0.00     0.040 C 
HETATM   24  C28 UNL     1      32.772   7.280  44.529  1.00  0.00     0.043 C 
HETATM   25  H9  UNL     1      28.781   9.169  48.075  1.00  0.00     0.159 HD
HETATM   26  H21 UNL     1      35.336   3.464  49.019  1.00  0.00     0.160 HD
ENDROOT
BRANCH  10  27
HETATM   27  C10 UNL     1      27.661   6.656  48.460  1.00  0.00    -0.010 A 
HETATM   28  C11 UNL     1      26.407   7.193  48.483  1.00  0.00     0.013 A 
HETATM   29  C12 UNL     1      25.241   6.519  48.745  1.00  0.00     0.001 A 
HETATM   30  C13 UNL     1      25.295   5.174  49.015  1.00  0.00     0.000 A 
HETATM   31  C14 UNL     1      26.521   4.549  49.012  1.00  0.00     0.001 A 
HETATM   32  C15 UNL     1      27.639   5.293  48.741  1.00  0.00     0.013 A 
ENDBRANCH  10  27
BRANCH   1  33
HETATM   33  O1  UNL     1      31.641  12.495  46.345  1.00  0.00    -0.361 OA
HETATM   34  H1  UNL     1      32.142  13.252  45.869  1.00  0.00     0.217 HD
ENDBRANCH   1  33
TORSDOF 2
ENDMDL
MODEL 2
REMARK VINA RESULT:      -9.4      7.896     11.261
REMARK  2 active torsions:
REMARK  status: ('A' for Active; 'I' for Inactive)
REMARK    1  A    between atoms: O1_1  and  C1_2 
REMARK    2  A    between atoms: C9_11  and  C10_12 
ROOT
HETATM    1  C1  UNL     1      18.651   3.676  51.026  1.00  0.00     0.066 A 
HETATM    2  C2  UNL     1      18.609   4.897  50.376  1.00  0.00     0.037 A 
HETATM    3  C3  UNL     1      19.624   5.175  49.485  1.00  0.00     0.010 A 
HETATM    4  C4  UNL     1      20.661   4.308  49.217  1.00  0.00    -0.051 A 
HETATM    5  C5  UNL     1      20.719   3.085  49.855  1.00  0.00    -0.048 A 
HETATM    6  C6  UNL     1      19.697   2.823  50.743  1.00  0.00     0.044 A 
HETATM    7  C7  UNL     1      21.788   2.099  49.623  1.00  0.00     0.058 C 
HETATM    8  C8  UNL     1      21.926   1.049  50.677  1.00  0.00     0.124 C 
HETATM    9  N1  UNL     1      22.314   1.540  51.973  1.00  0.00    -0.389 N 
HETATM   10  C9  UNL     1      23.568   2.079  52.367  1.00  0.00     0.034 C 
HETATM   11  C16 UNL     1      23.870   3.333  52.523  1.00  0.00     0.007 C 
HETATM   12  C17 UNL     1      22.994   4.507  52.336  1.00  0.00     0.057 C 
HETATM   13  C18 UNL     1      23.452   5.339  51.250  1.00  0.00    -0.013 C 
HETATM   14  C19 UNL     1      23.865   6.312  50.529  1.00  0.00    -0.031 C 
HETATM   15  C20 UNL     1      24.052   7.629  51.201  1.00  0.00     0.159 C 
HETATM   16  N2  UNL     1      25.101   8.364  50.450  1.00  0.00    -0.385 N 
HETATM   17  C21 UNL     1      24.994   7.940  49.096  1.00  0.00     0.036 C 
HETATM   18  C22 UNL     1      25.151   8.011  47.737  1.00  0.00     0.007 C 
HETATM   19  C23 UNL     1      24.182   7.321  46.759  1.00  0.00     0.064 C 
HETATM   20  C24 UNL     1      23.080   6.791  47.612  1.00  0.00    -0.064 C 
HETATM   21  C25 UNL     1      23.859   5.925  48.303  1.00  0.00    -0.009 C 
HETATM   22  C26 UNL     1      24.257   6.734  49.288  1.00  0.00     0.009 C 
HETATM   23  C27 UNL     1      22.076   6.204  48.500  1.00  0.00     0.040 C 
HETATM   24  C28 UNL     1      21.640   4.818  48.231  1.00  0.00     0.043 C 
HETATM   25  H9  UNL     1      21.913   1.662  52.926  1.00  0.00     0.159 HD
HETATM   26  H21 UNL     1      25.883   9.069  50.518  1.00  0.00     0.160 HD
ENDROOT
BRANCH  10  27
HETATM   27  C10 UNL     1      24.620   1.109  52.627  1.00  0.00    -0.010 A 
HETATM   28  C11 UNL     1      24.581   0.128  53.575  1.00  0.00     0.013 A 
HETATM   29  C12 UNL     1      25.560  -0.801  53.822  1.00  0.00     0.001 A 
HETATM   30  C13 UNL     1      26.705  -0.778  53.067  1.00  0.00     0.000 A 
HETATM   31  C14 UNL     1      26.831   0.179  52.086  1.00  0.00     0.001 A 
HETATM   32  C15 UNL     1      25.807   1.072  51.902  1.00  0.00     0.013 A 
ENDBRANCH  10  27
BRANCH   1  33
HETATM   33  O1  UNL     1      17.636   3.378  51.928  1.00  0.00    -0.361 OA
HETATM   34  H1  UNL     1      16.724   3.821  51.782  1.00  0.00     0.217 HD
ENDBRANCH   1  33
TORSDOF 2
ENDMDL
MODEL 3
REMARK VINA RESULT:      -9.3      9.205     12.283
REMARK  2 active torsions:
REMARK  status: ('A' for Active; 'I' for Inactive)
REMARK    1  A    between atoms: O1_1  and  C1_2 
REMARK    2  A    between atoms: C9_11  and  C10_12 
ROOT
HETATM    1  C1  UNL     1      25.892   0.355  52.145  1.00  0.00     0.066 A 
HETATM    2  C2  UNL     1      26.515   1.491  51.661  1.00  0.00     0.037 A 
HETATM    3  C3  UNL     1      25.834   2.686  51.778  1.00  0.00     0.010 A 
HETATM    4  C4  UNL     1      24.582   2.796  52.344  1.00  0.00    -0.051 A 
HETATM    5  C5  UNL     1      23.945   1.673  52.833  1.00  0.00    -0.048 A 
HETATM    6  C6  UNL     1      24.640   0.488  52.708  1.00  0.00     0.044 A 
HETATM    7  C7  UNL     1      22.612   1.703  53.456  1.00  0.00     0.058 C 
HETATM    8  C8  UNL     1      21.915   0.384  53.537  1.00  0.00     0.124 C 
HETATM    9  N1  UNL     1      21.584  -0.204  52.265  1.00  0.00    -0.389 N 
HETATM   10  C9  UNL     1      20.616   0.233  51.323  1.00  0.00     0.034 C 
HETATM   11  C16 UNL     1      20.830   0.895  50.225  1.00  0.00     0.007 C 
HETATM   12  C17 UNL     1      22.124   1.354  49.681  1.00  0.00     0.057 C 
HETATM   13  C18 UNL     1      22.197   2.794  49.642  1.00  0.00    -0.013 C 
HETATM   14  C19 UNL     1      22.319   4.015  49.279  1.00  0.00    -0.031 C 
HETATM   15  C20 UNL     1      22.591   4.275  47.837  1.00  0.00     0.159 C 
HETATM   16  N2  UNL     1      22.045   5.619  47.519  1.00  0.00    -0.385 N 
HETATM   17  C21 UNL     1      22.158   6.388  48.711  1.00  0.00     0.036 C 
HETATM   18  C22 UNL     1      22.232   7.521  49.478  1.00  0.00     0.007 C 
HETATM   19  C23 UNL     1      22.963   7.551  50.832  1.00  0.00     0.064 C 
HETATM   20  C24 UNL     1      23.626   6.221  50.947  1.00  0.00    -0.064 C 
HETATM   21  C25 UNL     1      22.474   5.506  50.969  1.00  0.00    -0.009 C 
HETATM   22  C26 UNL     1      22.307   5.331  49.656  1.00  0.00     0.009 C 
HETATM   23  C27 UNL     1      24.172   4.867  51.059  1.00  0.00     0.040 C 
HETATM   24  C28 UNL     1      24.040   4.173  52.357  1.00  0.00     0.043 C 
HETATM   25  H9  UNL     1      21.864  -1.010  51.669  1.00  0.00     0.159 HD
HETATM   26  H21 UNL     1      21.616   6.225  46.770  1.00  0.00     0.160 HD
ENDROOT
BRANCH  10  27
HETATM   27  C10 UNL     1      19.236  -0.110  51.628  1.00  0.00    -0.010 A 
HETATM   28  C11 UNL     1      18.809  -0.778  52.739  1.00  0.00     0.013 A 
HETATM   29  C12 UNL     1      17.510  -1.095  53.045  1.00  0.00     0.001 A 
HETATM   30  C13 UNL     1      16.512  -0.725  52.179  1.00  0.00     0.000 A 
HETATM   31  C14 UNL     1      16.852  -0.047  51.031  1.00  0.00     0.001 A 
HETATM   32  C15 UNL     1      18.173   0.232  50.798  1.00  0.00     0.013 A 
ENDBRANCH  10  27
BRANCH   1  33
HETATM   33  O1  UNL     1      26.563  -0.858  52.036  1.00  0.00    -0.361 OA
HETATM   34  H1  UNL     1      26.464  -1.527  52.806  1.00  0.00     0.217 HD
ENDBRANCH   1  33
TORSDOF 2
ENDMDL
MODEL 4
REMARK VINA RESULT:      -9.1      8.064     11.058
REMARK  2 active torsions:
REMARK  status: ('A' for Active; 'I' for Inactive)
REMARK    1  A    between atoms: O1_1  and  C1_2 
REMARK    2  A    between atoms: C9_11  and  C10_12 
ROOT
HETATM    1  C1  UNL     1      25.270   7.794  50.402  1.00  0.00     0.066 A 
HETATM    2  C2  UNL     1      24.634   8.440  49.356  1.00  0.00     0.037 A 
HETATM    3  C3  UNL     1      23.301   8.150  49.150  1.00  0.00     0.010 A 
HETATM    4  C4  UNL     1      22.586   7.261  49.924  1.00  0.00    -0.051 A 
HETATM    5  C5  UNL     1      23.204   6.608  50.972  1.00  0.00    -0.048 A 
HETATM    6  C6  UNL     1      24.536   6.909  51.164  1.00  0.00     0.044 A 
HETATM    7  C7  UNL     1      22.513   5.648  51.849  1.00  0.00     0.058 C 
HETATM    8  C8  UNL     1      23.407   4.744  52.633  1.00  0.00     0.124 C 
HETATM    9  N1  UNL     1      24.196   3.837  51.841  1.00  0.00    -0.389 N 
HETATM   10  C9  UNL     1      23.752   2.719  51.087  1.00  0.00     0.034 C 
HETATM   11  C16 UNL     1      23.577   2.659  49.800  1.00  0.00     0.007 C 
HETATM   12  C17 UNL     1      23.796   3.727  48.804  1.00  0.00     0.057 C 
HETATM   13  C18 UNL     1      22.562   4.114  48.167  1.00  0.00    -0.013 C 
HETATM   14  C19 UNL     1      21.636   4.374  47.322  1.00  0.00    -0.031 C 
HETATM   15  C20 UNL     1      21.942   4.144  45.882  1.00  0.00     0.159 C 
HETATM   16  N2  UNL     1      20.657   3.850  45.199  1.00  0.00    -0.385 N 
HETATM   17  C21 UNL     1      19.654   4.573  45.904  1.00  0.00     0.036 C 
HETATM   18  C22 UNL     1      18.447   5.189  46.099  1.00  0.00     0.007 C 
HETATM   19  C23 UNL     1      18.267   6.356  47.087  1.00  0.00     0.064 C 
HETATM   20  C24 UNL     1      19.644   6.684  47.556  1.00  0.00    -0.064 C 
HETATM   21  C25 UNL     1      19.860   5.490  48.161  1.00  0.00    -0.009 C 
HETATM   22  C26 UNL     1      20.354   4.811  47.123  1.00  0.00     0.009 C 
HETATM   23  C27 UNL     1      21.001   6.900  48.062  1.00  0.00     0.040 C 
HETATM   24  C28 UNL     1      21.172   7.101  49.516  1.00  0.00     0.043 C 
HETATM   25  H9  UNL     1      25.189   3.679  51.573  1.00  0.00     0.159 HD
HETATM   26  H21 UNL     1      20.196   3.327  44.407  1.00  0.00     0.160 HD
ENDROOT
BRANCH  10  27
HETATM   27  C10 UNL     1      23.472   1.512  51.848  1.00  0.00    -0.010 A 
HETATM   28  C11 UNL     1      24.342   0.882  52.690  1.00  0.00     0.013 A 
HETATM   29  C12 UNL     1      24.086  -0.248  53.424  1.00  0.00     0.001 A 
HETATM   30  C13 UNL     1      22.849  -0.834  53.334  1.00  0.00     0.000 A 
HETATM   31  C14 UNL     1      21.907  -0.266  52.507  1.00  0.00     0.001 A 
HETATM   32  C15 UNL     1      22.241   0.863  51.807  1.00  0.00     0.013 A 
ENDBRANCH  10  27
BRANCH   1  33
HETATM   33  O1  UNL     1      26.613   8.073  50.625  1.00  0.00    -0.361 OA
HETATM   34  H1  UNL     1      27.170   8.398  49.829  1.00  0.00     0.217 HD
ENDBRANCH   1  33
TORSDOF 2
ENDMDL
MODEL 5
REMARK VINA RESULT:      -9.1      7.453     11.390
REMARK  2 active torsions:
REMARK  status: ('A' for Active; 'I' for Inactive)
REMARK    1  A    between atoms: O1_1  and  C1_2 
REMARK    2  A    between atoms: C9_11  and  C10_12 
ROOT
HETATM    1  C1  UNL     1      18.782   3.397  47.616  1.00  0.00     0.066 A 
HETATM    2  C2  UNL     1      19.275   4.575  47.083  1.00  0.00     0.037 A 
HETATM    3  C3  UNL     1      20.640   4.768  47.128  1.00  0.00     0.010 A 
HETATM    4  C4  UNL     1      21.521   3.857  47.672  1.00  0.00    -0.051 A 
HETATM    5  C5  UNL     1      21.047   2.676  48.208  1.00  0.00    -0.048 A 
HETATM    6  C6  UNL     1      19.680   2.499  48.155  1.00  0.00     0.044 A 
HETATM    7  C7  UNL     1      21.918   1.649  48.803  1.00  0.00     0.058 C 
HETATM    8  C8  UNL     1      21.228   0.665  49.691  1.00  0.00     0.124 C 
HETATM    9  N1  UNL     1      20.652   1.227  50.884  1.00  0.00    -0.389 N 
HETATM   10  C9  UNL     1      21.325   1.756  52.018  1.00  0.00     0.034 C 
HETATM   11  C16 UNL     1      21.516   3.009  52.304  1.00  0.00     0.007 C 
HETATM   12  C17 UNL     1      21.084   4.192  51.532  1.00  0.00     0.057 C 
HETATM   13  C18 UNL     1      22.213   4.940  51.039  1.00  0.00    -0.013 C 
HETATM   14  C19 UNL     1      23.070   5.854  50.773  1.00  0.00    -0.031 C 
HETATM   15  C20 UNL     1      22.827   7.205  51.352  1.00  0.00     0.159 C 
HETATM   16  N2  UNL     1      24.150   7.862  51.510  1.00  0.00    -0.385 N 
HETATM   17  C21 UNL     1      24.974   7.356  50.466  1.00  0.00     0.036 C 
HETATM   18  C22 UNL     1      26.025   7.336  49.588  1.00  0.00     0.007 C 
HETATM   19  C23 UNL     1      25.950   6.612  48.231  1.00  0.00     0.064 C 
HETATM   20  C24 UNL     1      24.532   6.167  48.105  1.00  0.00    -0.064 C 
HETATM   21  C25 UNL     1      24.568   5.326  49.167  1.00  0.00    -0.009 C 
HETATM   22  C26 UNL     1      24.232   6.185  50.132  1.00  0.00     0.009 C 
HETATM   23  C27 UNL     1      23.157   5.665  48.074  1.00  0.00     0.040 C 
HETATM   24  C28 UNL     1      22.939   4.277  47.617  1.00  0.00     0.043 C 
HETATM   25  H9  UNL     1      19.716   1.420  51.296  1.00  0.00     0.159 HD
HETATM   26  H21 UNL     1      24.714   8.549  52.078  1.00  0.00     0.160 HD
ENDROOT
BRANCH  10  27
HETATM   27  C10 UNL     1      21.847   0.777  52.958  1.00  0.00    -0.010 A 
HETATM   28  C11 UNL     1      23.117   0.276  52.962  1.00  0.00     0.013 A 
HETATM   29  C12 UNL     1      23.625  -0.637  53.851  1.00  0.00     0.001 A 
HETATM   30  C13 UNL     1      22.814  -1.119  54.847  1.00  0.00     0.000 A 
HETATM   31  C14 UNL     1      21.516  -0.669  54.919  1.00  0.00     0.001 A 
HETATM   32  C15 UNL     1      21.084   0.244  53.993  1.00  0.00     0.013 A 
ENDBRANCH  10  27
BRANCH   1  33
HETATM   33  O1  UNL     1      17.409   3.184  47.580  1.00  0.00    -0.361 OA
HETATM   34  H1  UNL     1      17.009   2.541  48.271  1.00  0.00     0.217 HD
ENDBRANCH   1  33
TORSDOF 2
ENDMDL
MODEL 6
REMARK VINA RESULT:      -9.0      7.937     11.456
REMARK  2 active torsions:
REMARK  status: ('A' for Active; 'I' for Inactive)
REMARK    1  A    between atoms: O1_1  and  C1_2 
REMARK    2  A    between atoms: C9_11  and  C10_12 
ROOT
HETATM    1  C1  UNL     1      26.037   2.901  50.627  1.00  0.00     0.066 A 
HETATM    2  C2  UNL     1      26.358   3.848  49.671  1.00  0.00     0.037 A 
HETATM    3  C3  UNL     1      25.383   4.764  49.336  1.00  0.00     0.010 A 
HETATM    4  C4  UNL     1      24.125   4.778  49.898  1.00  0.00    -0.051 A 
HETATM    5  C5  UNL     1      23.786   3.841  50.854  1.00  0.00    -0.048 A 
HETATM    6  C6  UNL     1      24.772   2.932  51.177  1.00  0.00     0.044 A 
HETATM    7  C7  UNL     1      22.468   3.788  51.507  1.00  0.00     0.058 C 
HETATM    8  C8  UNL     1      22.140   2.494  52.177  1.00  0.00     0.124 C 
HETATM    9  N1  UNL     1      22.025   1.366  51.291  1.00  0.00    -0.389 N 
HETATM   10  C9  UNL     1      21.014   1.106  50.328  1.00  0.00     0.034 C 
HETATM   11  C16 UNL     1      21.091   1.279  49.042  1.00  0.00     0.007 C 
HETATM   12  C17 UNL     1      22.239   1.782  48.261  1.00  0.00     0.057 C 
HETATM   13  C18 UNL     1      21.933   3.040  47.626  1.00  0.00    -0.013 C 
HETATM   14  C19 UNL     1      21.743   3.984  46.783  1.00  0.00    -0.031 C 
HETATM   15  C20 UNL     1      21.995   3.678  45.346  1.00  0.00     0.159 C 
HETATM   16  N2  UNL     1      21.129   4.578  44.544  1.00  0.00    -0.385 N 
HETATM   17  C21 UNL     1      20.988   5.775  45.300  1.00  0.00     0.036 C 
HETATM   18  C22 UNL     1      20.732   7.102  45.522  1.00  0.00     0.007 C 
HETATM   19  C23 UNL     1      21.375   7.881  46.684  1.00  0.00     0.064 C 
HETATM   20  C24 UNL     1      22.359   6.938  47.288  1.00  0.00    -0.064 C 
HETATM   21  C25 UNL     1      21.435   6.030  47.689  1.00  0.00    -0.009 C 
HETATM   22  C26 UNL     1      21.372   5.286  46.583  1.00  0.00     0.009 C 
HETATM   23  C27 UNL     1      23.237   5.943  47.907  1.00  0.00     0.040 C 
HETATM   24  C28 UNL     1      23.240   5.847  49.382  1.00  0.00     0.043 C 
HETATM   25  H9  UNL     1      22.530   0.485  51.062  1.00  0.00     0.159 HD
HETATM   26  H21 UNL     1      20.585   4.684  43.646  1.00  0.00     0.160 HD
ENDROOT
BRANCH  10  27
HETATM   27  C10 UNL     1      19.762   0.583  50.851  1.00  0.00    -0.010 A 
HETATM   28  C11 UNL     1      18.557   0.615  50.210  1.00  0.00     0.013 A 
HETATM   29  C12 UNL     1      17.372   0.113  50.685  1.00  0.00     0.001 A 
HETATM   30  C13 UNL     1      17.351  -0.486  51.919  1.00  0.00     0.000 A 
HETATM   31  C14 UNL     1      18.522  -0.562  52.638  1.00  0.00     0.001 A 
HETATM   32  C15 UNL     1      19.664  -0.037  52.093  1.00  0.00     0.013 A 
ENDBRANCH  10  27
BRANCH   1  33
HETATM   33  O1  UNL     1      27.006   1.968  50.979  1.00  0.00    -0.361 OA
HETATM   34  H1  UNL     1      27.845   2.311  51.458  1.00  0.00     0.217 HD
ENDBRANCH   1  33
TORSDOF 2
ENDMDL
MODEL 7
REMARK VINA RESULT:      -8.9      7.265     11.672
REMARK  2 active torsions:
REMARK  status: ('A' for Active; 'I' for Inactive)
REMARK    1  A    between atoms: O1_1  and  C1_2 
REMARK    2  A    between atoms: C9_11  and  C10_12 
ROOT
HETATM    1  C1  UNL     1      26.318   4.834  49.490  1.00  0.00     0.066 A 
HETATM    2  C2  UNL     1      25.803   5.745  48.584  1.00  0.00     0.037 A 
HETATM    3  C3  UNL     1      24.522   6.206  48.810  1.00  0.00     0.010 A 
HETATM    4  C4  UNL     1      23.746   5.808  49.877  1.00  0.00    -0.051 A 
HETATM    5  C5  UNL     1      24.243   4.900  50.790  1.00  0.00    -0.048 A 
HETATM    6  C6  UNL     1      25.524   4.448  50.550  1.00  0.00     0.044 A 
HETATM    7  C7  UNL     1      23.483   4.426  51.959  1.00  0.00     0.058 C 
HETATM    8  C8  UNL     1      23.991   3.166  52.581  1.00  0.00     0.124 C 
HETATM    9  N1  UNL     1      23.910   2.001  51.740  1.00  0.00    -0.389 N 
HETATM   10  C9  UNL     1      22.748   1.305  51.315  1.00  0.00     0.034 C 
HETATM   11  C16 UNL     1      22.168   1.379  50.154  1.00  0.00     0.007 C 
HETATM   12  C17 UNL     1      22.567   2.197  48.991  1.00  0.00     0.057 C 
HETATM   13  C18 UNL     1      21.572   3.193  48.681  1.00  0.00    -0.013 C 
HETATM   14  C19 UNL     1      20.693   3.924  48.106  1.00  0.00    -0.031 C 
HETATM   15  C20 UNL     1      20.362   3.606  46.688  1.00  0.00     0.159 C 
HETATM   16  N2  UNL     1      18.966   4.050  46.448  1.00  0.00    -0.385 N 
HETATM   17  C21 UNL     1      18.755   5.175  47.295  1.00  0.00     0.036 C 
HETATM   18  C22 UNL     1      18.161   6.329  47.731  1.00  0.00     0.007 C 
HETATM   19  C23 UNL     1      18.924   7.389  48.547  1.00  0.00     0.064 C 
HETATM   20  C24 UNL     1      20.342   6.930  48.553  1.00  0.00    -0.064 C 
HETATM   21  C25 UNL     1      20.103   5.786  49.240  1.00  0.00    -0.009 C 
HETATM   22  C26 UNL     1      19.824   4.976  48.216  1.00  0.00     0.009 C 
HETATM   23  C27 UNL     1      21.700   6.385  48.616  1.00  0.00     0.040 C 
HETATM   24  C28 UNL     1      22.402   6.427  49.915  1.00  0.00     0.043 C 
HETATM   25  H9  UNL     1      24.541   1.350  51.227  1.00  0.00     0.159 HD
HETATM   26  H21 UNL     1      18.080   3.870  45.905  1.00  0.00     0.160 HD
ENDROOT
BRANCH  10  27
HETATM   27  C10 UNL     1      22.154   0.407  52.294  1.00  0.00    -0.010 A 
HETATM   28  C11 UNL     1      22.842  -0.414  53.140  1.00  0.00     0.013 A 
HETATM   29  C12 UNL     1      22.295  -1.254  54.076  1.00  0.00     0.001 A 
HETATM   30  C13 UNL     1      20.930  -1.306  54.208  1.00  0.00     0.000 A 
HETATM   31  C14 UNL     1      20.157  -0.510  53.394  1.00  0.00     0.001 A 
HETATM   32  C15 UNL     1      20.780   0.302  52.484  1.00  0.00     0.013 A 
ENDBRANCH  10  27
BRANCH   1  33
HETATM   33  O1  UNL     1      27.606   4.357  49.279  1.00  0.00    -0.361 OA
HETATM   34  H1  UNL     1      28.156   4.093  50.102  1.00  0.00     0.217 HD
ENDBRANCH   1  33
TORSDOF 2
ENDMDL
MODEL 8
REMARK VINA RESULT:      -8.8      5.990      9.383
REMARK  2 active torsions:
REMARK  status: ('A' for Active; 'I' for Inactive)
REMARK    1  A    between atoms: O1_1  and  C1_2 
REMARK    2  A    between atoms: C9_11  and  C10_12 
ROOT
HETATM    1  C1  UNL     1      19.848   6.222  48.971  1.00  0.00     0.066 A 
HETATM    2  C2  UNL     1      20.325   7.399  48.423  1.00  0.00     0.037 A 
HETATM    3  C3  UNL     1      21.589   7.373  47.871  1.00  0.00     0.010 A 
HETATM    4  C4  UNL     1      22.385   6.248  47.842  1.00  0.00    -0.051 A 
HETATM    5  C5  UNL     1      21.926   5.065  48.385  1.00  0.00    -0.048 A 
HETATM    6  C6  UNL     1      20.660   5.108  48.933  1.00  0.00     0.044 A 
HETATM    7  C7  UNL     1      22.708   3.818  48.392  1.00  0.00     0.058 C 
HETATM    8  C8  UNL     1      22.249   2.782  49.367  1.00  0.00     0.124 C 
HETATM    9  N1  UNL     1      22.367   3.160  50.750  1.00  0.00    -0.389 N 
HETATM   10  C9  UNL     1      23.552   3.333  51.514  1.00  0.00     0.034 C 
HETATM   11  C16 UNL     1      24.123   4.455  51.835  1.00  0.00     0.007 C 
HETATM   12  C17 UNL     1      23.688   5.825  51.494  1.00  0.00     0.057 C 
HETATM   13  C18 UNL     1      24.645   6.484  50.640  1.00  0.00    -0.013 C 
HETATM   14  C19 UNL     1      25.495   7.295  50.132  1.00  0.00    -0.031 C 
HETATM   15  C20 UNL     1      25.829   8.516  50.919  1.00  0.00     0.159 C 
HETATM   16  N2  UNL     1      27.207   8.921  50.543  1.00  0.00    -0.385 N 
HETATM   17  C21 UNL     1      27.382   8.529  49.186  1.00  0.00     0.036 C 
HETATM   18  C22 UNL     1      27.936   8.537  47.934  1.00  0.00     0.007 C 
HETATM   19  C23 UNL     1      27.140   8.134  46.679  1.00  0.00     0.064 C 
HETATM   20  C24 UNL     1      25.739   7.942  47.152  1.00  0.00    -0.064 C 
HETATM   21  C25 UNL     1      26.023   6.900  47.971  1.00  0.00    -0.009 C 
HETATM   22  C26 UNL     1      26.325   7.578  49.081  1.00  0.00     0.009 C 
HETATM   23  C27 UNL     1      24.402   7.667  47.682  1.00  0.00     0.040 C 
HETATM   24  C28 UNL     1      23.706   6.454  47.207  1.00  0.00     0.043 C 
HETATM   25  H9  UNL     1      21.758   3.400  51.560  1.00  0.00     0.159 HD
HETATM   26  H21 UNL     1      28.096   9.381  50.875  1.00  0.00     0.160 HD
ENDROOT
BRANCH  10  27
HETATM   27  C10 UNL     1      24.183   2.111  51.989  1.00  0.00    -0.010 A 
HETATM   28  C11 UNL     1      23.589   1.161  52.769  1.00  0.00     0.013 A 
HETATM   29  C12 UNL     1      24.168  -0.001  53.212  1.00  0.00     0.001 A 
HETATM   30  C13 UNL     1      25.466  -0.274  52.862  1.00  0.00     0.000 A 
HETATM   31  C14 UNL     1      26.143   0.631  52.076  1.00  0.00     0.001 A 
HETATM   32  C15 UNL     1      25.494   1.768  51.674  1.00  0.00     0.013 A 
ENDBRANCH  10  27
BRANCH   1  33
HETATM   33  O1  UNL     1      18.576   6.228  49.533  1.00  0.00    -0.361 OA
HETATM   34  H1  UNL     1      18.342   5.477  50.189  1.00  0.00     0.217 HD
ENDBRANCH   1  33
TORSDOF 2
ENDMDL
MODEL 9
REMARK VINA RESULT:      -8.8      4.508     10.345
REMARK  2 active torsions:
REMARK  status: ('A' for Active; 'I' for Inactive)
REMARK    1  A    between atoms: O1_1  and  C1_2 
REMARK    2  A    between atoms: C9_11  and  C10_12 
ROOT
HETATM    1  C1  UNL     1      22.659   4.797  51.986  1.00  0.00     0.066 A 
HETATM    2  C2  UNL     1      21.410   4.740  51.395  1.00  0.00     0.037 A 
HETATM    3  C3  UNL     1      21.346   4.297  50.090  1.00  0.00     0.010 A 
HETATM    4  C4  UNL     1      22.452   3.915  49.361  1.00  0.00    -0.051 A 
HETATM    5  C5  UNL     1      23.707   3.964  49.934  1.00  0.00    -0.048 A 
HETATM    6  C6  UNL     1      23.753   4.410  51.239  1.00  0.00     0.044 A 
HETATM    7  C7  UNL     1      24.937   3.571  49.228  1.00  0.00     0.058 C 
HETATM    8  C8  UNL     1      26.208   4.076  49.831  1.00  0.00     0.124 C 
HETATM    9  N1  UNL     1      26.357   5.507  49.816  1.00  0.00    -0.389 N 
HETATM   10  C9  UNL     1      26.569   6.355  48.697  1.00  0.00     0.034 C 
HETATM   11  C16 UNL     1      25.687   7.094  48.093  1.00  0.00     0.007 C 
HETATM   12  C17 UNL     1      24.253   7.243  48.416  1.00  0.00     0.057 C 
HETATM   13  C18 UNL     1      23.419   6.745  47.350  1.00  0.00    -0.013 C 
HETATM   14  C19 UNL     1      22.556   6.618  46.413  1.00  0.00    -0.031 C 
HETATM   15  C20 UNL     1      21.728   7.812  46.081  1.00  0.00     0.159 C 
HETATM   16  N2  UNL     1      21.335   7.695  44.654  1.00  0.00    -0.385 N 
HETATM   17  C21 UNL     1      21.234   6.302  44.381  1.00  0.00     0.036 C 
HETATM   18  C22 UNL     1      20.829   5.174  43.717  1.00  0.00     0.007 C 
HETATM   19  C23 UNL     1      20.691   3.811  44.420  1.00  0.00     0.064 C 
HETATM   20  C24 UNL     1      20.918   4.094  45.866  1.00  0.00    -0.064 C 
HETATM   21  C25 UNL     1      22.203   4.498  45.717  1.00  0.00    -0.009 C 
HETATM   22  C26 UNL     1      21.992   5.795  45.477  1.00  0.00     0.009 C 
HETATM   23  C27 UNL     1      21.247   4.404  47.259  1.00  0.00     0.040 C 
HETATM   24  C28 UNL     1      22.148   3.481  47.979  1.00  0.00     0.043 C 
HETATM   25  H9  UNL     1      26.369   6.309  50.480  1.00  0.00     0.159 HD
HETATM   26  H21 UNL     1      21.101   8.226  43.773  1.00  0.00     0.160 HD
ENDROOT
BRANCH  10  27
HETATM   27  C10 UNL     1      27.929   6.397  48.182  1.00  0.00    -0.010 A 
HETATM   28  C11 UNL     1      28.477   7.421  47.466  1.00  0.00     0.013 A 
HETATM   29  C12 UNL     1      29.762   7.478  46.988  1.00  0.00     0.001 A 
HETATM   30  C13 UNL     1      30.610   6.427  47.229  1.00  0.00     0.000 A 
HETATM   31  C14 UNL     1      30.140   5.350  47.945  1.00  0.00     0.001 A 
HETATM   32  C15 UNL     1      28.844   5.369  48.388  1.00  0.00     0.013 A 
ENDBRANCH  10  27
BRANCH   1  33
HETATM   33  O1  UNL     1      22.744   5.241  53.300  1.00  0.00    -0.361 OA
HETATM   34  H1  UNL     1      23.679   5.389  53.693  1.00  0.00     0.217 HD
ENDBRANCH   1  33
TORSDOF 2
ENDMDL
