MODEL 1
REMARK VINA RESULT:      -8.5      0.000      0.000
REMARK  6 active torsions:
REMARK  status: ('A' for Active; 'I' for Inactive)
REMARK    1  A    between atoms: N1_2  and  N2_3 
REMARK    2  A    between atoms: N1_2  and  C3_5 
REMARK    3  A    between atoms: C9_11  and  C10_12 
REMARK    4  A    between atoms: C10_12  and  O1_13 
REMARK    5  A    between atoms: O1_13  and  C11_14 
REMARK    6  A    between atoms: C11_14  and  C12_15 
ROOT
HETATM    1  C3  UNL     1      23.845   0.588  52.772  1.00  0.00     0.060 C 
HETATM    2  C4  UNL     1      24.023  -0.595  53.379  1.00  0.00     0.034 C 
HETATM    3  C5  UNL     1      25.481  -0.994  53.402  1.00  0.00     0.131 C 
HETATM    4  C6  UNL     1      25.985  -0.053  52.374  1.00  0.00     0.016 C 
HETATM    5  C7  UNL     1      25.135   0.900  52.134  1.00  0.00    -0.009 C 
HETATM    6  C8  UNL     1      24.908   2.111  51.415  1.00  0.00     0.023 C 
HETATM    7  C9  UNL     1      25.825   2.786  50.587  1.00  0.00    -0.033 C 
HETATM    8  C16 UNL     1      26.956   2.586  51.593  1.00  0.00     0.025 C 
HETATM    9  C17 UNL     1      27.750   2.301  52.640  1.00  0.00     0.074 C 
HETATM   10  N4  UNL     1      28.923   2.177  53.493  1.00  0.00    -0.398 NA
HETATM   11  C18 UNL     1      29.014   1.184  54.270  1.00  0.00     0.445 C 
HETATM   12  N5  UNL     1      27.910   0.357  54.139  1.00  0.00    -0.253 NA
HETATM   13  C19 UNL     1      26.959   0.238  55.002  1.00  0.00     0.199 C 
HETATM   14  N6  UNL     1      25.910  -0.648  54.740  1.00  0.00    -0.374 N 
HETATM   15  H26 UNL     1      25.321  -1.124  55.496  1.00  0.00     0.161 HD
ENDROOT
BRANCH   7  16
HETATM   16  C10 UNL     1      26.467   3.716  49.682  1.00  0.00     0.206 C 
BRANCH  16  17
HETATM   17  O1  UNL     1      26.096   4.867  49.413  1.00  0.00    -0.384 OA
BRANCH  17  18
HETATM   18  C11 UNL     1      25.525   5.789  48.839  1.00  0.00     0.201 C 
BRANCH  18  19
HETATM   19  C12 UNL     1      26.163   7.207  48.922  1.00  0.00     0.173 C 
HETATM   20  C13 UNL     1      25.834   7.927  50.169  1.00  0.00     0.303 C 
HETATM   21  N3  UNL     1      27.012   8.578  50.690  1.00  0.00     0.088 N 
HETATM   22  C14 UNL     1      27.799   9.122  49.614  1.00  0.00     0.295 C 
HETATM   23  H17 UNL     1      26.824   9.303  51.395  1.00  0.00     0.316 HD
HETATM   24  C15 UNL     1      28.255   8.050  48.658  1.00  0.00     0.198 C 
HETATM   25  O2  UNL     1      27.543   6.911  48.786  1.00  0.00    -0.380 OA
ENDBRANCH  18  19
ENDBRANCH  17  18
ENDBRANCH  16  17
ENDBRANCH   7  16
BRANCH   1  26
HETATM   26  N1  UNL     1      22.505   1.042  52.984  1.00  0.00    -0.275 N 
HETATM   27  C1  UNL     1      21.882   2.081  52.198  1.00  0.00     0.180 C 
BRANCH  26  28
HETATM   28  N2  UNL     1      21.715   0.429  54.007  1.00  0.00    -0.196 NA
HETATM   29  C2  UNL     1      20.439   0.283  53.748  1.00  0.00     0.173 C 
ENDBRANCH  26  28
ENDBRANCH   1  26
TORSDOF 6
ENDMDL
MODEL 2
REMARK VINA RESULT:      -8.4      3.611      7.451
REMARK  6 active torsions:
REMARK  status: ('A' for Active; 'I' for Inactive)
REMARK    1  A    between atoms: N1_2  and  N2_3 
REMARK    2  A    between atoms: N1_2  and  C3_5 
REMARK    3  A    between atoms: C9_11  and  C10_12 
REMARK    4  A    between atoms: C10_12  and  O1_13 
REMARK    5  A    between atoms: O1_13  and  C11_14 
REMARK    6  A    between atoms: C11_14  and  C12_15 
ROOT
HETATM    1  C3  UNL     1      22.781   2.553  49.841  1.00  0.00     0.060 C 
HETATM    2  C4  UNL     1      22.196   2.546  48.633  1.00  0.00     0.034 C 
HETATM    3  C5  UNL     1      21.154   1.457  48.528  1.00  0.00     0.131 C 
HETATM    4  C6  UNL     1      21.558   0.648  49.701  1.00  0.00     0.016 C 
HETATM    5  C7  UNL     1      22.344   1.310  50.496  1.00  0.00    -0.009 C 
HETATM    6  C8  UNL     1      23.042   1.281  51.740  1.00  0.00     0.023 C 
HETATM    7  C9  UNL     1      23.009   0.256  52.703  1.00  0.00    -0.033 C 
HETATM    8  C16 UNL     1      21.495   0.110  52.569  1.00  0.00     0.025 C 
HETATM    9  C17 UNL     1      20.186   0.204  52.279  1.00  0.00     0.074 C 
HETATM   10  N4  UNL     1      18.754  -0.055  52.251  1.00  0.00    -0.398 NA
HETATM   11  C18 UNL     1      18.112   0.161  51.182  1.00  0.00     0.445 C 
HETATM   12  N5  UNL     1      18.959   0.625  50.189  1.00  0.00    -0.253 NA
HETATM   13  C19 UNL     1      19.003   1.836  49.750  1.00  0.00     0.199 C 
HETATM   14  N6  UNL     1      19.904   2.159  48.730  1.00  0.00    -0.374 N 
HETATM   15  H26 UNL     1      19.764   2.959  48.035  1.00  0.00     0.161 HD
ENDROOT
BRANCH   7  16
HETATM   16  C10 UNL     1      23.228  -0.568  53.874  1.00  0.00     0.206 C 
BRANCH  16  17
HETATM   17  O1  UNL     1      24.303  -0.754  54.461  1.00  0.00    -0.384 OA
BRANCH  17  18
HETATM   18  C11 UNL     1      25.387  -0.516  54.985  1.00  0.00     0.201 C 
BRANCH  18  19
HETATM   19  C12 UNL     1      26.470   0.202  54.129  1.00  0.00     0.173 C 
HETATM   20  C13 UNL     1      26.192   1.637  53.912  1.00  0.00     0.303 C 
HETATM   21  N3  UNL     1      27.401   2.406  54.083  1.00  0.00     0.088 N 
HETATM   22  C14 UNL     1      28.526   1.699  53.528  1.00  0.00     0.295 C 
HETATM   23  H17 UNL     1      27.358   3.361  53.701  1.00  0.00     0.316 HD
HETATM   24  C15 UNL     1      28.734   0.367  54.202  1.00  0.00     0.198 C 
HETATM   25  O2  UNL     1      27.644  -0.039  54.886  1.00  0.00    -0.380 OA
ENDBRANCH  18  19
ENDBRANCH  17  18
ENDBRANCH  16  17
ENDBRANCH   7  16
BRANCH   1  26
HETATM   26  N1  UNL     1      23.575   3.735  49.986  1.00  0.00    -0.275 N 
HETATM   27  C1  UNL     1      23.102   4.938  50.630  1.00  0.00     0.180 C 
BRANCH  26  28
HETATM   28  N2  UNL     1      24.918   3.736  49.497  1.00  0.00    -0.196 NA
HETATM   29  C2  UNL     1      25.862   3.543  50.385  1.00  0.00     0.173 C 
ENDBRANCH  26  28
ENDBRANCH   1  26
TORSDOF 6
ENDMDL
MODEL 3
REMARK VINA RESULT:      -8.1      1.804      2.310
REMARK  6 active torsions:
REMARK  status: ('A' for Active; 'I' for Inactive)
REMARK    1  A    between atoms: N1_2  and  N2_3 
REMARK    2  A    between atoms: N1_2  and  C3_5 
REMARK    3  A    between atoms: C9_11  and  C10_12 
REMARK    4  A    between atoms: C10_12  and  O1_13 
REMARK    5  A    between atoms: O1_13  and  C11_14 
REMARK    6  A    between atoms: C11_14  and  C12_15 
ROOT
HETATM    1  C3  UNL     1      23.857   0.392  52.960  1.00  0.00     0.060 C 
HETATM    2  C4  UNL     1      24.155  -0.768  53.564  1.00  0.00     0.034 C 
HETATM    3  C5  UNL     1      25.636  -1.063  53.501  1.00  0.00     0.131 C 
HETATM    4  C6  UNL     1      26.009  -0.101  52.437  1.00  0.00     0.016 C 
HETATM    5  C7  UNL     1      25.081   0.786  52.242  1.00  0.00    -0.009 C 
HETATM    6  C8  UNL     1      24.725   1.970  51.529  1.00  0.00     0.023 C 
HETATM    7  C9  UNL     1      25.541   2.697  50.642  1.00  0.00    -0.033 C 
HETATM    8  C16 UNL     1      26.742   2.590  51.579  1.00  0.00     0.025 C 
HETATM    9  C17 UNL     1      27.615   2.375  52.578  1.00  0.00     0.074 C 
HETATM   10  N4  UNL     1      28.843   2.344  53.359  1.00  0.00    -0.398 NA
HETATM   11  C18 UNL     1      29.051   1.369  54.137  1.00  0.00     0.445 C 
HETATM   12  N5  UNL     1      28.002   0.465  54.080  1.00  0.00    -0.253 NA
HETATM   13  C19 UNL     1      27.117   0.289  54.999  1.00  0.00     0.199 C 
HETATM   14  N6  UNL     1      26.119  -0.672  54.808  1.00  0.00    -0.374 N 
HETATM   15  H26 UNL     1      25.612  -1.178  55.602  1.00  0.00     0.161 HD
ENDROOT
BRANCH   7  16
HETATM   16  C10 UNL     1      26.060   3.660  49.692  1.00  0.00     0.206 C 
BRANCH  16  17
HETATM   17  O1  UNL     1      25.968   4.893  49.760  1.00  0.00    -0.384 OA
BRANCH  17  18
HETATM   18  C11 UNL     1      25.464   6.011  49.802  1.00  0.00     0.201 C 
BRANCH  18  19
HETATM   19  C12 UNL     1      23.913   6.110  49.887  1.00  0.00     0.173 C 
HETATM   20  C13 UNL     1      23.370   5.702  51.200  1.00  0.00     0.303 C 
HETATM   21  N3  UNL     1      22.345   6.628  51.620  1.00  0.00     0.088 N 
HETATM   22  C14 UNL     1      21.545   7.031  50.493  1.00  0.00     0.295 C 
HETATM   23  H17 UNL     1      21.742   6.283  52.379  1.00  0.00     0.316 HD
HETATM   24  C15 UNL     1      22.373   7.717  49.437  1.00  0.00     0.198 C 
HETATM   25  O2  UNL     1      23.693   7.476  49.583  1.00  0.00    -0.380 OA
ENDBRANCH  18  19
ENDBRANCH  17  18
ENDBRANCH  16  17
ENDBRANCH   7  16
BRANCH   1  26
HETATM   26  N1  UNL     1      22.503   0.753  53.249  1.00  0.00    -0.275 N 
HETATM   27  C1  UNL     1      21.812   1.841  52.598  1.00  0.00     0.180 C 
BRANCH  26  28
HETATM   28  N2  UNL     1      21.769  -0.008  54.213  1.00  0.00    -0.196 NA
HETATM   29  C2  UNL     1      20.527  -0.291  53.908  1.00  0.00     0.173 C 
ENDBRANCH  26  28
ENDBRANCH   1  26
TORSDOF 6
ENDMDL
MODEL 4
REMARK VINA RESULT:      -8.1      3.255      6.537
REMARK  6 active torsions:
REMARK  status: ('A' for Active; 'I' for Inactive)
REMARK    1  A    between atoms: N1_2  and  N2_3 
REMARK    2  A    between atoms: N1_2  and  C3_5 
REMARK    3  A    between atoms: C9_11  and  C10_12 
REMARK    4  A    between atoms: C10_12  and  O1_13 
REMARK    5  A    between atoms: O1_13  and  C11_14 
REMARK    6  A    between atoms: C11_14  and  C12_15 
ROOT
HETATM    1  C3  UNL     1      21.367   4.179  51.418  1.00  0.00     0.060 C 
HETATM    2  C4  UNL     1      21.605   5.485  51.226  1.00  0.00     0.034 C 
HETATM    3  C5  UNL     1      23.074   5.809  51.371  1.00  0.00     0.131 C 
HETATM    4  C6  UNL     1      23.508   4.569  52.058  1.00  0.00     0.016 C 
HETATM    5  C7  UNL     1      22.620   3.626  51.958  1.00  0.00    -0.009 C 
HETATM    6  C8  UNL     1      22.328   2.260  52.245  1.00  0.00     0.023 C 
HETATM    7  C9  UNL     1      23.190   1.319  52.839  1.00  0.00    -0.033 C 
HETATM    8  C16 UNL     1      24.366   1.781  51.981  1.00  0.00     0.025 C 
HETATM    9  C17 UNL     1      25.208   2.351  51.101  1.00  0.00     0.074 C 
HETATM   10  N4  UNL     1      26.417   2.690  50.365  1.00  0.00    -0.398 NA
HETATM   11  C18 UNL     1      26.569   3.875  49.949  1.00  0.00     0.445 C 
HETATM   12  N5  UNL     1      25.487   4.662  50.307  1.00  0.00    -0.253 NA
HETATM   13  C19 UNL     1      24.575   5.090  49.502  1.00  0.00     0.199 C 
HETATM   14  N6  UNL     1      23.544   5.890  50.005  1.00  0.00    -0.374 N 
HETATM   15  H26 UNL     1      23.001   6.605  49.425  1.00  0.00     0.161 HD
ENDROOT
BRANCH   7  16
HETATM   16  C10 UNL     1      23.767   0.123  53.416  1.00  0.00     0.206 C 
BRANCH  16  17
HETATM   17  O1  UNL     1      24.828  -0.424  53.086  1.00  0.00    -0.384 OA
BRANCH  17  18
HETATM   18  C11 UNL     1      25.853  -1.095  53.166  1.00  0.00     0.201 C 
BRANCH  18  19
HETATM   19  C12 UNL     1      27.215  -0.343  53.227  1.00  0.00     0.173 C 
HETATM   20  C13 UNL     1      27.237   0.752  54.219  1.00  0.00     0.303 C 
HETATM   21  N3  UNL     1      28.479   0.727  54.954  1.00  0.00     0.088 N 
HETATM   22  C14 UNL     1      29.572   0.395  54.078  1.00  0.00     0.295 C 
HETATM   23  H17 UNL     1      28.687   1.592  55.471  1.00  0.00     0.316 HD
HETATM   24  C15 UNL     1      29.388  -0.961  53.447  1.00  0.00     0.198 C 
HETATM   25  O2  UNL     1      28.114  -1.397  53.526  1.00  0.00    -0.380 OA
ENDBRANCH  18  19
ENDBRANCH  17  18
ENDBRANCH  16  17
ENDBRANCH   7  16
BRANCH   1  26
HETATM   26  N1  UNL     1      20.022   3.873  51.036  1.00  0.00    -0.275 N 
HETATM   27  C1  UNL     1      19.542   3.958  49.676  1.00  0.00     0.180 C 
BRANCH  26  28
HETATM   28  N2  UNL     1      19.097   3.433  52.033  1.00  0.00    -0.196 NA
HETATM   29  C2  UNL     1      18.582   2.240  51.865  1.00  0.00     0.173 C 
ENDBRANCH  26  28
ENDBRANCH   1  26
TORSDOF 6
ENDMDL
MODEL 5
REMARK VINA RESULT:      -8.0      1.677      4.289
REMARK  6 active torsions:
REMARK  status: ('A' for Active; 'I' for Inactive)
REMARK    1  A    between atoms: N1_2  and  N2_3 
REMARK    2  A    between atoms: N1_2  and  C3_5 
REMARK    3  A    between atoms: C9_11  and  C10_12 
REMARK    4  A    between atoms: C10_12  and  O1_13 
REMARK    5  A    between atoms: O1_13  and  C11_14 
REMARK    6  A    between atoms: C11_14  and  C12_15 
ROOT
HETATM    1  C3  UNL     1      25.802   1.164  52.527  1.00  0.00     0.060 C 
HETATM    2  C4  UNL     1      24.798   0.986  53.399  1.00  0.00     0.034 C 
HETATM    3  C5  UNL     1      23.600   1.838  53.048  1.00  0.00     0.131 C 
HETATM    4  C6  UNL     1      24.262   2.777  52.111  1.00  0.00     0.016 C 
HETATM    5  C7  UNL     1      25.416   2.330  51.716  1.00  0.00    -0.009 C 
HETATM    6  C8  UNL     1      26.529   2.567  50.855  1.00  0.00     0.023 C 
HETATM    7  C9  UNL     1      26.671   3.617  49.930  1.00  0.00    -0.033 C 
HETATM    8  C16 UNL     1      25.233   3.451  49.443  1.00  0.00     0.025 C 
HETATM    9  C17 UNL     1      23.966   3.082  49.188  1.00  0.00     0.074 C 
HETATM   10  N4  UNL     1      22.621   3.049  48.634  1.00  0.00    -0.398 NA
HETATM   11  C18 UNL     1      21.667   2.649  49.363  1.00  0.00     0.445 C 
HETATM   12  N5  UNL     1      22.126   2.308  50.625  1.00  0.00    -0.253 NA
HETATM   13  C19 UNL     1      22.239   1.107  51.079  1.00  0.00     0.199 C 
HETATM   14  N6  UNL     1      22.707   0.914  52.383  1.00  0.00    -0.374 N 
HETATM   15  H26 UNL     1      22.469   0.064  52.987  1.00  0.00     0.161 HD
ENDROOT
BRANCH   7  16
HETATM   16  C10 UNL     1      27.163   4.533  48.921  1.00  0.00     0.206 C 
BRANCH  16  17
HETATM   17  O1  UNL     1      26.964   5.754  48.866  1.00  0.00    -0.384 OA
BRANCH  17  18
HETATM   18  C11 UNL     1      26.442   6.825  48.573  1.00  0.00     0.201 C 
BRANCH  18  19
HETATM   19  C12 UNL     1      27.317   8.110  48.648  1.00  0.00     0.173 C 
HETATM   20  C13 UNL     1      27.052   8.932  49.847  1.00  0.00     0.303 C 
HETATM   21  N3  UNL     1      28.296   9.386  50.420  1.00  0.00     0.088 N 
HETATM   22  C14 UNL     1      29.227   9.736  49.380  1.00  0.00     0.295 C 
HETATM   23  H17 UNL     1      28.201  10.163  51.088  1.00  0.00     0.316 HD
HETATM   24  C15 UNL     1      29.537   8.559  48.490  1.00  0.00     0.198 C 
HETATM   25  O2  UNL     1      28.627   7.571  48.610  1.00  0.00    -0.380 OA
ENDBRANCH  18  19
ENDBRANCH  17  18
ENDBRANCH  16  17
ENDBRANCH   7  16
BRANCH   1  26
HETATM   26  N1  UNL     1      26.812   0.174  52.745  1.00  0.00    -0.275 N 
HETATM   27  C1  UNL     1      26.675  -1.207  52.342  1.00  0.00     0.180 C 
BRANCH  26  28
HETATM   28  N2  UNL     1      28.040   0.557  53.371  1.00  0.00    -0.196 NA
HETATM   29  C2  UNL     1      28.214   0.155  54.606  1.00  0.00     0.173 C 
ENDBRANCH  26  28
ENDBRANCH   1  26
TORSDOF 6
ENDMDL
MODEL 6
REMARK VINA RESULT:      -7.9      3.842      6.653
REMARK  6 active torsions:
REMARK  status: ('A' for Active; 'I' for Inactive)
REMARK    1  A    between atoms: N1_2  and  N2_3 
REMARK    2  A    between atoms: N1_2  and  C3_5 
REMARK    3  A    between atoms: C9_11  and  C10_12 
REMARK    4  A    between atoms: C10_12  and  O1_13 
REMARK    5  A    between atoms: O1_13  and  C11_14 
REMARK    6  A    between atoms: C11_14  and  C12_15 
ROOT
HETATM    1  C3  UNL     1      19.356   1.275  51.839  1.00  0.00     0.060 C 
HETATM    2  C4  UNL     1      18.878   2.510  51.627  1.00  0.00     0.034 C 
HETATM    3  C5  UNL     1      19.962   3.555  51.756  1.00  0.00     0.131 C 
HETATM    4  C6  UNL     1      20.979   2.735  52.456  1.00  0.00     0.016 C 
HETATM    5  C7  UNL     1      20.713   1.466  52.375  1.00  0.00    -0.009 C 
HETATM    6  C8  UNL     1      21.177   0.153  52.683  1.00  0.00     0.023 C 
HETATM    7  C9  UNL     1      22.404  -0.190  53.283  1.00  0.00    -0.033 C 
HETATM    8  C16 UNL     1      23.166   0.803  52.408  1.00  0.00     0.025 C 
HETATM    9  C17 UNL     1      23.587   1.715  51.514  1.00  0.00     0.074 C 
HETATM   10  N4  UNL     1      24.440   2.623  50.764  1.00  0.00    -0.398 NA
HETATM   11  C18 UNL     1      23.952   3.707  50.330  1.00  0.00     0.445 C 
HETATM   12  N5  UNL     1      22.618   3.819  50.686  1.00  0.00    -0.253 NA
HETATM   13  C19 UNL     1      21.617   3.695  49.884  1.00  0.00     0.199 C 
HETATM   14  N6  UNL     1      20.320   3.847  50.385  1.00  0.00    -0.374 N 
HETATM   15  H26 UNL     1      19.483   4.165  49.799  1.00  0.00     0.161 HD
ENDROOT
BRANCH   7  16
HETATM   16  C10 UNL     1      23.521  -0.900  53.871  1.00  0.00     0.206 C 
BRANCH  16  17
HETATM   17  O1  UNL     1      24.588  -0.411  54.265  1.00  0.00    -0.384 OA
BRANCH  17  18
HETATM   18  C11 UNL     1      25.693  -0.327  54.793  1.00  0.00     0.201 C 
BRANCH  18  19
HETATM   19  C12 UNL     1      26.808   0.451  54.035  1.00  0.00     0.173 C 
HETATM   20  C13 UNL     1      26.461   1.862  53.768  1.00  0.00     0.303 C 
HETATM   21  N3  UNL     1      27.595   2.711  54.043  1.00  0.00     0.088 N 
HETATM   22  C14 UNL     1      28.812   2.072  53.613  1.00  0.00     0.295 C 
HETATM   23  H17 UNL     1      27.529   3.656  53.642  1.00  0.00     0.316 HD
HETATM   24  C15 UNL     1      29.038   0.764  54.326  1.00  0.00     0.198 C 
HETATM   25  O2  UNL     1      27.913   0.295  54.907  1.00  0.00    -0.380 OA
ENDBRANCH  18  19
ENDBRANCH  17  18
ENDBRANCH  16  17
ENDBRANCH   7  16
BRANCH   1  26
HETATM   26  N1  UNL     1      18.369   0.306  51.472  1.00  0.00    -0.275 N 
HETATM   27  C1  UNL     1      17.856  -0.692  52.382  1.00  0.00     0.180 C 
BRANCH  26  28
HETATM   28  N2  UNL     1      17.830   0.326  50.147  1.00  0.00    -0.196 NA
HETATM   29  C2  UNL     1      16.566   0.002  50.027  1.00  0.00     0.173 C 
ENDBRANCH  26  28
ENDBRANCH   1  26
TORSDOF 6
ENDMDL
MODEL 7
REMARK VINA RESULT:      -7.9      3.163      8.902
REMARK  6 active torsions:
REMARK  status: ('A' for Active; 'I' for Inactive)
REMARK    1  A    between atoms: N1_2  and  N2_3 
REMARK    2  A    between atoms: N1_2  and  C3_5 
REMARK    3  A    between atoms: C9_11  and  C10_12 
REMARK    4  A    between atoms: C10_12  and  O1_13 
REMARK    5  A    between atoms: O1_13  and  C11_14 
REMARK    6  A    between atoms: C11_14  and  C12_15 
ROOT
HETATM    1  C3  UNL     1      29.168   7.001  47.833  1.00  0.00     0.060 C 
HETATM    2  C4  UNL     1      28.969   8.143  47.158  1.00  0.00     0.034 C 
HETATM    3  C5  UNL     1      27.508   8.529  47.138  1.00  0.00     0.131 C 
HETATM    4  C6  UNL     1      26.928   7.228  47.549  1.00  0.00     0.016 C 
HETATM    5  C7  UNL     1      27.825   6.442  48.064  1.00  0.00    -0.009 C 
HETATM    6  C8  UNL     1      28.052   5.185  48.700  1.00  0.00     0.023 C 
HETATM    7  C9  UNL     1      27.078   4.238  49.068  1.00  0.00    -0.033 C 
HETATM    8  C16 UNL     1      26.159   5.324  49.622  1.00  0.00     0.025 C 
HETATM    9  C17 UNL     1      25.566   6.451  50.052  1.00  0.00     0.074 C 
HETATM   10  N4  UNL     1      24.584   7.372  50.605  1.00  0.00    -0.398 NA
HETATM   11  C18 UNL     1      24.528   8.553  50.155  1.00  0.00     0.445 C 
HETATM   12  N5  UNL     1      25.470   8.740  49.155  1.00  0.00    -0.253 NA
HETATM   13  C19 UNL     1      26.553   9.429  49.269  1.00  0.00     0.199 C 
HETATM   14  N6  UNL     1      27.407   9.541  48.167  1.00  0.00    -0.374 N 
HETATM   15  H26 UNL     1      28.072  10.362  48.003  1.00  0.00     0.161 HD
ENDROOT
BRANCH   7  16
HETATM   16  C10 UNL     1      26.388   3.063  49.558  1.00  0.00     0.206 C 
BRANCH  16  17
HETATM   17  O1  UNL     1      26.502   2.549  50.680  1.00  0.00    -0.384 OA
BRANCH  17  18
HETATM   18  C11 UNL     1      26.502   2.437  51.902  1.00  0.00     0.201 C 
BRANCH  18  19
HETATM   19  C12 UNL     1      27.636   1.596  52.558  1.00  0.00     0.173 C 
HETATM   20  C13 UNL     1      28.450   2.362  53.524  1.00  0.00     0.303 C 
HETATM   21  N3  UNL     1      28.693   1.568  54.704  1.00  0.00     0.088 N 
HETATM   22  C14 UNL     1      28.929   0.195  54.343  1.00  0.00     0.295 C 
HETATM   23  H17 UNL     1      29.454   1.914  55.304  1.00  0.00     0.316 HD
HETATM   24  C15 UNL     1      27.747  -0.405  53.626  1.00  0.00     0.198 C 
HETATM   25  O2  UNL     1      26.905   0.536  53.149  1.00  0.00    -0.380 OA
ENDBRANCH  18  19
ENDBRANCH  17  18
ENDBRANCH  16  17
ENDBRANCH   7  16
BRANCH   1  26
HETATM   26  N1  UNL     1      30.570   6.799  48.039  1.00  0.00    -0.275 N 
HETATM   27  C1  UNL     1      31.301   7.364  49.149  1.00  0.00     0.180 C 
BRANCH  26  28
HETATM   28  N2  UNL     1      31.297   5.979  47.122  1.00  0.00    -0.196 NA
HETATM   29  C2  UNL     1      31.548   4.752  47.510  1.00  0.00     0.173 C 
ENDBRANCH  26  28
ENDBRANCH   1  26
TORSDOF 6
ENDMDL
MODEL 8
REMARK VINA RESULT:      -7.7      2.293      4.904
REMARK  6 active torsions:
REMARK  status: ('A' for Active; 'I' for Inactive)
REMARK    1  A    between atoms: N1_2  and  N2_3 
REMARK    2  A    between atoms: N1_2  and  C3_5 
REMARK    3  A    between atoms: C9_11  and  C10_12 
REMARK    4  A    between atoms: C10_12  and  O1_13 
REMARK    5  A    between atoms: O1_13  and  C11_14 
REMARK    6  A    between atoms: C11_14  and  C12_15 
ROOT
HETATM    1  C3  UNL     1      25.633  -0.101  53.074  1.00  0.00     0.060 C 
HETATM    2  C4  UNL     1      24.729  -0.489  53.986  1.00  0.00     0.034 C 
HETATM    3  C5  UNL     1      23.456   0.319  53.885  1.00  0.00     0.131 C 
HETATM    4  C6  UNL     1      23.970   1.442  53.066  1.00  0.00     0.016 C 
HETATM    5  C7  UNL     1      25.105   1.150  52.505  1.00  0.00    -0.009 C 
HETATM    6  C8  UNL     1      26.115   1.602  51.605  1.00  0.00     0.023 C 
HETATM    7  C9  UNL     1      26.108   2.795  50.859  1.00  0.00    -0.033 C 
HETATM    8  C16 UNL     1      24.642   2.606  50.475  1.00  0.00     0.025 C 
HETATM    9  C17 UNL     1      23.380   2.192  50.270  1.00  0.00     0.074 C 
HETATM   10  N4  UNL     1      21.992   2.151  49.834  1.00  0.00    -0.398 NA
HETATM   11  C18 UNL     1      21.136   1.572  50.564  1.00  0.00     0.445 C 
HETATM   12  N5  UNL     1      21.732   1.065  51.708  1.00  0.00    -0.253 NA
HETATM   13  C19 UNL     1      21.957  -0.181  51.944  1.00  0.00     0.199 C 
HETATM   14  N6  UNL     1      22.557  -0.547  53.153  1.00  0.00    -0.374 N 
HETATM   15  H26 UNL     1      22.428  -1.499  53.625  1.00  0.00     0.161 HD
ENDROOT
BRANCH   7  16
HETATM   16  C10 UNL     1      26.448   3.895  49.980  1.00  0.00     0.206 C 
BRANCH  16  17
HETATM   17  O1  UNL     1      25.824   4.956  49.841  1.00  0.00    -0.384 OA
BRANCH  17  18
HETATM   18  C11 UNL     1      25.387   6.077  50.084  1.00  0.00     0.201 C 
BRANCH  18  19
HETATM   19  C12 UNL     1      23.861   6.321  49.902  1.00  0.00     0.173 C 
HETATM   20  C13 UNL     1      23.327   5.783  48.633  1.00  0.00     0.303 C 
HETATM   21  N3  UNL     1      22.068   5.119  48.868  1.00  0.00     0.088 N 
HETATM   22  C14 UNL     1      21.292   5.847  49.838  1.00  0.00     0.295 C 
HETATM   23  H17 UNL     1      21.509   4.948  48.021  1.00  0.00     0.316 HD
HETATM   24  C15 UNL     1      22.007   5.951  51.161  1.00  0.00     0.198 C 
HETATM   25  O2  UNL     1      23.327   5.690  51.053  1.00  0.00    -0.380 OA
ENDBRANCH  18  19
ENDBRANCH  17  18
ENDBRANCH  16  17
ENDBRANCH   7  16
BRANCH   1  26
HETATM   26  N1  UNL     1      26.714  -1.038  53.038  1.00  0.00    -0.275 N 
HETATM   27  C1  UNL     1      26.738  -2.194  52.172  1.00  0.00     0.180 C 
BRANCH  26  28
HETATM   28  N2  UNL     1      27.852  -0.821  53.876  1.00  0.00    -0.196 NA
HETATM   29  C2  UNL     1      29.010  -1.202  53.397  1.00  0.00     0.173 C 
ENDBRANCH  26  28
ENDBRANCH   1  26
TORSDOF 6
ENDMDL
MODEL 9
REMARK VINA RESULT:      -7.7      4.738      8.327
REMARK  6 active torsions:
REMARK  status: ('A' for Active; 'I' for Inactive)
REMARK    1  A    between atoms: N1_2  and  N2_3 
REMARK    2  A    between atoms: N1_2  and  C3_5 
REMARK    3  A    between atoms: C9_11  and  C10_12 
REMARK    4  A    between atoms: C10_12  and  O1_13 
REMARK    5  A    between atoms: O1_13  and  C11_14 
REMARK    6  A    between atoms: C11_14  and  C12_15 
ROOT
HETATM    1  C3  UNL     1      29.807   6.211  48.042  1.00  0.00     0.060 C 
HETATM    2  C4  UNL     1      30.101   7.316  47.341  1.00  0.00     0.034 C 
HETATM    3  C5  UNL     1      28.881   8.184  47.134  1.00  0.00     0.131 C 
HETATM    4  C6  UNL     1      27.839   7.188  47.476  1.00  0.00     0.016 C 
HETATM    5  C7  UNL     1      28.337   6.166  48.104  1.00  0.00    -0.009 C 
HETATM    6  C8  UNL     1      28.033   4.941  48.770  1.00  0.00     0.023 C 
HETATM    7  C9  UNL     1      26.753   4.410  49.018  1.00  0.00    -0.033 C 
HETATM    8  C16 UNL     1      26.215   5.773  49.445  1.00  0.00     0.025 C 
HETATM    9  C17 UNL     1      26.009   7.056  49.791  1.00  0.00     0.074 C 
HETATM   10  N4  UNL     1      25.355   8.287  50.211  1.00  0.00    -0.398 NA
HETATM   11  C18 UNL     1      25.770   9.390  49.750  1.00  0.00     0.445 C 
HETATM   12  N5  UNL     1      26.827   9.189  48.877  1.00  0.00    -0.253 NA
HETATM   13  C19 UNL     1      28.061   9.464  49.122  1.00  0.00     0.199 C 
HETATM   14  N6  UNL     1      29.022   9.218  48.137  1.00  0.00    -0.374 N 
HETATM   15  H26 UNL     1      29.948   9.748  48.053  1.00  0.00     0.161 HD
ENDROOT
BRANCH   7  16
HETATM   16  C10 UNL     1      25.643   3.573  49.424  1.00  0.00     0.206 C 
BRANCH  16  17
HETATM   17  O1  UNL     1      24.445   3.888  49.445  1.00  0.00    -0.384 OA
BRANCH  17  18
HETATM   18  C11 UNL     1      23.260   3.938  49.128  1.00  0.00     0.201 C 
BRANCH  18  19
HETATM   19  C12 UNL     1      22.402   5.108  49.691  1.00  0.00     0.173 C 
HETATM   20  C13 UNL     1      22.671   5.401  51.114  1.00  0.00     0.303 C 
HETATM   21  N3  UNL     1      22.750   6.827  51.319  1.00  0.00     0.088 N 
HETATM   22  C14 UNL     1      21.763   7.503  50.517  1.00  0.00     0.295 C 
HETATM   23  H17 UNL     1      22.673   7.123  52.302  1.00  0.00     0.316 HD
HETATM   24  C15 UNL     1      21.965   7.241  49.047  1.00  0.00     0.198 C 
HETATM   25  O2  UNL     1      22.752   6.169  48.819  1.00  0.00    -0.380 OA
ENDBRANCH  18  19
ENDBRANCH  17  18
ENDBRANCH  16  17
ENDBRANCH   7  16
BRANCH   1  26
HETATM   26  N1  UNL     1      31.015   5.546  48.424  1.00  0.00    -0.275 N 
HETATM   27  C1  UNL     1      31.825   5.950  49.550  1.00  0.00     0.180 C 
BRANCH  26  28
HETATM   28  N2  UNL     1      31.446   4.404  47.680  1.00  0.00    -0.196 NA
HETATM   29  C2  UNL     1      32.711   4.080  47.790  1.00  0.00     0.173 C 
ENDBRANCH  26  28
ENDBRANCH   1  26
TORSDOF 6
ENDMDL
