MODEL 1
REMARK VINA RESULT:      -8.7      0.000      0.000
REMARK  2 active torsions:
REMARK  status: ('A' for Active; 'I' for Inactive)
REMARK    1  A    between atoms: C2_2  and  C3_3 
REMARK    2  A    between atoms: C8_10  and  C9_11 
ROOT
HETATM    1  C3  UNL     1      20.874   0.726  50.907  1.00  0.00     0.158 C 
HETATM    2  C4  UNL     1      21.853   0.988  51.963  1.00  0.00     0.098 C 
HETATM    3  C5  UNL     1      21.850   0.020  53.064  1.00  0.00     0.004 A 
HETATM    4  C6  UNL     1      20.868  -0.748  53.651  1.00  0.00     0.067 A 
HETATM    5  N1  UNL     1      21.178  -1.588  54.654  1.00  0.00    -0.242 NA
HETATM    6  C7  UNL     1      22.447  -1.665  55.072  1.00  0.00     0.234 A 
HETATM    7  N2  UNL     1      23.371  -0.913  54.489  1.00  0.00    -0.241 NA
HETATM    8  C8  UNL     1      23.157  -0.051  53.486  1.00  0.00     0.077 A 
HETATM    9  C15 UNL     1      19.436  -0.966  53.513  1.00  0.00     0.036 C 
HETATM   10  C16 UNL     1      18.514  -0.491  52.691  1.00  0.00    -0.058 C 
HETATM   11  C17 UNL     1      17.173  -1.073  53.015  1.00  0.00     0.046 C 
HETATM   12  C18 UNL     1      18.442   0.436  51.563  1.00  0.00     0.204 C 
HETATM   13  O1  UNL     1      19.570   0.405  50.698  1.00  0.00    -0.360 OA
ENDROOT
BRANCH   8  14
HETATM   14  C9  UNL     1      24.325   0.659  52.998  1.00  0.00    -0.005 A 
HETATM   15  C10 UNL     1      24.526   1.884  52.396  1.00  0.00     0.014 A 
HETATM   16  C11 UNL     1      25.761   2.335  52.000  1.00  0.00     0.003 A 
HETATM   17  C12 UNL     1      26.896   1.577  52.182  1.00  0.00     0.024 A 
HETATM   18  C13 UNL     1      26.765   0.343  52.777  1.00  0.00     0.035 A 
HETATM   19 CL1  UNL     1      28.215  -0.609  53.003  1.00  0.00    -0.084 Cl
HETATM   20  C14 UNL     1      25.510  -0.076  53.162  1.00  0.00     0.037 A 
ENDBRANCH   8  14
BRANCH   1  21
HETATM   21  C2  UNL     1      21.392   0.824  49.683  1.00  0.00    -0.140 C 
HETATM   22  C1  UNL     1      21.756   1.192  48.464  1.00  0.00     0.094 C 
ENDBRANCH   1  21
TORSDOF 2
ENDMDL
MODEL 2
REMARK VINA RESULT:      -8.6      4.064      6.225
REMARK  2 active torsions:
REMARK  status: ('A' for Active; 'I' for Inactive)
REMARK    1  A    between atoms: C2_2  and  C3_3 
REMARK    2  A    between atoms: C8_10  and  C9_11 
ROOT
HETATM    1  C3  UNL     1      26.541   1.586  52.606  1.00  0.00     0.158 C 
HETATM    2  C4  UNL     1      26.083   2.190  51.354  1.00  0.00     0.098 C 
HETATM    3  C5  UNL     1      24.670   2.578  51.334  1.00  0.00     0.004 A 
HETATM    4  C6  UNL     1      23.538   2.075  51.940  1.00  0.00     0.067 A 
HETATM    5  N1  UNL     1      22.349   2.674  51.750  1.00  0.00    -0.242 NA
HETATM    6  C7  UNL     1      22.282   3.760  50.971  1.00  0.00     0.234 A 
HETATM    7  N2  UNL     1      23.387   4.220  50.401  1.00  0.00    -0.241 NA
HETATM    8  C8  UNL     1      24.612   3.692  50.531  1.00  0.00     0.077 A 
HETATM    9  C15 UNL     1      23.179   0.974  52.821  1.00  0.00     0.036 C 
HETATM   10  C16 UNL     1      23.873   0.021  53.422  1.00  0.00    -0.058 C 
HETATM   11  C17 UNL     1      22.967  -0.860  54.225  1.00  0.00     0.046 C 
HETATM   12  C18 UNL     1      25.267  -0.407  53.518  1.00  0.00     0.204 C 
HETATM   13  O1  UNL     1      26.213   0.654  53.540  1.00  0.00    -0.360 OA
ENDROOT
BRANCH   8  14
HETATM   14  C9  UNL     1      25.678   4.374  49.820  1.00  0.00    -0.005 A 
HETATM   15  C10 UNL     1      26.854   3.967  49.227  1.00  0.00     0.014 A 
HETATM   16  C11 UNL     1      27.728   4.832  48.615  1.00  0.00     0.003 A 
HETATM   17  C12 UNL     1      27.479   6.185  48.557  1.00  0.00     0.024 A 
HETATM   18  C13 UNL     1      26.320   6.658  49.131  1.00  0.00     0.035 A 
HETATM   19 CL1  UNL     1      26.015   8.378  49.049  1.00  0.00    -0.084 Cl
HETATM   20  C14 UNL     1      25.467   5.760  49.734  1.00  0.00     0.037 A 
ENDBRANCH   8  14
BRANCH   1  21
HETATM   21  C2  UNL     1      27.696   2.093  53.036  1.00  0.00    -0.140 C 
HETATM   22  C1  UNL     1      28.785   2.425  53.712  1.00  0.00     0.094 C 
ENDBRANCH   1  21
TORSDOF 2
ENDMDL
MODEL 3
REMARK VINA RESULT:      -8.6      2.809      3.868
REMARK  2 active torsions:
REMARK  status: ('A' for Active; 'I' for Inactive)
REMARK    1  A    between atoms: C2_2  and  C3_3 
REMARK    2  A    between atoms: C8_10  and  C9_11 
ROOT
HETATM    1  C3  UNL     1      24.875   3.304  51.152  1.00  0.00     0.158 C 
HETATM    2  C4  UNL     1      25.332   2.627  52.366  1.00  0.00     0.098 C 
HETATM    3  C5  UNL     1      24.428   1.591  52.875  1.00  0.00     0.004 A 
HETATM    4  C6  UNL     1      23.059   1.431  52.854  1.00  0.00     0.067 A 
HETATM    5  N1  UNL     1      22.500   0.334  53.395  1.00  0.00    -0.242 NA
HETATM    6  C7  UNL     1      23.289  -0.594  53.949  1.00  0.00     0.234 A 
HETATM    7  N2  UNL     1      24.602  -0.412  53.955  1.00  0.00    -0.241 NA
HETATM    8  C8  UNL     1      25.248   0.644  53.443  1.00  0.00     0.077 A 
HETATM    9  C15 UNL     1      21.891   2.156  52.378  1.00  0.00     0.036 C 
HETATM   10  C16 UNL     1      21.726   3.291  51.716  1.00  0.00    -0.058 C 
HETATM   11  C17 UNL     1      20.270   3.558  51.490  1.00  0.00     0.046 C 
HETATM   12  C18 UNL     1      22.564   4.347  51.152  1.00  0.00     0.204 C 
HETATM   13  O1  UNL     1      23.788   3.894  50.588  1.00  0.00    -0.360 OA
ENDROOT
BRANCH   8  14
HETATM   14  C9  UNL     1      26.694   0.623  53.556  1.00  0.00    -0.005 A 
HETATM   15  C10 UNL     1      27.657   1.583  53.783  1.00  0.00     0.014 A 
HETATM   16  C11 UNL     1      29.002   1.307  53.829  1.00  0.00     0.003 A 
HETATM   17  C12 UNL     1      29.479   0.028  53.647  1.00  0.00     0.024 A 
HETATM   18  C13 UNL     1      28.569  -0.979  53.416  1.00  0.00     0.035 A 
HETATM   19 CL1  UNL     1      29.190  -2.598  53.187  1.00  0.00    -0.084 Cl
HETATM   20  C14 UNL     1      27.229  -0.663  53.377  1.00  0.00     0.037 A 
ENDBRANCH   8  14
BRANCH   1  21
HETATM   21  C2  UNL     1      25.828   3.411  50.226  1.00  0.00    -0.140 C 
HETATM   22  C1  UNL     1      26.725   3.821  49.343  1.00  0.00     0.094 C 
ENDBRANCH   1  21
TORSDOF 2
ENDMDL
MODEL 4
REMARK VINA RESULT:      -8.5      3.071      6.148
REMARK  2 active torsions:
REMARK  status: ('A' for Active; 'I' for Inactive)
REMARK    1  A    between atoms: C2_2  and  C3_3 
REMARK    2  A    between atoms: C8_10  and  C9_11 
ROOT
HETATM    1  C3  UNL     1      24.724   1.886  52.484  1.00  0.00     0.158 C 
HETATM    2  C4  UNL     1      23.798   0.759  52.604  1.00  0.00     0.098 C 
HETATM    3  C5  UNL     1      24.007  -0.092  53.778  1.00  0.00     0.004 A 
HETATM    4  C6  UNL     1      25.122  -0.450  54.506  1.00  0.00     0.067 A 
HETATM    5  N1  UNL     1      24.999  -1.249  55.580  1.00  0.00    -0.242 NA
HETATM    6  C7  UNL     1      23.784  -1.689  55.930  1.00  0.00     0.234 A 
HETATM    7  N2  UNL     1      22.730  -1.329  55.210  1.00  0.00    -0.241 NA
HETATM    8  C8  UNL     1      22.755  -0.540  54.128  1.00  0.00     0.077 A 
HETATM    9  C15 UNL     1      26.557  -0.209  54.478  1.00  0.00     0.036 C 
HETATM   10  C16 UNL     1      27.347   0.522  53.707  1.00  0.00    -0.058 C 
HETATM   11  C17 UNL     1      28.773   0.392  54.144  1.00  0.00     0.046 C 
HETATM   12  C18 UNL     1      27.213   1.412  52.555  1.00  0.00     0.204 C 
HETATM   13  O1  UNL     1      26.040   2.215  52.559  1.00  0.00    -0.360 OA
ENDROOT
BRANCH   8  14
HETATM   14  C9  UNL     1      21.472  -0.273  53.505  1.00  0.00    -0.005 A 
HETATM   15  C10 UNL     1      20.983   0.733  52.700  1.00  0.00     0.014 A 
HETATM   16  C11 UNL     1      19.689   0.770  52.240  1.00  0.00     0.003 A 
HETATM   17  C12 UNL     1      18.783  -0.215  52.565  1.00  0.00     0.024 A 
HETATM   18  C13 UNL     1      19.207  -1.250  53.367  1.00  0.00     0.035 A 
HETATM   19 CL1  UNL     1      18.046  -2.495  53.770  1.00  0.00    -0.084 Cl
HETATM   20  C14 UNL     1      20.512  -1.253  53.807  1.00  0.00     0.037 A 
ENDBRANCH   8  14
BRANCH   1  21
HETATM   21  C2  UNL     1      24.111   3.034  52.197  1.00  0.00    -0.140 C 
HETATM   22  C1  UNL     1      23.249   3.997  51.909  1.00  0.00     0.094 C 
ENDBRANCH   1  21
TORSDOF 2
ENDMDL
MODEL 5
REMARK VINA RESULT:      -8.3      3.528      6.676
REMARK  2 active torsions:
REMARK  status: ('A' for Active; 'I' for Inactive)
REMARK    1  A    between atoms: C2_2  and  C3_3 
REMARK    2  A    between atoms: C8_10  and  C9_11 
ROOT
HETATM    1  C3  UNL     1      25.841   1.083  51.926  1.00  0.00     0.158 C 
HETATM    2  C4  UNL     1      24.440   1.233  52.321  1.00  0.00     0.098 C 
HETATM    3  C5  UNL     1      23.554   1.753  51.276  1.00  0.00     0.004 A 
HETATM    4  C6  UNL     1      23.737   2.622  50.222  1.00  0.00     0.067 A 
HETATM    5  N1  UNL     1      22.716   2.898  49.391  1.00  0.00    -0.242 NA
HETATM    6  C7  UNL     1      21.528   2.321  49.602  1.00  0.00     0.234 A 
HETATM    7  N2  UNL     1      21.381   1.490  50.625  1.00  0.00    -0.241 NA
HETATM    8  C8  UNL     1      22.337   1.155  51.503  1.00  0.00     0.077 A 
HETATM    9  C15 UNL     1      24.808   3.428  49.656  1.00  0.00     0.036 C 
HETATM   10  C16 UNL     1      26.086   3.593  49.958  1.00  0.00    -0.058 C 
HETATM   11  C17 UNL     1      26.725   4.567  49.017  1.00  0.00     0.046 C 
HETATM   12  C18 UNL     1      27.038   3.093  50.948  1.00  0.00     0.204 C 
HETATM   13  O1  UNL     1      26.862   1.727  51.301  1.00  0.00    -0.360 OA
ENDROOT
BRANCH   8  14
HETATM   14  C9  UNL     1      21.948   0.216  52.539  1.00  0.00    -0.005 A 
HETATM   15  C10 UNL     1      22.633  -0.491  53.504  1.00  0.00     0.014 A 
HETATM   16  C11 UNL     1      22.024  -1.355  54.381  1.00  0.00     0.003 A 
HETATM   17  C12 UNL     1      20.664  -1.573  54.348  1.00  0.00     0.024 A 
HETATM   18  C13 UNL     1      19.921  -0.897  53.407  1.00  0.00     0.035 A 
HETATM   19 CL1  UNL     1      18.196  -1.182  53.377  1.00  0.00    -0.084 Cl
HETATM   20  C14 UNL     1      20.567  -0.038  52.545  1.00  0.00     0.037 A 
ENDBRANCH   8  14
BRANCH   1  21
HETATM   21  C2  UNL     1      26.359  -0.092  52.283  1.00  0.00    -0.140 C 
HETATM   22  C1  UNL     1      26.690  -1.225  52.884  1.00  0.00     0.094 C 
ENDBRANCH   1  21
TORSDOF 2
ENDMDL
MODEL 6
REMARK VINA RESULT:      -8.3      3.146      5.950
REMARK  2 active torsions:
REMARK  status: ('A' for Active; 'I' for Inactive)
REMARK    1  A    between atoms: C2_2  and  C3_3 
REMARK    2  A    between atoms: C8_10  and  C9_11 
ROOT
HETATM    1  C3  UNL     1      24.460   2.086  51.655  1.00  0.00     0.158 C 
HETATM    2  C4  UNL     1      23.179   1.380  51.724  1.00  0.00     0.098 C 
HETATM    3  C5  UNL     1      23.034   0.470  52.864  1.00  0.00     0.004 A 
HETATM    4  C6  UNL     1      23.923  -0.301  53.582  1.00  0.00     0.067 A 
HETATM    5  N1  UNL     1      23.490  -1.036  54.623  1.00  0.00    -0.242 NA
HETATM    6  C7  UNL     1      22.193  -1.005  54.948  1.00  0.00     0.234 A 
HETATM    7  N2  UNL     1      21.362  -0.255  54.238  1.00  0.00    -0.241 NA
HETATM    8  C8  UNL     1      21.699   0.508  53.189  1.00  0.00     0.077 A 
HETATM    9  C15 UNL     1      25.345  -0.610  53.571  1.00  0.00     0.036 C 
HETATM   10  C16 UNL     1      26.364  -0.198  52.835  1.00  0.00    -0.058 C 
HETATM   11  C17 UNL     1      27.631  -0.863  53.274  1.00  0.00     0.046 C 
HETATM   12  C18 UNL     1      26.594   0.719  51.719  1.00  0.00     0.204 C 
HETATM   13  O1  UNL     1      25.803   1.900  51.750  1.00  0.00    -0.360 OA
ENDROOT
BRANCH   8  14
HETATM   14  C9  UNL     1      20.619   1.254  52.571  1.00  0.00    -0.005 A 
HETATM   15  C10 UNL     1      20.289   2.591  52.500  1.00  0.00     0.014 A 
HETATM   16  C11 UNL     1      19.172   3.058  51.851  1.00  0.00     0.003 A 
HETATM   17  C12 UNL     1      18.297   2.204  51.219  1.00  0.00     0.024 A 
HETATM   18  C13 UNL     1      18.569   0.854  51.252  1.00  0.00     0.035 A 
HETATM   19 CL1  UNL     1      17.449  -0.220  50.445  1.00  0.00    -0.084 Cl
HETATM   20  C14 UNL     1      19.698   0.423  51.912  1.00  0.00     0.037 A 
ENDBRANCH   8  14
BRANCH   1  21
HETATM   21  C2  UNL     1      24.322   3.389  51.411  1.00  0.00    -0.140 C 
HETATM   22  C1  UNL     1      23.893   4.632  51.256  1.00  0.00     0.094 C 
ENDBRANCH   1  21
TORSDOF 2
ENDMDL
MODEL 7
REMARK VINA RESULT:      -8.2      2.919      4.393
REMARK  2 active torsions:
REMARK  status: ('A' for Active; 'I' for Inactive)
REMARK    1  A    between atoms: C2_2  and  C3_3 
REMARK    2  A    between atoms: C8_10  and  C9_11 
ROOT
HETATM    1  C3  UNL     1      22.198   1.426  51.061  1.00  0.00     0.158 C 
HETATM    2  C4  UNL     1      23.274   2.387  51.305  1.00  0.00     0.098 C 
HETATM    3  C5  UNL     1      24.473   1.828  51.935  1.00  0.00     0.004 A 
HETATM    4  C6  UNL     1      24.685   0.800  52.829  1.00  0.00     0.067 A 
HETATM    5  N1  UNL     1      25.935   0.491  53.218  1.00  0.00    -0.242 NA
HETATM    6  C7  UNL     1      26.963   1.194  52.728  1.00  0.00     0.234 A 
HETATM    7  N2  UNL     1      26.728   2.178  51.871  1.00  0.00    -0.241 NA
HETATM    8  C8  UNL     1      25.522   2.556  51.426  1.00  0.00     0.077 A 
HETATM    9  C15 UNL     1      23.894  -0.171  53.570  1.00  0.00     0.036 C 
HETATM   10  C16 UNL     1      22.601  -0.450  53.621  1.00  0.00    -0.058 C 
HETATM   11  C17 UNL     1      22.345  -1.572  54.579  1.00  0.00     0.046 C 
HETATM   12  C18 UNL     1      21.365   0.032  53.008  1.00  0.00     0.204 C 
HETATM   13  O1  UNL     1      21.492   0.423  51.647  1.00  0.00    -0.360 OA
ENDROOT
BRANCH   8  14
HETATM   14  C9  UNL     1      25.509   3.656  50.480  1.00  0.00    -0.005 A 
HETATM   15  C10 UNL     1      24.535   4.512  50.011  1.00  0.00     0.014 A 
HETATM   16  C11 UNL     1      24.776   5.489  49.076  1.00  0.00     0.003 A 
HETATM   17  C12 UNL     1      26.030   5.676  48.538  1.00  0.00     0.024 A 
HETATM   18  C13 UNL     1      27.049   4.854  48.965  1.00  0.00     0.035 A 
HETATM   19 CL1  UNL     1      28.637   5.104  48.274  1.00  0.00    -0.084 Cl
HETATM   20  C14 UNL     1      26.770   3.887  49.904  1.00  0.00     0.037 A 
ENDBRANCH   8  14
BRANCH   1  21
HETATM   21  C2  UNL     1      21.683   1.522  49.836  1.00  0.00    -0.140 C 
HETATM   22  C1  UNL     1      21.257   1.320  48.598  1.00  0.00     0.094 C 
ENDBRANCH   1  21
TORSDOF 2
ENDMDL
MODEL 8
REMARK VINA RESULT:      -8.2      3.817      6.802
REMARK  2 active torsions:
REMARK  status: ('A' for Active; 'I' for Inactive)
REMARK    1  A    between atoms: C2_2  and  C3_3 
REMARK    2  A    between atoms: C8_10  and  C9_11 
ROOT
HETATM    1  C3  UNL     1      24.537   0.338  53.554  1.00  0.00     0.158 C 
HETATM    2  C4  UNL     1      24.176   1.679  53.092  1.00  0.00     0.098 C 
HETATM    3  C5  UNL     1      25.119   2.283  52.148  1.00  0.00     0.004 A 
HETATM    4  C6  UNL     1      26.483   2.185  51.975  1.00  0.00     0.067 A 
HETATM    5  N1  UNL     1      27.086   2.857  50.977  1.00  0.00    -0.242 NA
HETATM    6  C7  UNL     1      26.346   3.616  50.161  1.00  0.00     0.234 A 
HETATM    7  N2  UNL     1      25.036   3.691  50.353  1.00  0.00    -0.241 NA
HETATM    8  C8  UNL     1      24.350   3.061  51.315  1.00  0.00     0.077 A 
HETATM    9  C15 UNL     1      27.609   1.508  52.600  1.00  0.00     0.036 C 
HETATM   10  C16 UNL     1      27.719   0.657  53.607  1.00  0.00    -0.058 C 
HETATM   11  C17 UNL     1      29.152   0.279  53.821  1.00  0.00     0.046 C 
HETATM   12  C18 UNL     1      26.837  -0.010  54.563  1.00  0.00     0.204 C 
HETATM   13  O1  UNL     1      25.575  -0.397  54.033  1.00  0.00    -0.360 OA
ENDROOT
BRANCH   8  14
HETATM   14  C9  UNL     1      22.916   3.285  51.325  1.00  0.00    -0.005 A 
HETATM   15  C10 UNL     1      22.092   4.221  51.913  1.00  0.00     0.014 A 
HETATM   16  C11 UNL     1      20.724   4.209  51.783  1.00  0.00     0.003 A 
HETATM   17  C12 UNL     1      20.081   3.241  51.044  1.00  0.00     0.024 A 
HETATM   18  C13 UNL     1      20.847   2.276  50.431  1.00  0.00     0.035 A 
HETATM   19 CL1  UNL     1      20.016   1.054  49.495  1.00  0.00    -0.084 Cl
HETATM   20  C14 UNL     1      22.215   2.321  50.583  1.00  0.00     0.037 A 
ENDBRANCH   8  14
BRANCH   1  21
HETATM   21  C2  UNL     1      23.515  -0.518  53.515  1.00  0.00    -0.140 C 
HETATM   22  C1  UNL     1      22.332  -1.109  53.460  1.00  0.00     0.094 C 
ENDBRANCH   1  21
TORSDOF 2
ENDMDL
MODEL 9
REMARK VINA RESULT:      -7.7      5.211      7.569
REMARK  2 active torsions:
REMARK  status: ('A' for Active; 'I' for Inactive)
REMARK    1  A    between atoms: C2_2  and  C3_3 
REMARK    2  A    between atoms: C8_10  and  C9_11 
ROOT
HETATM    1  C3  UNL     1      26.272   3.731  49.732  1.00  0.00     0.158 C 
HETATM    2  C4  UNL     1      24.899   3.917  49.260  1.00  0.00     0.098 C 
HETATM    3  C5  UNL     1      23.912   4.174  50.312  1.00  0.00     0.004 A 
HETATM    4  C6  UNL     1      23.802   3.779  51.628  1.00  0.00     0.067 A 
HETATM    5  N1  UNL     1      22.770   4.207  52.377  1.00  0.00    -0.242 NA
HETATM    6  C7  UNL     1      21.857   5.017  51.827  1.00  0.00     0.234 A 
HETATM    7  N2  UNL     1      21.989   5.380  50.559  1.00  0.00    -0.241 NA
HETATM    8  C8  UNL     1      22.980   5.006  49.738  1.00  0.00     0.077 A 
HETATM    9  C15 UNL     1      24.532   2.950  52.575  1.00  0.00     0.036 C 
HETATM   10  C16 UNL     1      25.662   2.264  52.508  1.00  0.00    -0.058 C 
HETATM   11  C17 UNL     1      25.938   1.581  53.812  1.00  0.00     0.046 C 
HETATM   12  C18 UNL     1      26.705   1.988  51.522  1.00  0.00     0.204 C 
HETATM   13  O1  UNL     1      27.015   3.081  50.667  1.00  0.00    -0.360 OA
ENDROOT
BRANCH   8  14
HETATM   14  C9  UNL     1      22.923   5.537  48.389  1.00  0.00    -0.005 A 
HETATM   15  C10 UNL     1      23.371   6.696  47.790  1.00  0.00     0.014 A 
HETATM   16  C11 UNL     1      23.173   6.983  46.461  1.00  0.00     0.003 A 
HETATM   17  C12 UNL     1      22.502   6.114  45.630  1.00  0.00     0.024 A 
HETATM   18  C13 UNL     1      22.029   4.937  46.166  1.00  0.00     0.035 A 
HETATM   19 CL1  UNL     1      21.179   3.843  45.098  1.00  0.00    -0.084 Cl
HETATM   20  C14 UNL     1      22.247   4.683  47.502  1.00  0.00     0.037 A 
ENDBRANCH   8  14
BRANCH   1  21
HETATM   21  C2  UNL     1      27.163   4.427  49.026  1.00  0.00    -0.140 C 
HETATM   22  C1  UNL     1      27.935   5.357  48.486  1.00  0.00     0.094 C 
ENDBRANCH   1  21
TORSDOF 2
ENDMDL
