MODEL 1
REMARK VINA RESULT:      -7.6      0.000      0.000
REMARK  7 active torsions:
REMARK  status: ('A' for Active; 'I' for Inactive)
REMARK    1  A    between atoms: O1_2  and  C2_3 
REMARK    2  A    between atoms: C7_8  and  O2_9 
REMARK    3  A    between atoms: O2_9  and  C8_10 
REMARK    4  A    between atoms: C8_10  and  C9_11 
REMARK    5  A    between atoms: C9_11  and  C10_12 
REMARK    6  A    between atoms: C10_12  and  N1_13 
REMARK    7  A    between atoms: N4_22  and  C16_23 
ROOT
HETATM    1  C2  UNL     1      21.456   2.545  49.996  1.00  0.00     0.097 A 
HETATM    2  C3  UNL     1      21.368   1.226  50.132  1.00  0.00     0.017 A 
HETATM    3  C4  UNL     1      21.383   0.218  51.222  1.00  0.00     0.090 A 
HETATM    4  C5  UNL     1      21.543   0.929  52.530  1.00  0.00     0.153 A 
HETATM    5  C6  UNL     1      21.636   2.375  52.323  1.00  0.00     0.068 A 
HETATM    6  C7  UNL     1      21.614   3.209  51.307  1.00  0.00     0.102 A 
HETATM    7  N2  UNL     1      20.385   0.697  53.402  1.00  0.00    -0.352 N 
HETATM    8  C15 UNL     1      20.775  -0.039  54.554  1.00  0.00     0.227 C 
HETATM    9  N3  UNL     1      22.039  -0.172  54.513  1.00  0.00    -0.165 NA
HETATM   10  N4  UNL     1      22.596   0.444  53.364  1.00  0.00    -0.235 N 
HETATM   11  H22 UNL     1      19.404   1.014  53.231  1.00  0.00     0.163 HD
ENDROOT
BRANCH  10  12
HETATM   12  C16 UNL     1      23.986   0.506  53.184  1.00  0.00     0.058 A 
HETATM   13  C17 UNL     1      24.688   1.692  53.142  1.00  0.00     0.034 A 
HETATM   14  C18 UNL     1      26.055   1.806  52.966  1.00  0.00     0.046 A 
HETATM   15  C19 UNL     1      26.808   0.662  52.819  1.00  0.00     0.138 A 
HETATM   16  F1  UNL     1      28.131   0.682  52.644  1.00  0.00    -0.204 F 
HETATM   17  C20 UNL     1      26.160  -0.532  52.853  1.00  0.00     0.074 A 
HETATM   18 CL1  UNL     1      27.098  -2.018  52.664  1.00  0.00    -0.081 Cl
HETATM   19  C21 UNL     1      24.805  -0.596  53.029  1.00  0.00     0.058 A 
ENDBRANCH  10  12
BRANCH   6  20
HETATM   20  O2  UNL     1      21.730   4.562  51.456  1.00  0.00    -0.348 OA
BRANCH  20  21
HETATM   21  C8  UNL     1      22.854   5.250  51.906  1.00  0.00     0.177 C 
BRANCH  21  22
HETATM   22  C9  UNL     1      23.652   5.629  50.661  1.00  0.00     0.046 C 
BRANCH  22  23
HETATM   23  C10 UNL     1      24.855   4.741  50.531  1.00  0.00     0.119 C 
BRANCH  23  24
HETATM   24  N1  UNL     1      25.568   4.999  49.297  1.00  0.00    -0.408 N 
HETATM   25  C11 UNL     1      25.510   6.349  48.871  1.00  0.00     0.143 C 
HETATM   26  C12 UNL     1      26.871   7.009  48.922  1.00  0.00     0.187 C 
HETATM   27  O3  UNL     1      27.673   6.277  48.056  1.00  0.00    -0.388 OA
HETATM   28  C13 UNL     1      27.932   5.020  48.572  1.00  0.00     0.187 C 
HETATM   29  C14 UNL     1      26.788   4.306  49.183  1.00  0.00     0.143 C 
ENDBRANCH  23  24
ENDBRANCH  22  23
ENDBRANCH  21  22
ENDBRANCH  20  21
ENDBRANCH   6  20
BRANCH   1  30
HETATM   30  O1  UNL     1      21.419   3.311  48.854  1.00  0.00    -0.353 OA
HETATM   31  C1  UNL     1      22.467   3.393  47.908  1.00  0.00     0.210 C 
ENDBRANCH   1  30
TORSDOF 7
ENDMDL
MODEL 2
REMARK VINA RESULT:      -7.5      1.990      6.027
REMARK  7 active torsions:
REMARK  status: ('A' for Active; 'I' for Inactive)
REMARK    1  A    between atoms: O1_2  and  C2_3 
REMARK    2  A    between atoms: C7_8  and  O2_9 
REMARK    3  A    between atoms: O2_9  and  C8_10 
REMARK    4  A    between atoms: C8_10  and  C9_11 
REMARK    5  A    between atoms: C9_11  and  C10_12 
REMARK    6  A    between atoms: C10_12  and  N1_13 
REMARK    7  A    between atoms: N4_22  and  C16_23 
ROOT
HETATM    1  C2  UNL     1      21.834   4.181  50.812  1.00  0.00     0.097 A 
HETATM    2  C3  UNL     1      22.791   4.952  51.317  1.00  0.00     0.017 A 
HETATM    3  C4  UNL     1      24.264   5.107  51.213  1.00  0.00     0.090 A 
HETATM    4  C5  UNL     1      24.787   4.084  50.252  1.00  0.00     0.153 A 
HETATM    5  C6  UNL     1      23.694   3.264  49.727  1.00  0.00     0.068 A 
HETATM    6  C7  UNL     1      22.389   3.186  49.870  1.00  0.00     0.102 A 
HETATM    7  N2  UNL     1      25.430   4.724  49.097  1.00  0.00    -0.352 N 
HETATM    8  C15 UNL     1      26.820   4.427  49.080  1.00  0.00     0.227 C 
HETATM    9  N3  UNL     1      27.047   3.604  50.023  1.00  0.00    -0.165 NA
HETATM   10  N4  UNL     1      25.865   3.283  50.737  1.00  0.00    -0.235 N 
HETATM   11  H22 UNL     1      24.963   5.317  48.375  1.00  0.00     0.163 HD
ENDROOT
BRANCH  10  12
HETATM   12  C16 UNL     1      25.877   2.309  51.747  1.00  0.00     0.058 A 
HETATM   13  C17 UNL     1      25.494   2.566  53.047  1.00  0.00     0.034 A 
HETATM   14  C18 UNL     1      25.489   1.643  54.075  1.00  0.00     0.046 A 
HETATM   15  C19 UNL     1      25.892   0.351  53.817  1.00  0.00     0.138 A 
HETATM   16  F1  UNL     1      25.918  -0.601  54.752  1.00  0.00    -0.204 F 
HETATM   17  C20 UNL     1      26.279   0.049  52.550  1.00  0.00     0.074 A 
HETATM   18 CL1  UNL     1      26.802  -1.599  52.187  1.00  0.00    -0.081 Cl
HETATM   19  C21 UNL     1      26.267   0.996  51.563  1.00  0.00     0.058 A 
ENDBRANCH  10  12
BRANCH   6  20
HETATM   20  O2  UNL     1      21.625   2.268  49.209  1.00  0.00    -0.348 OA
BRANCH  20  21
HETATM   21  C8  UNL     1      21.577   0.898  49.460  1.00  0.00     0.177 C 
BRANCH  21  22
HETATM   22  C9  UNL     1      21.806   0.728  50.960  1.00  0.00     0.046 C 
BRANCH  22  23
HETATM   23  C10 UNL     1      20.489   0.666  51.676  1.00  0.00     0.119 C 
BRANCH  23  24
HETATM   24  N1  UNL     1      20.671   0.420  53.092  1.00  0.00    -0.408 N 
HETATM   25  C11 UNL     1      19.776  -0.538  53.628  1.00  0.00     0.143 C 
HETATM   26  C12 UNL     1      20.499  -1.788  54.078  1.00  0.00     0.187 C 
HETATM   27  O3  UNL     1      21.386  -1.372  55.062  1.00  0.00    -0.388 OA
HETATM   28  C13 UNL     1      22.408  -0.618  54.514  1.00  0.00     0.187 C 
HETATM   29  C14 UNL     1      22.018   0.388  53.500  1.00  0.00     0.143 C 
ENDBRANCH  23  24
ENDBRANCH  22  23
ENDBRANCH  21  22
ENDBRANCH  20  21
ENDBRANCH   6  20
BRANCH   1  30
HETATM   30  O1  UNL     1      20.479   4.202  51.047  1.00  0.00    -0.353 OA
HETATM   31  C1  UNL     1      19.533   4.868  50.233  1.00  0.00     0.210 C 
ENDBRANCH   1  30
TORSDOF 7
ENDMDL
MODEL 3
REMARK VINA RESULT:      -7.3      3.336      5.770
REMARK  7 active torsions:
REMARK  status: ('A' for Active; 'I' for Inactive)
REMARK    1  A    between atoms: O1_2  and  C2_3 
REMARK    2  A    between atoms: C7_8  and  O2_9 
REMARK    3  A    between atoms: O2_9  and  C8_10 
REMARK    4  A    between atoms: C8_10  and  C9_11 
REMARK    5  A    between atoms: C9_11  and  C10_12 
REMARK    6  A    between atoms: C10_12  and  N1_13 
REMARK    7  A    between atoms: N4_22  and  C16_23 
ROOT
HETATM    1  C2  UNL     1      23.562   4.201  51.743  1.00  0.00     0.097 A 
HETATM    2  C3  UNL     1      24.082   3.833  52.910  1.00  0.00     0.017 A 
HETATM    3  C4  UNL     1      24.748   2.647  53.504  1.00  0.00     0.090 A 
HETATM    4  C5  UNL     1      24.846   1.578  52.459  1.00  0.00     0.153 A 
HETATM    5  C6  UNL     1      24.259   2.034  51.198  1.00  0.00     0.068 A 
HETATM    6  C7  UNL     1      23.676   3.121  50.741  1.00  0.00     0.102 A 
HETATM    7  N2  UNL     1      26.247   1.241  52.178  1.00  0.00    -0.352 N 
HETATM    8  C15 UNL     1      26.520  -0.098  52.571  1.00  0.00     0.227 C 
HETATM    9  N3  UNL     1      25.422  -0.617  52.948  1.00  0.00    -0.165 NA
HETATM   10  N4  UNL     1      24.344   0.298  52.845  1.00  0.00    -0.235 N 
HETATM   11  H22 UNL     1      26.965   1.869  51.752  1.00  0.00     0.163 HD
ENDROOT
BRANCH  10  12
HETATM   12  C16 UNL     1      23.027  -0.108  53.108  1.00  0.00     0.058 A 
HETATM   13  C17 UNL     1      22.667  -0.815  54.236  1.00  0.00     0.034 A 
HETATM   14  C18 UNL     1      21.387  -1.239  54.538  1.00  0.00     0.046 A 
HETATM   15  C19 UNL     1      20.362  -0.948  53.666  1.00  0.00     0.138 A 
HETATM   16  F1  UNL     1      19.098  -1.319  53.881  1.00  0.00    -0.204 F 
HETATM   17  C20 UNL     1      20.667  -0.253  52.538  1.00  0.00     0.074 A 
HETATM   18 CL1  UNL     1      19.375   0.134  51.398  1.00  0.00    -0.081 Cl
HETATM   19  C21 UNL     1      21.950   0.146  52.280  1.00  0.00     0.058 A 
ENDBRANCH  10  12
BRANCH   6  20
HETATM   20  O2  UNL     1      23.221   3.233  49.458  1.00  0.00    -0.348 OA
BRANCH  20  21
HETATM   21  C8  UNL     1      22.475   2.285  48.761  1.00  0.00     0.177 C 
BRANCH  21  22
HETATM   22  C9  UNL     1      21.008   2.641  48.987  1.00  0.00     0.046 C 
BRANCH  22  23
HETATM   23  C10 UNL     1      20.813   4.123  48.857  1.00  0.00     0.119 C 
BRANCH  23  24
HETATM   24  N1  UNL     1      19.882   4.620  49.849  1.00  0.00    -0.408 N 
HETATM   25  C11 UNL     1      18.722   5.219  49.300  1.00  0.00     0.143 C 
HETATM   26  C12 UNL     1      17.477   4.419  49.619  1.00  0.00     0.187 C 
HETATM   27  O3  UNL     1      17.387   4.406  51.004  1.00  0.00    -0.388 OA
HETATM   28  C13 UNL     1      18.390   3.627  51.553  1.00  0.00     0.187 C 
HETATM   29  C14 UNL     1      19.744   3.786  50.975  1.00  0.00     0.143 C 
ENDBRANCH  23  24
ENDBRANCH  22  23
ENDBRANCH  21  22
ENDBRANCH  20  21
ENDBRANCH   6  20
BRANCH   1  30
HETATM   30  O1  UNL     1      22.970   5.390  51.386  1.00  0.00    -0.353 OA
HETATM   31  C1  UNL     1      23.636   6.453  50.732  1.00  0.00     0.210 C 
ENDBRANCH   1  30
TORSDOF 7
ENDMDL
MODEL 4
REMARK VINA RESULT:      -7.2      3.494      5.312
REMARK  7 active torsions:
REMARK  status: ('A' for Active; 'I' for Inactive)
REMARK    1  A    between atoms: O1_2  and  C2_3 
REMARK    2  A    between atoms: C7_8  and  O2_9 
REMARK    3  A    between atoms: O2_9  and  C8_10 
REMARK    4  A    between atoms: C8_10  and  C9_11 
REMARK    5  A    between atoms: C9_11  and  C10_12 
REMARK    6  A    between atoms: C10_12  and  N1_13 
REMARK    7  A    between atoms: N4_22  and  C16_23 
ROOT
HETATM    1  C2  UNL     1      23.361   3.009  49.987  1.00  0.00     0.097 A 
HETATM    2  C3  UNL     1      22.311   2.499  49.352  1.00  0.00     0.017 A 
HETATM    3  C4  UNL     1      20.838   2.418  49.527  1.00  0.00     0.090 A 
HETATM    4  C5  UNL     1      20.467   3.127  50.793  1.00  0.00     0.153 A 
HETATM    5  C6  UNL     1      21.658   3.667  51.451  1.00  0.00     0.068 A 
HETATM    6  C7  UNL     1      22.954   3.697  51.229  1.00  0.00     0.102 A 
HETATM    7  N2  UNL     1      19.579   4.265  50.520  1.00  0.00    -0.352 N 
HETATM    8  C15 UNL     1      18.299   4.041  51.096  1.00  0.00     0.227 C 
HETATM    9  N3  UNL     1      18.364   2.960  51.763  1.00  0.00    -0.165 NA
HETATM   10  N4  UNL     1      19.655   2.377  51.697  1.00  0.00    -0.235 N 
HETATM   11  H22 UNL     1      19.823   5.129  49.985  1.00  0.00     0.163 HD
ENDROOT
BRANCH  10  12
HETATM   12  C16 UNL     1      19.969   1.238  52.452  1.00  0.00     0.058 A 
HETATM   13  C17 UNL     1      21.186   1.058  53.076  1.00  0.00     0.034 A 
HETATM   14  C18 UNL     1      21.543  -0.045  53.828  1.00  0.00     0.046 A 
HETATM   15  C19 UNL     1      20.634  -1.067  53.991  1.00  0.00     0.138 A 
HETATM   16  F1  UNL     1      20.897  -2.166  54.701  1.00  0.00    -0.204 F 
HETATM   17  C20 UNL     1      19.420  -0.936  53.395  1.00  0.00     0.074 A 
HETATM   18 CL1  UNL     1      18.232  -2.230  53.584  1.00  0.00    -0.081 Cl
HETATM   19  C21 UNL     1      19.110   0.175  52.659  1.00  0.00     0.058 A 
ENDBRANCH  10  12
BRANCH   6  20
HETATM   20  O2  UNL     1      23.835   4.309  52.074  1.00  0.00    -0.348 OA
BRANCH  20  21
HETATM   21  C8  UNL     1      24.200   3.872  53.345  1.00  0.00     0.177 C 
BRANCH  21  22
HETATM   22  C9  UNL     1      24.663   2.426  53.187  1.00  0.00     0.046 C 
BRANCH  22  23
HETATM   23  C10 UNL     1      26.099   2.391  52.755  1.00  0.00     0.119 C 
BRANCH  23  24
HETATM   24  N1  UNL     1      26.956   1.904  53.816  1.00  0.00    -0.408 N 
HETATM   25  C11 UNL     1      26.620   0.607  54.276  1.00  0.00     0.143 C 
HETATM   26  C12 UNL     1      27.705  -0.398  53.954  1.00  0.00     0.187 C 
HETATM   27  O3  UNL     1      28.840   0.056  54.614  1.00  0.00    -0.388 OA
HETATM   28  C13 UNL     1      29.321   1.211  54.026  1.00  0.00     0.187 C 
HETATM   29  C14 UNL     1      28.315   2.232  53.653  1.00  0.00     0.143 C 
ENDBRANCH  23  24
ENDBRANCH  22  23
ENDBRANCH  21  22
ENDBRANCH  20  21
ENDBRANCH   6  20
BRANCH   1  30
HETATM   30  O1  UNL     1      24.693   2.972  49.644  1.00  0.00    -0.353 OA
HETATM   31  C1  UNL     1      25.469   4.108  49.318  1.00  0.00     0.210 C 
ENDBRANCH   1  30
TORSDOF 7
ENDMDL
MODEL 5
REMARK VINA RESULT:      -7.1      1.755      2.187
REMARK  7 active torsions:
REMARK  status: ('A' for Active; 'I' for Inactive)
REMARK    1  A    between atoms: O1_2  and  C2_3 
REMARK    2  A    between atoms: C7_8  and  O2_9 
REMARK    3  A    between atoms: O2_9  and  C8_10 
REMARK    4  A    between atoms: C8_10  and  C9_11 
REMARK    5  A    between atoms: C9_11  and  C10_12 
REMARK    6  A    between atoms: C10_12  and  N1_13 
REMARK    7  A    between atoms: N4_22  and  C16_23 
ROOT
HETATM    1  C2  UNL     1      22.274   2.478  49.970  1.00  0.00     0.097 A 
HETATM    2  C3  UNL     1      21.986   1.191  50.133  1.00  0.00     0.017 A 
HETATM    3  C4  UNL     1      21.811   0.224  51.246  1.00  0.00     0.090 A 
HETATM    4  C5  UNL     1      22.028   0.941  52.543  1.00  0.00     0.153 A 
HETATM    5  C6  UNL     1      22.342   2.351  52.306  1.00  0.00     0.068 A 
HETATM    6  C7  UNL     1      22.482   3.150  51.270  1.00  0.00     0.102 A 
HETATM    7  N2  UNL     1      20.817   0.909  53.373  1.00  0.00    -0.352 N 
HETATM    8  C15 UNL     1      21.051   0.157  54.556  1.00  0.00     0.227 C 
HETATM    9  N3  UNL     1      22.282  -0.163  54.569  1.00  0.00    -0.165 NA
HETATM   10  N4  UNL     1      22.966   0.330  53.429  1.00  0.00    -0.235 N 
HETATM   11  H22 UNL     1      19.902   1.363  53.155  1.00  0.00     0.163 HD
ENDROOT
BRANCH  10  12
HETATM   12  C16 UNL     1      24.355   0.181  53.304  1.00  0.00     0.058 A 
HETATM   13  C17 UNL     1      24.960  -1.019  52.997  1.00  0.00     0.034 A 
HETATM   14  C18 UNL     1      26.322  -1.217  52.863  1.00  0.00     0.046 A 
HETATM   15  C19 UNL     1      27.174  -0.150  53.043  1.00  0.00     0.138 A 
HETATM   16  F1  UNL     1      28.500  -0.254  52.934  1.00  0.00    -0.204 F 
HETATM   17  C20 UNL     1      26.625   1.055  53.348  1.00  0.00     0.074 A 
HETATM   18 CL1  UNL     1      27.691   2.443  53.587  1.00  0.00    -0.081 Cl
HETATM   19  C21 UNL     1      25.270   1.204  53.471  1.00  0.00     0.058 A 
ENDBRANCH  10  12
BRANCH   6  20
HETATM   20  O2  UNL     1      22.792   4.474  51.393  1.00  0.00    -0.348 OA
BRANCH  20  21
HETATM   21  C8  UNL     1      21.939   5.484  51.831  1.00  0.00     0.177 C 
BRANCH  21  22
HETATM   22  C9  UNL     1      21.372   6.144  50.577  1.00  0.00     0.046 C 
BRANCH  22  23
HETATM   23  C10 UNL     1      21.790   7.584  50.520  1.00  0.00     0.119 C 
BRANCH  23  24
HETATM   24  N1  UNL     1      22.994   7.751  49.732  1.00  0.00    -0.408 N 
HETATM   25  C11 UNL     1      24.130   8.125  50.491  1.00  0.00     0.143 C 
HETATM   26  C12 UNL     1      25.180   7.036  50.497  1.00  0.00     0.187 C 
HETATM   27  O3  UNL     1      25.541   6.859  49.168  1.00  0.00    -0.388 OA
HETATM   28  C13 UNL     1      24.511   6.274  48.453  1.00  0.00     0.187 C 
HETATM   29  C14 UNL     1      23.149   6.795  48.710  1.00  0.00     0.143 C 
ENDBRANCH  23  24
ENDBRANCH  22  23
ENDBRANCH  21  22
ENDBRANCH  20  21
ENDBRANCH   6  20
BRANCH   1  30
HETATM   30  O1  UNL     1      22.393   3.208  48.810  1.00  0.00    -0.353 OA
HETATM   31  C1  UNL     1      21.386   3.314  47.822  1.00  0.00     0.210 C 
ENDBRANCH   1  30
TORSDOF 7
ENDMDL
MODEL 6
REMARK VINA RESULT:      -7.0      2.960      4.326
REMARK  7 active torsions:
REMARK  status: ('A' for Active; 'I' for Inactive)
REMARK    1  A    between atoms: O1_2  and  C2_3 
REMARK    2  A    between atoms: C7_8  and  O2_9 
REMARK    3  A    between atoms: O2_9  and  C8_10 
REMARK    4  A    between atoms: C8_10  and  C9_11 
REMARK    5  A    between atoms: C9_11  and  C10_12 
REMARK    6  A    between atoms: C10_12  and  N1_13 
REMARK    7  A    between atoms: N4_22  and  C16_23 
ROOT
HETATM    1  C2  UNL     1      22.321   4.804  51.504  1.00  0.00     0.097 A 
HETATM    2  C3  UNL     1      23.070   4.671  52.593  1.00  0.00     0.017 A 
HETATM    3  C4  UNL     1      24.166   3.800  53.088  1.00  0.00     0.090 A 
HETATM    4  C5  UNL     1      24.495   2.795  52.028  1.00  0.00     0.153 A 
HETATM    5  C6  UNL     1      23.642   2.985  50.854  1.00  0.00     0.068 A 
HETATM    6  C7  UNL     1      22.674   3.795  50.483  1.00  0.00     0.102 A 
HETATM    7  N2  UNL     1      25.884   2.942  51.573  1.00  0.00    -0.352 N 
HETATM    8  C15 UNL     1      26.640   1.788  51.915  1.00  0.00     0.227 C 
HETATM    9  N3  UNL     1      25.837   0.941  52.419  1.00  0.00    -0.165 NA
HETATM   10  N4  UNL     1      24.508   1.433  52.459  1.00  0.00    -0.235 N 
HETATM   11  H22 UNL     1      26.288   3.762  51.068  1.00  0.00     0.163 HD
ENDROOT
BRANCH  10  12
HETATM   12  C16 UNL     1      23.449   0.614  52.878  1.00  0.00     0.058 A 
HETATM   13  C17 UNL     1      23.582  -0.349  53.856  1.00  0.00     0.034 A 
HETATM   14  C18 UNL     1      22.571  -1.180  54.302  1.00  0.00     0.046 A 
HETATM   15  C19 UNL     1      21.316  -1.065  53.746  1.00  0.00     0.138 A 
HETATM   16  F1  UNL     1      20.286  -1.828  54.117  1.00  0.00    -0.204 F 
HETATM   17  C20 UNL     1      21.136  -0.130  52.776  1.00  0.00     0.074 A 
HETATM   18 CL1  UNL     1      19.538   0.041  52.043  1.00  0.00    -0.081 Cl
HETATM   19  C21 UNL     1      22.166   0.671  52.367  1.00  0.00     0.058 A 
ENDBRANCH  10  12
BRANCH   6  20
HETATM   20  O2  UNL     1      22.058   3.706  49.268  1.00  0.00    -0.348 OA
BRANCH  20  21
HETATM   21  C8  UNL     1      22.629   3.989  48.030  1.00  0.00     0.177 C 
BRANCH  21  22
HETATM   22  C9  UNL     1      22.766   5.508  47.957  1.00  0.00     0.046 C 
BRANCH  22  23
HETATM   23  C10 UNL     1      24.192   5.907  48.200  1.00  0.00     0.119 C 
BRANCH  23  24
HETATM   24  N1  UNL     1      24.272   7.083  49.042  1.00  0.00    -0.408 N 
HETATM   25  C11 UNL     1      25.167   6.948  50.132  1.00  0.00     0.143 C 
HETATM   26  C12 UNL     1      26.352   7.879  49.999  1.00  0.00     0.187 C 
HETATM   27  O3  UNL     1      25.819   9.161  49.985  1.00  0.00    -0.388 OA
HETATM   28  C13 UNL     1      25.127   9.392  48.809  1.00  0.00     0.187 C 
HETATM   29  C14 UNL     1      24.248   8.299  48.334  1.00  0.00     0.143 C 
ENDBRANCH  23  24
ENDBRANCH  22  23
ENDBRANCH  21  22
ENDBRANCH  20  21
ENDBRANCH   6  20
BRANCH   1  30
HETATM   30  O1  UNL     1      21.322   5.711  51.235  1.00  0.00    -0.353 OA
HETATM   31  C1  UNL     1      21.532   7.090  50.998  1.00  0.00     0.210 C 
ENDBRANCH   1  30
TORSDOF 7
ENDMDL
MODEL 7
REMARK VINA RESULT:      -7.0      3.292      5.170
REMARK  7 active torsions:
REMARK  status: ('A' for Active; 'I' for Inactive)
REMARK    1  A    between atoms: O1_2  and  C2_3 
REMARK    2  A    between atoms: C7_8  and  O2_9 
REMARK    3  A    between atoms: O2_9  and  C8_10 
REMARK    4  A    between atoms: C8_10  and  C9_11 
REMARK    5  A    between atoms: C9_11  and  C10_12 
REMARK    6  A    between atoms: C10_12  and  N1_13 
REMARK    7  A    between atoms: N4_22  and  C16_23 
ROOT
HETATM    1  C2  UNL     1      23.847   4.089  51.785  1.00  0.00     0.097 A 
HETATM    2  C3  UNL     1      24.313   3.709  52.971  1.00  0.00     0.017 A 
HETATM    3  C4  UNL     1      24.906   2.500  53.595  1.00  0.00     0.090 A 
HETATM    4  C5  UNL     1      24.988   1.418  52.563  1.00  0.00     0.153 A 
HETATM    5  C6  UNL     1      24.462   1.888  51.280  1.00  0.00     0.068 A 
HETATM    6  C7  UNL     1      23.944   2.995  50.796  1.00  0.00     0.102 A 
HETATM    7  N2  UNL     1      26.381   1.016  52.330  1.00  0.00    -0.352 N 
HETATM    8  C15 UNL     1      26.581  -0.330  52.742  1.00  0.00     0.227 C 
HETATM    9  N3  UNL     1      25.450  -0.796  53.088  1.00  0.00    -0.165 NA
HETATM   10  N4  UNL     1      24.417   0.165  52.943  1.00  0.00    -0.235 N 
HETATM   11  H22 UNL     1      27.139   1.607  51.921  1.00  0.00     0.163 HD
ENDROOT
BRANCH  10  12
HETATM   12  C16 UNL     1      23.077  -0.179  53.167  1.00  0.00     0.058 A 
HETATM   13  C17 UNL     1      22.655  -0.889  54.272  1.00  0.00     0.034 A 
HETATM   14  C18 UNL     1      21.348  -1.253  54.537  1.00  0.00     0.046 A 
HETATM   15  C19 UNL     1      20.360  -0.895  53.646  1.00  0.00     0.138 A 
HETATM   16  F1  UNL     1      19.074  -1.206  53.825  1.00  0.00    -0.204 F 
HETATM   17  C20 UNL     1      20.727  -0.195  52.541  1.00  0.00     0.074 A 
HETATM   18 CL1  UNL     1      19.483   0.278  51.378  1.00  0.00    -0.081 Cl
HETATM   19  C21 UNL     1      22.033   0.144  52.320  1.00  0.00     0.058 A 
ENDBRANCH  10  12
BRANCH   6  20
HETATM   20  O2  UNL     1      23.534   3.115  49.499  1.00  0.00    -0.348 OA
BRANCH  20  21
HETATM   21  C8  UNL     1      22.546   2.359  48.872  1.00  0.00     0.177 C 
BRANCH  21  22
HETATM   22  C9  UNL     1      21.211   2.857  49.418  1.00  0.00     0.046 C 
BRANCH  22  23
HETATM   23  C10 UNL     1      20.635   3.895  48.501  1.00  0.00     0.119 C 
BRANCH  23  24
HETATM   24  N1  UNL     1      21.072   5.226  48.872  1.00  0.00    -0.408 N 
HETATM   25  C11 UNL     1      21.636   5.964  47.803  1.00  0.00     0.143 C 
HETATM   26  C12 UNL     1      20.781   7.157  47.436  1.00  0.00     0.187 C 
HETATM   27  O3  UNL     1      20.733   7.946  48.578  1.00  0.00    -0.388 OA
HETATM   28  C13 UNL     1      19.982   7.334  49.565  1.00  0.00     0.187 C 
HETATM   29  C14 UNL     1      20.208   5.885  49.766  1.00  0.00     0.143 C 
ENDBRANCH  23  24
ENDBRANCH  22  23
ENDBRANCH  21  22
ENDBRANCH  20  21
ENDBRANCH   6  20
BRANCH   1  30
HETATM   30  O1  UNL     1      23.320   5.299  51.399  1.00  0.00    -0.353 OA
HETATM   31  C1  UNL     1      24.089   6.420  51.006  1.00  0.00     0.210 C 
ENDBRANCH   1  30
TORSDOF 7
ENDMDL
MODEL 8
REMARK VINA RESULT:      -6.8      2.272      6.127
REMARK  7 active torsions:
REMARK  status: ('A' for Active; 'I' for Inactive)
REMARK    1  A    between atoms: O1_2  and  C2_3 
REMARK    2  A    between atoms: C7_8  and  O2_9 
REMARK    3  A    between atoms: O2_9  and  C8_10 
REMARK    4  A    between atoms: C8_10  and  C9_11 
REMARK    5  A    between atoms: C9_11  and  C10_12 
REMARK    6  A    between atoms: C10_12  and  N1_13 
REMARK    7  A    between atoms: N4_22  and  C16_23 
ROOT
HETATM    1  C2  UNL     1      22.688   6.823  50.009  1.00  0.00     0.097 A 
HETATM    2  C3  UNL     1      23.821   7.086  50.653  1.00  0.00     0.017 A 
HETATM    3  C4  UNL     1      25.239   6.645  50.632  1.00  0.00     0.090 A 
HETATM    4  C5  UNL     1      25.403   5.606  49.567  1.00  0.00     0.153 A 
HETATM    5  C6  UNL     1      24.129   5.354  48.891  1.00  0.00     0.068 A 
HETATM    6  C7  UNL     1      22.891   5.793  48.968  1.00  0.00     0.102 A 
HETATM    7  N2  UNL     1      26.349   6.051  48.536  1.00  0.00    -0.352 N 
HETATM    8  C15 UNL     1      27.505   5.224  48.539  1.00  0.00     0.227 C 
HETATM    9  N3  UNL     1      27.302   4.286  49.372  1.00  0.00    -0.165 NA
HETATM   10  N4  UNL     1      26.029   4.393  49.987  1.00  0.00    -0.235 N 
HETATM   11  H22 UNL     1      26.222   6.854  47.879  1.00  0.00     0.163 HD
ENDROOT
BRANCH  10  12
HETATM   12  C16 UNL     1      25.564   3.397  50.857  1.00  0.00     0.058 A 
HETATM   13  C17 UNL     1      24.423   3.535  51.620  1.00  0.00     0.034 A 
HETATM   14  C18 UNL     1      23.925   2.584  52.492  1.00  0.00     0.046 A 
HETATM   15  C19 UNL     1      24.596   1.390  52.634  1.00  0.00     0.138 A 
HETATM   16  F1  UNL     1      24.186   0.420  53.453  1.00  0.00    -0.204 F 
HETATM   17  C20 UNL     1      25.727   1.207  51.903  1.00  0.00     0.074 A 
HETATM   18 CL1  UNL     1      26.612  -0.314  52.065  1.00  0.00    -0.081 Cl
HETATM   19  C21 UNL     1      26.183   2.177  51.052  1.00  0.00     0.058 A 
ENDBRANCH  10  12
BRANCH   6  20
HETATM   20  O2  UNL     1      21.891   5.334  48.158  1.00  0.00    -0.348 OA
BRANCH  20  21
HETATM   21  C8  UNL     1      20.734   4.676  48.568  1.00  0.00     0.177 C 
BRANCH  21  22
HETATM   22  C9  UNL     1      21.189   3.490  49.414  1.00  0.00     0.046 C 
BRANCH  22  23
HETATM   23  C10 UNL     1      20.709   3.652  50.826  1.00  0.00     0.119 C 
BRANCH  23  24
HETATM   24  N1  UNL     1      20.159   2.414  51.340  1.00  0.00    -0.408 N 
HETATM   25  C11 UNL     1      20.391   1.293  50.506  1.00  0.00     0.143 C 
HETATM   26  C12 UNL     1      21.309   0.288  51.165  1.00  0.00     0.187 C 
HETATM   27  O3  UNL     1      20.654  -0.114  52.322  1.00  0.00    -0.388 OA
HETATM   28  C13 UNL     1      20.621   0.912  53.249  1.00  0.00     0.187 C 
HETATM   29  C14 UNL     1      20.295   2.261  52.733  1.00  0.00     0.143 C 
ENDBRANCH  23  24
ENDBRANCH  22  23
ENDBRANCH  21  22
ENDBRANCH  20  21
ENDBRANCH   6  20
BRANCH   1  30
HETATM   30  O1  UNL     1      21.436   7.361  50.187  1.00  0.00    -0.353 OA
HETATM   31  C1  UNL     1      20.971   8.538  49.556  1.00  0.00     0.210 C 
ENDBRANCH   1  30
TORSDOF 7
ENDMDL
MODEL 9
REMARK VINA RESULT:      -6.8      4.156      8.056
REMARK  7 active torsions:
REMARK  status: ('A' for Active; 'I' for Inactive)
REMARK    1  A    between atoms: O1_2  and  C2_3 
REMARK    2  A    between atoms: C7_8  and  O2_9 
REMARK    3  A    between atoms: O2_9  and  C8_10 
REMARK    4  A    between atoms: C8_10  and  C9_11 
REMARK    5  A    between atoms: C9_11  and  C10_12 
REMARK    6  A    between atoms: C10_12  and  N1_13 
REMARK    7  A    between atoms: N4_22  and  C16_23 
ROOT
HETATM    1  C2  UNL     1      24.056   6.206  50.877  1.00  0.00     0.097 A 
HETATM    2  C3  UNL     1      23.815   7.454  50.487  1.00  0.00     0.017 A 
HETATM    3  C4  UNL     1      23.967   8.285  49.266  1.00  0.00     0.090 A 
HETATM    4  C5  UNL     1      24.566   7.441  48.183  1.00  0.00     0.153 A 
HETATM    5  C6  UNL     1      24.811   6.081  48.665  1.00  0.00     0.068 A 
HETATM    6  C7  UNL     1      24.646   5.407  49.783  1.00  0.00     0.102 A 
HETATM    7  N2  UNL     1      23.655   7.329  47.037  1.00  0.00    -0.352 N 
HETATM    8  C15 UNL     1      24.221   7.957  45.895  1.00  0.00     0.227 C 
HETATM    9  N3  UNL     1      25.396   8.328  46.205  1.00  0.00    -0.165 NA
HETATM   10  N4  UNL     1      25.718   7.993  47.545  1.00  0.00    -0.235 N 
HETATM   11  H22 UNL     1      22.721   6.861  47.029  1.00  0.00     0.163 HD
ENDROOT
BRANCH  10  12
HETATM   12  C16 UNL     1      27.006   8.217  48.053  1.00  0.00     0.058 A 
HETATM   13  C17 UNL     1      27.336   9.320  48.811  1.00  0.00     0.034 A 
HETATM   14  C18 UNL     1      28.589   9.586  49.333  1.00  0.00     0.046 A 
HETATM   15  C19 UNL     1      29.614   8.697  49.097  1.00  0.00     0.138 A 
HETATM   16  F1  UNL     1      30.852   8.877  49.562  1.00  0.00    -0.204 F 
HETATM   17  C20 UNL     1      29.337   7.593  48.354  1.00  0.00     0.074 A 
HETATM   18 CL1  UNL     1      30.632   6.434  48.033  1.00  0.00    -0.081 Cl
HETATM   19  C21 UNL     1      28.082   7.371  47.858  1.00  0.00     0.058 A 
ENDBRANCH  10  12
BRANCH   6  20
HETATM   20  O2  UNL     1      24.992   4.093  49.913  1.00  0.00    -0.348 OA
BRANCH  20  21
HETATM   21  C8  UNL     1      26.284   3.588  50.043  1.00  0.00     0.177 C 
BRANCH  21  22
HETATM   22  C9  UNL     1      26.157   2.271  50.805  1.00  0.00     0.046 C 
BRANCH  22  23
HETATM   23  C10 UNL     1      26.937   2.341  52.085  1.00  0.00     0.119 C 
BRANCH  23  24
HETATM   24  N1  UNL     1      27.558   1.070  52.392  1.00  0.00    -0.408 N 
HETATM   25  C11 UNL     1      28.332   1.080  53.579  1.00  0.00     0.143 C 
HETATM   26  C12 UNL     1      27.727   0.195  54.647  1.00  0.00     0.187 C 
HETATM   27  O3  UNL     1      27.712  -1.084  54.107  1.00  0.00    -0.388 OA
HETATM   28  C13 UNL     1      26.784  -1.174  53.086  1.00  0.00     0.187 C 
HETATM   29  C14 UNL     1      26.743  -0.047  52.127  1.00  0.00     0.143 C 
ENDBRANCH  23  24
ENDBRANCH  22  23
ENDBRANCH  21  22
ENDBRANCH  20  21
ENDBRANCH   6  20
BRANCH   1  30
HETATM   30  O1  UNL     1      23.833   5.613  52.098  1.00  0.00    -0.353 OA
HETATM   31  C1  UNL     1      22.703   4.823  52.413  1.00  0.00     0.210 C 
ENDBRANCH   1  30
TORSDOF 7
ENDMDL
