MODEL 1
REMARK VINA RESULT:      -6.9      0.000      0.000
REMARK  6 active torsions:
REMARK  status: ('A' for Active; 'I' for Inactive)
REMARK    1  A    between atoms: C2_2  and  C3_3 
REMARK    2  A    between atoms: C3_3  and  N1_4 
REMARK    3  A    between atoms: C6_7  and  N2_9 
REMARK    4  A    between atoms: N2_9  and  C7_10 
REMARK    5  A    between atoms: C13_17  and  O2_18 
REMARK    6  A    between atoms: O2_18  and  C14_19 
ROOT
HETATM    1  C7  UNL     1      25.074  -0.033  53.331  1.00  0.00     0.014 A 
HETATM    2  C8  UNL     1      25.997  -0.331  54.233  1.00  0.00     0.039 A 
HETATM    3  C9  UNL     1      27.293   0.350  54.183  1.00  0.00    -0.003 A 
HETATM    4  C10 UNL     1      28.361   0.228  54.963  1.00  0.00     0.128 A 
HETATM    5  N3  UNL     1      29.347   1.125  54.467  1.00  0.00    -0.271 NA
HETATM    6  C11 UNL     1      28.917   1.761  53.447  1.00  0.00     0.131 A 
HETATM    7  C12 UNL     1      27.538   1.338  53.140  1.00  0.00     0.023 A 
HETATM    8  C13 UNL     1      26.587   1.598  52.265  1.00  0.00     0.064 A 
HETATM    9  C16 UNL     1      25.253   0.956  52.249  1.00  0.00     0.122 A 
ENDROOT
BRANCH   1  10
HETATM   10  N2  UNL     1      23.807  -0.666  53.336  1.00  0.00    -0.356 N 
HETATM   11  H11 UNL     1      23.843  -1.310  52.520  1.00  0.00     0.162 HD
BRANCH  10  12
HETATM   12  C6  UNL     1      22.607  -0.648  54.088  1.00  0.00     0.182 A 
HETATM   13  C2  UNL     1      21.466   0.203  53.824  1.00  0.00     0.009 A 
HETATM   14  C1  UNL     1      21.254  -0.566  54.874  1.00  0.00     0.243 A 
HETATM   15  O1  UNL     1      22.430  -1.397  55.079  1.00  0.00    -0.348 OA
BRANCH  13  16
HETATM   16  C3  UNL     1      20.830   1.253  52.995  1.00  0.00     0.308 C 
BRANCH  16  17
HETATM   17  N1  UNL     1      21.700   2.100  52.271  1.00  0.00     0.083 N 
HETATM   18  C4  UNL     1      21.335   3.467  52.132  1.00  0.00     0.309 C 
HETATM   19  C5  UNL     1      21.861   1.521  50.938  1.00  0.00     0.309 C 
ENDBRANCH  16  17
ENDBRANCH  13  16
ENDBRANCH  10  12
ENDBRANCH   1  10
BRANCH   8  20
HETATM   20  O2  UNL     1      27.018   2.559  51.364  1.00  0.00    -0.354 OA
BRANCH  20  21
HETATM   21  C14 UNL     1      26.112   3.213  50.509  1.00  0.00     0.171 C 
HETATM   22  C15 UNL     1      26.835   3.895  49.374  1.00  0.00     0.034 C 
ENDBRANCH  20  21
ENDBRANCH   8  20
TORSDOF 6
ENDMDL
MODEL 2
REMARK VINA RESULT:      -6.7      2.621      5.360
REMARK  6 active torsions:
REMARK  status: ('A' for Active; 'I' for Inactive)
REMARK    1  A    between atoms: C2_2  and  C3_3 
REMARK    2  A    between atoms: C3_3  and  N1_4 
REMARK    3  A    between atoms: C6_7  and  N2_9 
REMARK    4  A    between atoms: N2_9  and  C7_10 
REMARK    5  A    between atoms: C13_17  and  O2_18 
REMARK    6  A    between atoms: O2_18  and  C14_19 
ROOT
HETATM    1  C7  UNL     1      22.101   0.846  51.655  1.00  0.00     0.014 A 
HETATM    2  C8  UNL     1      21.287   0.069  52.355  1.00  0.00     0.039 A 
HETATM    3  C9  UNL     1      21.806  -0.636  53.529  1.00  0.00    -0.003 A 
HETATM    4  C10 UNL     1      21.197  -1.457  54.379  1.00  0.00     0.128 A 
HETATM    5  N3  UNL     1      22.168  -1.861  55.337  1.00  0.00    -0.271 NA
HETATM    6  C11 UNL     1      23.301  -1.327  55.096  1.00  0.00     0.131 A 
HETATM    7  C12 UNL     1      23.205  -0.469  53.900  1.00  0.00     0.023 A 
HETATM    8  C13 UNL     1      23.974   0.314  53.170  1.00  0.00     0.064 A 
HETATM    9  C16 UNL     1      23.527   1.062  51.972  1.00  0.00     0.122 A 
ENDROOT
BRANCH   1  10
HETATM   10  N2  UNL     1      21.648   1.546  50.511  1.00  0.00    -0.356 N 
HETATM   11  H11 UNL     1      20.783   2.026  50.834  1.00  0.00     0.162 HD
BRANCH  10  12
HETATM   12  C6  UNL     1      22.023   1.743  49.160  1.00  0.00     0.182 A 
HETATM   13  C2  UNL     1      22.821   2.844  48.662  1.00  0.00     0.009 A 
HETATM   14  C1  UNL     1      22.471   2.031  47.686  1.00  0.00     0.243 A 
HETATM   15  O1  UNL     1      21.682   0.947  48.251  1.00  0.00    -0.348 OA
BRANCH  13  16
HETATM   16  C3  UNL     1      23.574   4.091  48.936  1.00  0.00     0.308 C 
BRANCH  16  17
HETATM   17  N1  UNL     1      24.127   4.225  50.229  1.00  0.00     0.083 N 
HETATM   18  C4  UNL     1      23.288   4.719  51.265  1.00  0.00     0.309 C 
HETATM   19  C5  UNL     1      25.293   5.101  50.113  1.00  0.00     0.309 C 
ENDBRANCH  16  17
ENDBRANCH  13  16
ENDBRANCH  10  12
ENDBRANCH   1  10
BRANCH   8  20
HETATM   20  O2  UNL     1      25.260   0.336  53.688  1.00  0.00    -0.354 OA
BRANCH  20  21
HETATM   21  C14 UNL     1      26.383   0.198  52.852  1.00  0.00     0.171 C 
HETATM   22  C15 UNL     1      26.693  -1.256  52.597  1.00  0.00     0.034 C 
ENDBRANCH  20  21
ENDBRANCH   8  20
TORSDOF 6
ENDMDL
MODEL 3
REMARK VINA RESULT:      -6.6      2.321      5.141
REMARK  6 active torsions:
REMARK  status: ('A' for Active; 'I' for Inactive)
REMARK    1  A    between atoms: C2_2  and  C3_3 
REMARK    2  A    between atoms: C3_3  and  N1_4 
REMARK    3  A    between atoms: C6_7  and  N2_9 
REMARK    4  A    between atoms: N2_9  and  C7_10 
REMARK    5  A    between atoms: C13_17  and  O2_18 
REMARK    6  A    between atoms: O2_18  and  C14_19 
ROOT
HETATM    1  C7  UNL     1      23.871   1.033  51.993  1.00  0.00     0.014 A 
HETATM    2  C8  UNL     1      22.713   0.635  52.499  1.00  0.00     0.039 A 
HETATM    3  C9  UNL     1      22.708  -0.231  53.680  1.00  0.00    -0.003 A 
HETATM    4  C10 UNL     1      21.694  -0.754  54.362  1.00  0.00     0.128 A 
HETATM    5  N3  UNL     1      22.252  -1.521  55.421  1.00  0.00    -0.271 NA
HETATM    6  C11 UNL     1      23.527  -1.476  55.397  1.00  0.00     0.131 A 
HETATM    7  C12 UNL     1      23.977  -0.637  54.270  1.00  0.00     0.023 A 
HETATM    8  C13 UNL     1      25.102  -0.215  53.729  1.00  0.00     0.064 A 
HETATM    9  C16 UNL     1      25.192   0.663  52.539  1.00  0.00     0.122 A 
ENDROOT
BRANCH   1  10
HETATM   10  N2  UNL     1      23.928   1.869  50.852  1.00  0.00    -0.356 N 
HETATM   11  H11 UNL     1      23.479   1.304  50.102  1.00  0.00     0.162 HD
BRANCH  10  12
HETATM   12  C6  UNL     1      24.400   3.154  50.491  1.00  0.00     0.182 A 
HETATM   13  C2  UNL     1      24.077   4.389  51.175  1.00  0.00     0.009 A 
HETATM   14  C1  UNL     1      24.875   4.608  50.149  1.00  0.00     0.243 A 
HETATM   15  O1  UNL     1      25.166   3.333  49.513  1.00  0.00    -0.348 OA
BRANCH  13  16
HETATM   16  C3  UNL     1      23.362   5.083  52.272  1.00  0.00     0.308 C 
BRANCH  16  17
HETATM   17  N1  UNL     1      21.957   5.178  52.152  1.00  0.00     0.083 N 
HETATM   18  C4  UNL     1      21.221   3.975  51.970  1.00  0.00     0.309 C 
HETATM   19  C5  UNL     1      21.676   6.072  51.030  1.00  0.00     0.309 C 
ENDBRANCH  16  17
ENDBRANCH  13  16
ENDBRANCH  10  12
ENDBRANCH   1  10
BRANCH   8  20
HETATM   20  O2  UNL     1      26.187  -0.711  54.436  1.00  0.00    -0.354 OA
BRANCH  20  21
HETATM   21  C14 UNL     1      27.290   0.107  54.742  1.00  0.00     0.171 C 
HETATM   22  C15 UNL     1      28.511  -0.319  53.966  1.00  0.00     0.034 C 
ENDBRANCH  20  21
ENDBRANCH   8  20
TORSDOF 6
ENDMDL
MODEL 4
REMARK VINA RESULT:      -6.6      2.361      5.364
REMARK  6 active torsions:
REMARK  status: ('A' for Active; 'I' for Inactive)
REMARK    1  A    between atoms: C2_2  and  C3_3 
REMARK    2  A    between atoms: C3_3  and  N1_4 
REMARK    3  A    between atoms: C6_7  and  N2_9 
REMARK    4  A    between atoms: N2_9  and  C7_10 
REMARK    5  A    between atoms: C13_17  and  O2_18 
REMARK    6  A    between atoms: O2_18  and  C14_19 
ROOT
HETATM    1  C7  UNL     1      26.314   2.187  51.920  1.00  0.00     0.014 A 
HETATM    2  C8  UNL     1      25.027   1.874  51.961  1.00  0.00     0.039 A 
HETATM    3  C9  UNL     1      24.581   0.792  52.841  1.00  0.00    -0.003 A 
HETATM    4  C10 UNL     1      23.364   0.302  53.055  1.00  0.00     0.128 A 
HETATM    5  N3  UNL     1      23.497  -0.745  54.008  1.00  0.00    -0.271 NA
HETATM    6  C11 UNL     1      24.714  -0.893  54.362  1.00  0.00     0.131 A 
HETATM    7  C12 UNL     1      25.562   0.083  53.651  1.00  0.00     0.023 A 
HETATM    8  C13 UNL     1      26.831   0.431  53.575  1.00  0.00     0.064 A 
HETATM    9  C16 UNL     1      27.362   1.513  52.713  1.00  0.00     0.122 A 
ENDROOT
BRANCH   1  10
HETATM   10  N2  UNL     1      26.794   3.223  51.084  1.00  0.00    -0.356 N 
HETATM   11  H11 UNL     1      27.793   3.326  51.358  1.00  0.00     0.162 HD
BRANCH  10  12
HETATM   12  C6  UNL     1      26.316   4.086  50.069  1.00  0.00     0.182 A 
HETATM   13  C2  UNL     1      25.142   4.929  50.168  1.00  0.00     0.009 A 
HETATM   14  C1  UNL     1      25.721   5.057  48.991  1.00  0.00     0.243 A 
HETATM   15  O1  UNL     1      26.892   4.193  48.959  1.00  0.00    -0.348 OA
BRANCH  13  16
HETATM   16  C3  UNL     1      23.993   5.414  50.968  1.00  0.00     0.308 C 
BRANCH  16  17
HETATM   17  N1  UNL     1      22.710   5.236  50.405  1.00  0.00     0.083 N 
HETATM   18  C4  UNL     1      21.587   5.693  51.147  1.00  0.00     0.309 C 
HETATM   19  C5  UNL     1      22.546   3.807  50.141  1.00  0.00     0.309 C 
ENDBRANCH  16  17
ENDBRANCH  13  16
ENDBRANCH  10  12
ENDBRANCH   1  10
BRANCH   8  20
HETATM   20  O2  UNL     1      27.594  -0.361  54.418  1.00  0.00    -0.354 OA
BRANCH  20  21
HETATM   21  C14 UNL     1      28.971  -0.124  54.589  1.00  0.00     0.171 C 
HETATM   22  C15 UNL     1      29.790  -1.033  53.707  1.00  0.00     0.034 C 
ENDBRANCH  20  21
ENDBRANCH   8  20
TORSDOF 6
ENDMDL
MODEL 5
REMARK VINA RESULT:      -6.5      2.536      5.172
REMARK  6 active torsions:
REMARK  status: ('A' for Active; 'I' for Inactive)
REMARK    1  A    between atoms: C2_2  and  C3_3 
REMARK    2  A    between atoms: C3_3  and  N1_4 
REMARK    3  A    between atoms: C6_7  and  N2_9 
REMARK    4  A    between atoms: N2_9  and  C7_10 
REMARK    5  A    between atoms: C13_17  and  O2_18 
REMARK    6  A    between atoms: O2_18  and  C14_19 
ROOT
HETATM    1  C7  UNL     1      24.650   2.625  53.112  1.00  0.00     0.014 A 
HETATM    2  C8  UNL     1      25.946   2.358  53.169  1.00  0.00     0.039 A 
HETATM    3  C9  UNL     1      26.388   0.962  53.205  1.00  0.00    -0.003 A 
HETATM    4  C10 UNL     1      27.613   0.447  53.261  1.00  0.00     0.128 A 
HETATM    5  N3  UNL     1      27.471  -0.967  53.275  1.00  0.00    -0.271 NA
HETATM    6  C11 UNL     1      26.242  -1.306  53.231  1.00  0.00     0.131 A 
HETATM    7  C12 UNL     1      25.393  -0.101  53.179  1.00  0.00     0.023 A 
HETATM    8  C13 UNL     1      24.115   0.216  53.123  1.00  0.00     0.064 A 
HETATM    9  C16 UNL     1      23.587   1.599  53.082  1.00  0.00     0.122 A 
ENDROOT
BRANCH   1  10
HETATM   10  N2  UNL     1      24.172   3.957  53.077  1.00  0.00    -0.356 N 
HETATM   11  H11 UNL     1      24.445   4.347  54.003  1.00  0.00     0.162 HD
BRANCH  10  12
HETATM   12  C6  UNL     1      23.475   4.820  52.198  1.00  0.00     0.182 A 
HETATM   13  C2  UNL     1      24.031   5.436  51.011  1.00  0.00     0.009 A 
HETATM   14  C1  UNL     1      22.772   5.787  51.184  1.00  0.00     0.243 A 
HETATM   15  O1  UNL     1      22.273   5.132  52.383  1.00  0.00    -0.348 OA
BRANCH  13  16
HETATM   16  C3  UNL     1      25.188   5.632  50.107  1.00  0.00     0.308 C 
BRANCH  16  17
HETATM   17  N1  UNL     1      26.031   4.515  49.906  1.00  0.00     0.083 N 
HETATM   18  C4  UNL     1      27.093   4.642  48.969  1.00  0.00     0.309 C 
HETATM   19  C5  UNL     1      25.181   3.397  49.500  1.00  0.00     0.309 C 
ENDBRANCH  16  17
ENDBRANCH  13  16
ENDBRANCH  10  12
ENDBRANCH   1  10
BRANCH   8  20
HETATM   20  O2  UNL     1      23.339  -0.932  53.107  1.00  0.00    -0.354 OA
BRANCH  20  21
HETATM   21  C14 UNL     1      21.938  -0.865  53.219  1.00  0.00     0.171 C 
HETATM   22  C15 UNL     1      21.478  -1.368  54.565  1.00  0.00     0.034 C 
ENDBRANCH  20  21
ENDBRANCH   8  20
TORSDOF 6
ENDMDL
MODEL 6
REMARK VINA RESULT:      -6.5      2.453      5.840
REMARK  6 active torsions:
REMARK  status: ('A' for Active; 'I' for Inactive)
REMARK    1  A    between atoms: C2_2  and  C3_3 
REMARK    2  A    between atoms: C3_3  and  N1_4 
REMARK    3  A    between atoms: C6_7  and  N2_9 
REMARK    4  A    between atoms: N2_9  and  C7_10 
REMARK    5  A    between atoms: C13_17  and  O2_18 
REMARK    6  A    between atoms: O2_18  and  C14_19 
ROOT
HETATM    1  C7  UNL     1      23.181   1.834  52.247  1.00  0.00     0.014 A 
HETATM    2  C8  UNL     1      22.023   1.386  52.710  1.00  0.00     0.039 A 
HETATM    3  C9  UNL     1      22.014   0.258  53.643  1.00  0.00    -0.003 A 
HETATM    4  C10 UNL     1      20.998  -0.360  54.238  1.00  0.00     0.128 A 
HETATM    5  N3  UNL     1      21.551  -1.393  55.044  1.00  0.00    -0.271 NA
HETATM    6  C11 UNL     1      22.824  -1.413  54.955  1.00  0.00     0.131 A 
HETATM    7  C12 UNL     1      23.277  -0.349  54.041  1.00  0.00     0.023 A 
HETATM    8  C13 UNL     1      24.403   0.132  53.551  1.00  0.00     0.064 A 
HETATM    9  C16 UNL     1      24.498   1.269  52.607  1.00  0.00     0.122 A 
ENDROOT
BRANCH   1  10
HETATM   10  N2  UNL     1      23.243   2.920  51.342  1.00  0.00    -0.356 N 
HETATM   11  H11 UNL     1      23.091   2.481  50.410  1.00  0.00     0.162 HD
BRANCH  10  12
HETATM   12  C6  UNL     1      23.447   4.321  51.365  1.00  0.00     0.182 A 
HETATM   13  C2  UNL     1      24.304   5.058  50.461  1.00  0.00     0.009 A 
HETATM   14  C1  UNL     1      23.730   5.862  51.334  1.00  0.00     0.243 A 
HETATM   15  O1  UNL     1      22.881   5.063  52.204  1.00  0.00    -0.348 OA
BRANCH  13  16
HETATM   16  C3  UNL     1      25.238   5.054  49.311  1.00  0.00     0.308 C 
BRANCH  16  17
HETATM   17  N1  UNL     1      26.550   4.593  49.563  1.00  0.00     0.083 N 
HETATM   18  C4  UNL     1      27.565   4.927  48.625  1.00  0.00     0.309 C 
HETATM   19  C5  UNL     1      26.484   3.137  49.683  1.00  0.00     0.309 C 
ENDBRANCH  16  17
ENDBRANCH  13  16
ENDBRANCH  10  12
ENDBRANCH   1  10
BRANCH   8  20
HETATM   20  O2  UNL     1      25.482  -0.580  54.051  1.00  0.00    -0.354 OA
BRANCH  20  21
HETATM   21  C14 UNL     1      26.407   0.021  54.925  1.00  0.00     0.171 C 
HETATM   22  C15 UNL     1      27.784   0.061  54.310  1.00  0.00     0.034 C 
ENDBRANCH  20  21
ENDBRANCH   8  20
TORSDOF 6
ENDMDL
MODEL 7
REMARK VINA RESULT:      -6.5      2.587      5.685
REMARK  6 active torsions:
REMARK  status: ('A' for Active; 'I' for Inactive)
REMARK    1  A    between atoms: C2_2  and  C3_3 
REMARK    2  A    between atoms: C3_3  and  N1_4 
REMARK    3  A    between atoms: C6_7  and  N2_9 
REMARK    4  A    between atoms: N2_9  and  C7_10 
REMARK    5  A    between atoms: C13_17  and  O2_18 
REMARK    6  A    between atoms: O2_18  and  C14_19 
ROOT
HETATM    1  C7  UNL     1      25.991   2.368  51.203  1.00  0.00     0.014 A 
HETATM    2  C8  UNL     1      27.130   2.305  51.878  1.00  0.00     0.039 A 
HETATM    3  C9  UNL     1      27.189   1.517  53.110  1.00  0.00    -0.003 A 
HETATM    4  C10 UNL     1      28.198   1.301  53.948  1.00  0.00     0.128 A 
HETATM    5  N3  UNL     1      27.708   0.461  54.986  1.00  0.00    -0.271 NA
HETATM    6  C11 UNL     1      26.478   0.175  54.803  1.00  0.00     0.131 A 
HETATM    7  C12 UNL     1      25.993   0.821  53.569  1.00  0.00     0.023 A 
HETATM    8  C13 UNL     1      24.884   0.916  52.863  1.00  0.00     0.064 A 
HETATM    9  C16 UNL     1      24.743   1.689  51.607  1.00  0.00     0.122 A 
ENDROOT
BRANCH   1  10
HETATM   10  N2  UNL     1      25.883   3.119  50.008  1.00  0.00    -0.356 N 
HETATM   11  H11 UNL     1      25.072   2.692  49.514  1.00  0.00     0.162 HD
BRANCH  10  12
HETATM   12  C6  UNL     1      26.535   4.195  49.359  1.00  0.00     0.182 A 
HETATM   13  C2  UNL     1      25.989   5.525  49.188  1.00  0.00     0.009 A 
HETATM   14  C1  UNL     1      27.189   5.431  48.650  1.00  0.00     0.243 A 
HETATM   15  O1  UNL     1      27.682   4.079  48.863  1.00  0.00    -0.348 OA
BRANCH  13  16
HETATM   16  C3  UNL     1      24.875   6.477  49.406  1.00  0.00     0.308 C 
BRANCH  16  17
HETATM   17  N1  UNL     1      24.501   6.718  50.748  1.00  0.00     0.083 N 
HETATM   18  C4  UNL     1      23.751   5.716  51.421  1.00  0.00     0.309 C 
HETATM   19  C5  UNL     1      23.740   7.966  50.769  1.00  0.00     0.309 C 
ENDBRANCH  16  17
ENDBRANCH  13  16
ENDBRANCH  10  12
ENDBRANCH   1  10
BRANCH   8  20
HETATM   20  O2  UNL     1      23.872   0.186  53.465  1.00  0.00    -0.354 OA
BRANCH  20  21
HETATM   21  C14 UNL     1      22.526   0.587  53.364  1.00  0.00     0.171 C 
HETATM   22  C15 UNL     1      21.663  -0.161  54.349  1.00  0.00     0.034 C 
ENDBRANCH  20  21
ENDBRANCH   8  20
TORSDOF 6
ENDMDL
MODEL 8
REMARK VINA RESULT:      -6.4      2.056      3.348
REMARK  6 active torsions:
REMARK  status: ('A' for Active; 'I' for Inactive)
REMARK    1  A    between atoms: C2_2  and  C3_3 
REMARK    2  A    between atoms: C3_3  and  N1_4 
REMARK    3  A    between atoms: C6_7  and  N2_9 
REMARK    4  A    between atoms: N2_9  and  C7_10 
REMARK    5  A    between atoms: C13_17  and  O2_18 
REMARK    6  A    between atoms: O2_18  and  C14_19 
ROOT
HETATM    1  C7  UNL     1      23.929   0.003  53.560  1.00  0.00     0.014 A 
HETATM    2  C8  UNL     1      23.616   1.103  52.892  1.00  0.00     0.039 A 
HETATM    3  C9  UNL     1      24.640   1.762  52.078  1.00  0.00    -0.003 A 
HETATM    4  C10 UNL     1      24.572   2.858  51.328  1.00  0.00     0.128 A 
HETATM    5  N3  UNL     1      25.858   3.053  50.755  1.00  0.00    -0.271 NA
HETATM    6  C11 UNL     1      26.669   2.139  51.124  1.00  0.00     0.131 A 
HETATM    7  C12 UNL     1      25.981   1.194  52.023  1.00  0.00     0.023 A 
HETATM    8  C13 UNL     1      26.243   0.099  52.707  1.00  0.00     0.064 A 
HETATM    9  C16 UNL     1      25.265  -0.628  53.550  1.00  0.00     0.122 A 
ENDROOT
BRANCH   1  10
HETATM   10  N2  UNL     1      22.976  -0.669  54.361  1.00  0.00    -0.356 N 
HETATM   11  H11 UNL     1      23.468  -0.821  55.266  1.00  0.00     0.162 HD
BRANCH  10  12
HETATM   12  C6  UNL     1      21.649  -1.155  54.263  1.00  0.00     0.182 A 
HETATM   13  C2  UNL     1      20.583  -0.535  53.505  1.00  0.00     0.009 A 
HETATM   14  C1  UNL     1      20.162  -1.626  54.113  1.00  0.00     0.243 A 
HETATM   15  O1  UNL     1      21.277  -2.201  54.848  1.00  0.00    -0.348 OA
BRANCH  13  16
HETATM   16  C3  UNL     1      20.128   0.561  52.617  1.00  0.00     0.308 C 
BRANCH  16  17
HETATM   17  N1  UNL     1      20.036   0.263  51.239  1.00  0.00     0.083 N 
HETATM   18  C4  UNL     1      20.738   1.099  50.328  1.00  0.00     0.309 C 
HETATM   19  C5  UNL     1      18.617   0.273  50.886  1.00  0.00     0.309 C 
ENDBRANCH  16  17
ENDBRANCH  13  16
ENDBRANCH  10  12
ENDBRANCH   1  10
BRANCH   8  20
HETATM   20  O2  UNL     1      27.565  -0.275  52.521  1.00  0.00    -0.354 OA
BRANCH  20  21
HETATM   21  C14 UNL     1      28.477  -0.277  53.593  1.00  0.00     0.171 C 
HETATM   22  C15 UNL     1      29.598  -1.256  53.346  1.00  0.00     0.034 C 
ENDBRANCH  20  21
ENDBRANCH   8  20
TORSDOF 6
ENDMDL
MODEL 9
REMARK VINA RESULT:      -6.0      2.809      5.299
REMARK  6 active torsions:
REMARK  status: ('A' for Active; 'I' for Inactive)
REMARK    1  A    between atoms: C2_2  and  C3_3 
REMARK    2  A    between atoms: C3_3  and  N1_4 
REMARK    3  A    between atoms: C6_7  and  N2_9 
REMARK    4  A    between atoms: N2_9  and  C7_10 
REMARK    5  A    between atoms: C13_17  and  O2_18 
REMARK    6  A    between atoms: O2_18  and  C14_19 
ROOT
HETATM    1  C7  UNL     1      22.967   1.709  52.346  1.00  0.00     0.014 A 
HETATM    2  C8  UNL     1      21.821   1.214  52.790  1.00  0.00     0.039 A 
HETATM    3  C9  UNL     1      21.841   0.044  53.671  1.00  0.00    -0.003 A 
HETATM    4  C10 UNL     1      20.842  -0.624  54.239  1.00  0.00     0.128 A 
HETATM    5  N3  UNL     1      21.421  -1.679  54.995  1.00  0.00    -0.271 NA
HETATM    6  C11 UNL     1      22.694  -1.665  54.904  1.00  0.00     0.131 A 
HETATM    7  C12 UNL     1      23.119  -0.550  54.038  1.00  0.00     0.023 A 
HETATM    8  C13 UNL     1      24.232  -0.021  53.569  1.00  0.00     0.064 A 
HETATM    9  C16 UNL     1      24.297   1.160  52.677  1.00  0.00     0.122 A 
ENDROOT
BRANCH   1  10
HETATM   10  N2  UNL     1      23.000   2.837  51.491  1.00  0.00    -0.356 N 
HETATM   11  H11 UNL     1      23.945   2.797  51.057  1.00  0.00     0.162 HD
BRANCH  10  12
HETATM   12  C6  UNL     1      22.165   3.915  51.111  1.00  0.00     0.182 A 
HETATM   13  C2  UNL     1      21.410   3.997  49.878  1.00  0.00     0.009 A 
HETATM   14  C1  UNL     1      21.229   5.072  50.619  1.00  0.00     0.243 A 
HETATM   15  O1  UNL     1      22.005   4.925  51.840  1.00  0.00    -0.348 OA
BRANCH  13  16
HETATM   16  C3  UNL     1      21.016   3.383  48.589  1.00  0.00     0.308 C 
BRANCH  16  17
HETATM   17  N1  UNL     1      20.441   2.094  48.650  1.00  0.00     0.083 N 
HETATM   18  C4  UNL     1      19.548   1.813  49.721  1.00  0.00     0.309 C 
HETATM   19  C5  UNL     1      21.539   1.129  48.691  1.00  0.00     0.309 C 
ENDBRANCH  16  17
ENDBRANCH  13  16
ENDBRANCH  10  12
ENDBRANCH   1  10
BRANCH   8  20
HETATM   20  O2  UNL     1      25.329  -0.729  54.033  1.00  0.00    -0.354 OA
BRANCH  20  21
HETATM   21  C14 UNL     1      26.632  -0.211  53.914  1.00  0.00     0.171 C 
HETATM   22  C15 UNL     1      27.418  -0.959  52.867  1.00  0.00     0.034 C 
ENDBRANCH  20  21
ENDBRANCH   8  20
TORSDOF 6
ENDMDL
