MODEL 1
REMARK VINA RESULT:      -9.2      0.000      0.000
REMARK  0 active torsions:
REMARK  status: ('A' for Active; 'I' for Inactive)
ROOT
HETATM    1  O1  UNL     1      24.043  -0.274  53.141  1.00  0.00     0.000 OA
HETATM    2  C1  UNL     1      24.628   0.644  52.519  1.00  0.00    -0.025 A 
HETATM    3  C2  UNL     1      25.854   1.274  52.245  1.00  0.00     0.067 C 
HETATM    4  C3  UNL     1      27.138   1.422  52.336  1.00  0.00     0.108 C 
HETATM    5  C4  UNL     1      28.439   0.887  52.935  1.00  0.00     0.146 C 
HETATM    6  C5  UNL     1      28.256  -0.323  53.768  1.00  0.00     0.325 C 
HETATM    7  F1  UNL     1      29.552  -0.691  54.183  1.00  0.00    -0.183 F 
HETATM    8  F2  UNL     1      27.817  -1.422  53.028  1.00  0.00    -0.183 F 
HETATM    9  N1  UNL     1      27.497  -0.205  54.982  1.00  0.00    -0.323 N 
HETATM   10  C6  UNL     1      26.199   0.134  55.517  1.00  0.00     0.202 C 
HETATM   11  N2  UNL     1      25.559  -0.789  54.950  1.00  0.00    -0.255 NA
HETATM   12  C7  UNL     1      24.166  -1.097  55.005  1.00  0.00     0.420 C 
HETATM   13  N3  UNL     1      23.522  -0.993  53.662  1.00  0.00     0.120 N 
HETATM   14  C8  UNL     1      23.352   0.093  52.722  1.00  0.00     0.228 A 
HETATM   15  C9  UNL     1      22.300   0.623  52.047  1.00  0.00     0.048 C 
HETATM   16  C10 UNL     1      22.878   1.725  51.257  1.00  0.00     0.024 C 
HETATM   17  C11 UNL     1      22.310   2.554  50.353  1.00  0.00    -0.021 C 
HETATM   18  C12 UNL     1      23.204   3.551  49.781  1.00  0.00    -0.008 C 
HETATM   19  C13 UNL     1      24.435   4.111  49.781  1.00  0.00    -0.025 C 
HETATM   20  C14 UNL     1      25.361   3.573  50.770  1.00  0.00     0.053 C 
HETATM   21  C15 UNL     1      26.560   2.821  50.326  1.00  0.00     0.172 C 
HETATM   22  O2  UNL     1      27.265   2.537  51.541  1.00  0.00    -0.376 OA
HETATM   23  H4  UNL     1      27.921  -0.418  55.931  1.00  0.00     0.166 HD
HETATM   24  H8  UNL     1      23.017  -1.757  53.103  1.00  0.00     0.319 HD
ENDROOT
TORSDOF 0
ENDMDL
MODEL 2
REMARK VINA RESULT:      -9.1      2.362      4.222
REMARK  0 active torsions:
REMARK  status: ('A' for Active; 'I' for Inactive)
ROOT
HETATM    1  O1  UNL     1      24.869  -0.435  54.168  1.00  0.00     0.000 OA
HETATM    2  C1  UNL     1      23.932   0.035  53.479  1.00  0.00    -0.025 A 
HETATM    3  C2  UNL     1      23.568   0.910  52.441  1.00  0.00     0.067 C 
HETATM    4  C3  UNL     1      23.804   1.765  51.498  1.00  0.00     0.108 C 
HETATM    5  C4  UNL     1      24.869   2.551  50.732  1.00  0.00     0.146 C 
HETATM    6  C5  UNL     1      26.251   2.268  51.179  1.00  0.00     0.325 C 
HETATM    7  F1  UNL     1      27.082   3.034  50.337  1.00  0.00    -0.183 F 
HETATM    8  F2  UNL     1      26.638   0.952  50.924  1.00  0.00    -0.183 F 
HETATM    9  N1  UNL     1      26.626   2.647  52.513  1.00  0.00    -0.323 N 
HETATM   10  C6  UNL     1      26.330   2.439  53.912  1.00  0.00     0.202 C 
HETATM   11  N2  UNL     1      26.619   1.215  53.945  1.00  0.00    -0.255 NA
HETATM   12  C7  UNL     1      26.564   0.297  55.036  1.00  0.00     0.420 C 
HETATM   13  N3  UNL     1      25.606  -0.817  54.776  1.00  0.00     0.120 N 
HETATM   14  C8  UNL     1      24.181  -0.866  54.527  1.00  0.00     0.228 A 
HETATM   15  C9  UNL     1      23.139  -1.562  55.049  1.00  0.00     0.048 C 
HETATM   16  C10 UNL     1      21.961  -1.094  54.297  1.00  0.00     0.024 C 
HETATM   17  C11 UNL     1      20.669  -1.488  54.345  1.00  0.00    -0.021 C 
HETATM   18  C12 UNL     1      19.769  -0.772  53.454  1.00  0.00    -0.008 C 
HETATM   19  C13 UNL     1      19.610   0.233  52.562  1.00  0.00    -0.025 C 
HETATM   20  C14 UNL     1      20.798   1.044  52.324  1.00  0.00     0.053 C 
HETATM   21  C15 UNL     1      21.455   1.017  50.994  1.00  0.00     0.172 C 
HETATM   22  O2  UNL     1      22.505   1.986  51.102  1.00  0.00    -0.376 OA
HETATM   23  H4  UNL     1      27.410   3.338  52.700  1.00  0.00     0.166 HD
HETATM   24  H8  UNL     1      25.803  -1.871  54.731  1.00  0.00     0.319 HD
ENDROOT
TORSDOF 0
ENDMDL
MODEL 3
REMARK VINA RESULT:      -9.0      1.582      2.211
REMARK  0 active torsions:
REMARK  status: ('A' for Active; 'I' for Inactive)
ROOT
HETATM    1  O1  UNL     1      23.052  -0.801  54.362  1.00  0.00     0.000 OA
HETATM    2  C1  UNL     1      23.206   0.098  53.502  1.00  0.00    -0.025 A 
HETATM    3  C2  UNL     1      24.101   0.745  52.632  1.00  0.00     0.067 C 
HETATM    4  C3  UNL     1      25.252   0.930  52.067  1.00  0.00     0.108 C 
HETATM    5  C4  UNL     1      26.702   0.460  51.953  1.00  0.00     0.146 C 
HETATM    6  C5  UNL     1      27.015  -0.710  52.804  1.00  0.00     0.325 C 
HETATM    7  F1  UNL     1      28.362  -1.023  52.529  1.00  0.00    -0.183 F 
HETATM    8  F2  UNL     1      26.320  -1.856  52.417  1.00  0.00    -0.183 F 
HETATM    9  N1  UNL     1      26.956  -0.549  54.231  1.00  0.00    -0.323 N 
HETATM   10  C6  UNL     1      26.081  -0.218  55.331  1.00  0.00     0.202 C 
HETATM   11  N2  UNL     1      25.289  -1.185  55.188  1.00  0.00    -0.255 NA
HETATM   12  C7  UNL     1      24.124  -1.524  55.940  1.00  0.00     0.420 C 
HETATM   13  N3  UNL     1      22.894  -1.506  55.095  1.00  0.00     0.120 N 
HETATM   14  C8  UNL     1      22.227  -0.474  54.331  1.00  0.00     0.228 A 
HETATM   15  C9  UNL     1      20.955  -0.006  54.255  1.00  0.00     0.048 C 
HETATM   16  C10 UNL     1      21.010   1.068  53.248  1.00  0.00     0.024 C 
HETATM   17  C11 UNL     1      20.029   1.835  52.721  1.00  0.00    -0.021 C 
HETATM   18  C12 UNL     1      20.471   2.824  51.749  1.00  0.00    -0.008 C 
HETATM   19  C13 UNL     1      21.511   3.415  51.117  1.00  0.00    -0.025 C 
HETATM   20  C14 UNL     1      22.831   2.952  51.529  1.00  0.00     0.053 C 
HETATM   21  C15 UNL     1      23.684   2.209  50.570  1.00  0.00     0.172 C 
HETATM   22  O2  UNL     1      24.913   2.006  51.279  1.00  0.00    -0.376 OA
HETATM   23  H4  UNL     1      27.806  -0.703  54.847  1.00  0.00     0.166 HD
HETATM   24  H8  UNL     1      22.215  -2.310  54.887  1.00  0.00     0.319 HD
ENDROOT
TORSDOF 0
ENDMDL
MODEL 4
REMARK VINA RESULT:      -8.5      3.409      6.019
REMARK  0 active torsions:
REMARK  status: ('A' for Active; 'I' for Inactive)
ROOT
HETATM    1  O1  UNL     1      24.434   2.502  50.843  1.00  0.00     0.000 OA
HETATM    2  C1  UNL     1      24.639   1.749  51.824  1.00  0.00    -0.025 A 
HETATM    3  C2  UNL     1      24.084   0.820  52.721  1.00  0.00     0.067 C 
HETATM    4  C3  UNL     1      23.133   0.083  53.200  1.00  0.00     0.108 C 
HETATM    5  C4  UNL     1      21.672  -0.350  53.068  1.00  0.00     0.146 C 
HETATM    6  C5  UNL     1      20.968   0.276  51.927  1.00  0.00     0.325 C 
HETATM    7  F1  UNL     1      19.670  -0.275  51.940  1.00  0.00    -0.183 F 
HETATM    8  F2  UNL     1      21.488  -0.120  50.694  1.00  0.00    -0.183 F 
HETATM    9  N1  UNL     1      20.766   1.699  51.949  1.00  0.00    -0.323 N 
HETATM   10  C6  UNL     1      21.446   2.972  51.988  1.00  0.00     0.202 C 
HETATM   11  N2  UNL     1      22.045   2.855  50.887  1.00  0.00    -0.255 NA
HETATM   12  C7  UNL     1      22.941   3.756  50.239  1.00  0.00     0.420 C 
HETATM   13  N3  UNL     1      24.297   3.157  50.061  1.00  0.00     0.120 N 
HETATM   14  C8  UNL     1      25.295   2.663  50.984  1.00  0.00     0.228 A 
HETATM   15  C9  UNL     1      26.623   2.878  51.168  1.00  0.00     0.048 C 
HETATM   16  C10 UNL     1      26.987   2.021  52.310  1.00  0.00     0.024 C 
HETATM   17  C11 UNL     1      28.186   1.781  52.886  1.00  0.00    -0.021 C 
HETATM   18  C12 UNL     1      28.155   0.877  54.026  1.00  0.00    -0.008 C 
HETATM   19  C13 UNL     1      27.403   0.146  54.881  1.00  0.00    -0.025 C 
HETATM   20  C14 UNL     1      25.962   0.251  54.684  1.00  0.00     0.053 C 
HETATM   21  C15 UNL     1      25.193  -0.933  54.229  1.00  0.00     0.172 C 
HETATM   22  O2  UNL     1      23.830  -0.489  54.239  1.00  0.00    -0.376 OA
HETATM   23  H4  UNL     1      19.795   2.127  51.933  1.00  0.00     0.166 HD
HETATM   24  H8  UNL     1      24.832   2.977  49.149  1.00  0.00     0.319 HD
ENDROOT
TORSDOF 0
ENDMDL
MODEL 5
REMARK VINA RESULT:      -8.3      2.300      4.351
REMARK  0 active torsions:
REMARK  status: ('A' for Active; 'I' for Inactive)
ROOT
HETATM    1  O1  UNL     1      24.149   1.974  51.676  1.00  0.00     0.000 OA
HETATM    2  C1  UNL     1      23.547   1.139  52.391  1.00  0.00    -0.025 A 
HETATM    3  C2  UNL     1      23.650   0.198  53.431  1.00  0.00     0.067 C 
HETATM    4  C3  UNL     1      24.277  -0.458  54.354  1.00  0.00     0.108 C 
HETATM    5  C4  UNL     1      25.609  -0.682  55.071  1.00  0.00     0.146 C 
HETATM    6  C5  UNL     1      26.702   0.185  54.579  1.00  0.00     0.325 C 
HETATM    7  F1  UNL     1      27.818  -0.127  55.382  1.00  0.00    -0.183 F 
HETATM    8  F2  UNL     1      26.472   1.537  54.837  1.00  0.00    -0.183 F 
HETATM    9  N1  UNL     1      27.157   0.006  53.228  1.00  0.00    -0.323 N 
HETATM   10  C6  UNL     1      26.746   0.054  51.843  1.00  0.00     0.202 C 
HETATM   11  N2  UNL     1      26.458   1.278  51.815  1.00  0.00    -0.255 NA
HETATM   12  C7  UNL     1      25.959   2.071  50.738  1.00  0.00     0.420 C 
HETATM   13  N3  UNL     1      24.615   2.642  51.047  1.00  0.00     0.120 N 
HETATM   14  C8  UNL     1      23.329   2.052  51.347  1.00  0.00     0.228 A 
HETATM   15  C9  UNL     1      22.067   2.207  50.871  1.00  0.00     0.048 C 
HETATM   16  C10 UNL     1      21.250   1.267  51.658  1.00  0.00     0.024 C 
HETATM   17  C11 UNL     1      19.917   1.044  51.662  1.00  0.00    -0.021 C 
HETATM   18  C12 UNL     1      19.465   0.005  52.575  1.00  0.00    -0.008 C 
HETATM   19  C13 UNL     1      19.804  -0.961  53.460  1.00  0.00    -0.025 C 
HETATM   20  C14 UNL     1      21.237  -1.156  53.645  1.00  0.00     0.053 C 
HETATM   21  C15 UNL     1      21.862  -0.833  54.951  1.00  0.00     0.172 C 
HETATM   22  O2  UNL     1      23.229  -1.233  54.793  1.00  0.00    -0.376 OA
HETATM   23  H4  UNL     1      28.159  -0.264  53.004  1.00  0.00     0.166 HD
HETATM   24  H8  UNL     1      24.324   3.673  51.097  1.00  0.00     0.319 HD
ENDROOT
TORSDOF 0
ENDMDL
MODEL 6
REMARK VINA RESULT:      -8.3      3.851      5.718
REMARK  0 active torsions:
REMARK  status: ('A' for Active; 'I' for Inactive)
ROOT
HETATM    1  O1  UNL     1      22.387   2.739  51.641  1.00  0.00     0.000 OA
HETATM    2  C1  UNL     1      23.591   2.390  51.651  1.00  0.00    -0.025 A 
HETATM    3  C2  UNL     1      24.890   2.656  51.187  1.00  0.00     0.067 C 
HETATM    4  C3  UNL     1      25.781   3.330  50.531  1.00  0.00     0.108 C 
HETATM    5  C4  UNL     1      26.057   4.544  49.643  1.00  0.00     0.146 C 
HETATM    6  C5  UNL     1      24.857   5.368  49.375  1.00  0.00     0.325 C 
HETATM    7  F1  UNL     1      25.312   6.450  48.595  1.00  0.00    -0.183 F 
HETATM    8  F2  UNL     1      24.354   5.974  50.527  1.00  0.00    -0.183 F 
HETATM    9  N1  UNL     1      23.788   4.785  48.612  1.00  0.00    -0.323 N 
HETATM   10  C6  UNL     1      22.826   3.708  48.587  1.00  0.00     0.202 C 
HETATM   11  N2  UNL     1      22.194   4.049  49.620  1.00  0.00    -0.255 NA
HETATM   12  C7  UNL     1      21.069   3.430  50.244  1.00  0.00     0.420 C 
HETATM   13  N3  UNL     1      21.385   2.974  51.630  1.00  0.00     0.120 N 
HETATM   14  C8  UNL     1      22.338   2.032  52.174  1.00  0.00     0.228 A 
HETATM   15  C9  UNL     1      22.265   0.977  53.026  1.00  0.00     0.048 C 
HETATM   16  C10 UNL     1      23.649   0.480  53.127  1.00  0.00     0.024 C 
HETATM   17  C11 UNL     1      24.180  -0.506  53.884  1.00  0.00    -0.021 C 
HETATM   18  C12 UNL     1      25.606  -0.728  53.699  1.00  0.00    -0.008 C 
HETATM   19  C13 UNL     1      26.731  -0.409  53.018  1.00  0.00    -0.025 C 
HETATM   20  C14 UNL     1      26.552   0.569  51.952  1.00  0.00     0.053 C 
HETATM   21  C15 UNL     1      27.179   1.908  52.066  1.00  0.00     0.172 C 
HETATM   22  O2  UNL     1      26.874   2.545  50.820  1.00  0.00    -0.376 OA
HETATM   23  H4  UNL     1      23.469   5.199  47.688  1.00  0.00     0.166 HD
HETATM   24  H8  UNL     1      20.925   3.273  52.552  1.00  0.00     0.319 HD
ENDROOT
TORSDOF 0
ENDMDL
MODEL 7
REMARK VINA RESULT:      -8.1      3.698      6.120
REMARK  0 active torsions:
REMARK  status: ('A' for Active; 'I' for Inactive)
ROOT
HETATM    1  O1  UNL     1      25.173   1.295  51.652  1.00  0.00     0.000 OA
HETATM    2  C1  UNL     1      23.937   1.288  51.859  1.00  0.00    -0.025 A 
HETATM    3  C2  UNL     1      22.680   1.768  51.453  1.00  0.00     0.067 C 
HETATM    4  C3  UNL     1      21.878   2.442  50.692  1.00  0.00     0.108 C 
HETATM    5  C4  UNL     1      21.750   3.353  49.470  1.00  0.00     0.146 C 
HETATM    6  C5  UNL     1      23.039   3.625  48.795  1.00  0.00     0.325 C 
HETATM    7  F1  UNL     1      22.717   4.427  47.682  1.00  0.00    -0.183 F 
HETATM    8  F2  UNL     1      23.601   2.479  48.231  1.00  0.00    -0.183 F 
HETATM    9  N1  UNL     1      24.038   4.369  49.511  1.00  0.00    -0.323 N 
HETATM   10  C6  UNL     1      24.869   4.368  50.693  1.00  0.00     0.202 C 
HETATM   11  N2  UNL     1      25.530   3.335  50.409  1.00  0.00    -0.255 NA
HETATM   12  C7  UNL     1      26.571   2.692  51.143  1.00  0.00     0.420 C 
HETATM   13  N3  UNL     1      26.196   1.301  51.534  1.00  0.00     0.120 N 
HETATM   14  C8  UNL     1      25.137   0.749  52.351  1.00  0.00     0.228 A 
HETATM   15  C9  UNL     1      25.081  -0.121  53.392  1.00  0.00     0.048 C 
HETATM   16  C10 UNL     1      23.649  -0.219  53.723  1.00  0.00     0.024 C 
HETATM   17  C11 UNL     1      23.002  -0.988  54.627  1.00  0.00    -0.021 C 
HETATM   18  C12 UNL     1      21.561  -0.795  54.686  1.00  0.00    -0.008 C 
HETATM   19  C13 UNL     1      20.485  -0.100  54.251  1.00  0.00    -0.025 C 
HETATM   20  C14 UNL     1      20.783   0.982  53.320  1.00  0.00     0.053 C 
HETATM   21  C15 UNL     1      20.314   0.895  51.915  1.00  0.00     0.172 C 
HETATM   22  O2  UNL     1      20.699   2.150  51.340  1.00  0.00    -0.376 OA
HETATM   23  H4  UNL     1      24.408   5.297  49.154  1.00  0.00     0.166 HD
HETATM   24  H8  UNL     1      26.682   0.381  51.275  1.00  0.00     0.319 HD
ENDROOT
TORSDOF 0
ENDMDL
MODEL 8
REMARK VINA RESULT:      -7.9      4.440      7.415
REMARK  0 active torsions:
REMARK  status: ('A' for Active; 'I' for Inactive)
ROOT
HETATM    1  O1  UNL     1      22.518   1.839  51.078  1.00  0.00     0.000 OA
HETATM    2  C1  UNL     1      22.175   1.052  51.992  1.00  0.00    -0.025 A 
HETATM    3  C2  UNL     1      21.113   0.367  52.607  1.00  0.00     0.067 C 
HETATM    4  C3  UNL     1      19.877   0.005  52.739  1.00  0.00     0.108 C 
HETATM    5  C4  UNL     1      18.456   0.110  52.184  1.00  0.00     0.146 C 
HETATM    6  C5  UNL     1      18.353   0.953  50.972  1.00  0.00     0.325 C 
HETATM    7  F1  UNL     1      16.999   0.890  50.585  1.00  0.00    -0.183 F 
HETATM    8  F2  UNL     1      19.038   0.412  49.883  1.00  0.00    -0.183 F 
HETATM    9  N1  UNL     1      18.638   2.356  51.093  1.00  0.00    -0.323 N 
HETATM   10  C6  UNL     1      19.663   3.312  51.444  1.00  0.00     0.202 C 
HETATM   11  N2  UNL     1      20.474   3.003  50.533  1.00  0.00    -0.255 NA
HETATM   12  C7  UNL     1      21.763   3.541  50.243  1.00  0.00     0.420 C 
HETATM   13  N3  UNL     1      22.834   2.508  50.362  1.00  0.00     0.120 N 
HETATM   14  C8  UNL     1      23.307   1.687  51.456  1.00  0.00     0.228 A 
HETATM   15  C9  UNL     1      24.521   1.423  52.003  1.00  0.00     0.048 C 
HETATM   16  C10 UNL     1      24.241   0.483  53.102  1.00  0.00     0.024 C 
HETATM   17  C11 UNL     1      25.077  -0.166  53.944  1.00  0.00    -0.021 C 
HETATM   18  C12 UNL     1      24.426  -1.013  54.932  1.00  0.00    -0.008 C 
HETATM   19  C13 UNL     1      23.264  -1.443  55.477  1.00  0.00    -0.025 C 
HETATM   20  C14 UNL     1      22.059  -0.840  54.921  1.00  0.00     0.053 C 
HETATM   21  C15 UNL     1      21.101  -1.676  54.157  1.00  0.00     0.172 C 
HETATM   22  O2  UNL     1      20.020  -0.784  53.857  1.00  0.00    -0.376 OA
HETATM   23  H4  UNL     1      17.912   3.097  50.868  1.00  0.00     0.166 HD
HETATM   24  H8  UNL     1      23.513   2.160  49.608  1.00  0.00     0.319 HD
ENDROOT
TORSDOF 0
ENDMDL
MODEL 9
REMARK VINA RESULT:      -7.9      1.801      3.875
REMARK  0 active torsions:
REMARK  status: ('A' for Active; 'I' for Inactive)
ROOT
HETATM    1  O1  UNL     1      26.575   2.126  52.135  1.00  0.00     0.000 OA
HETATM    2  C1  UNL     1      25.389   1.850  51.839  1.00  0.00    -0.025 A 
HETATM    3  C2  UNL     1      24.258   1.073  52.145  1.00  0.00     0.067 C 
HETATM    4  C3  UNL     1      23.590   0.202  52.832  1.00  0.00     0.108 C 
HETATM    5  C4  UNL     1      23.604  -0.759  54.021  1.00  0.00     0.146 C 
HETATM    6  C5  UNL     1      24.874  -0.746  54.781  1.00  0.00     0.325 C 
HETATM    7  F1  UNL     1      24.680  -1.643  55.851  1.00  0.00    -0.183 F 
HETATM    8  F2  UNL     1      25.112   0.478  55.408  1.00  0.00    -0.183 F 
HETATM    9  N1  UNL     1      26.065  -1.208  54.122  1.00  0.00    -0.323 N 
HETATM   10  C6  UNL     1      26.947  -0.966  53.004  1.00  0.00     0.202 C 
HETATM   11  N2  UNL     1      27.324   0.181  53.355  1.00  0.00    -0.255 NA
HETATM   12  C7  UNL     1      28.228   1.078  52.712  1.00  0.00     0.420 C 
HETATM   13  N3  UNL     1      27.561   2.355  52.325  1.00  0.00     0.120 N 
HETATM   14  C8  UNL     1      26.456   2.674  51.447  1.00  0.00     0.228 A 
HETATM   15  C9  UNL     1      26.263   3.545  50.423  1.00  0.00     0.048 C 
HETATM   16  C10 UNL     1      24.872   3.316  49.993  1.00  0.00     0.024 C 
HETATM   17  C11 UNL     1      24.122   3.945  49.061  1.00  0.00    -0.021 C 
HETATM   18  C12 UNL     1      22.774   3.422  48.895  1.00  0.00    -0.008 C 
HETATM   19  C13 UNL     1      21.868   2.478  49.237  1.00  0.00    -0.025 C 
HETATM   20  C14 UNL     1      22.352   1.462  50.164  1.00  0.00     0.053 C 
HETATM   21  C15 UNL     1      21.787   1.383  51.534  1.00  0.00     0.172 C 
HETATM   22  O2  UNL     1      22.420   0.233  52.108  1.00  0.00    -0.376 OA
HETATM   23  H4  UNL     1      26.621  -2.035  54.485  1.00  0.00     0.166 HD
HETATM   24  H8  UNL     1      27.797   3.354  52.638  1.00  0.00     0.319 HD
ENDROOT
TORSDOF 0
ENDMDL
