MODEL 1
REMARK VINA RESULT:      -7.9      0.000      0.000
REMARK  3 active torsions:
REMARK  status: ('A' for Active; 'I' for Inactive)
REMARK    1  A    between atoms: C4_5  and  C5_6 
REMARK    2  A    between atoms: C19_26  and  N5_27 
REMARK       I    between atoms: N5_27  and  C20_28 
REMARK    3  A    between atoms: C20_28  and  C21_30 
ROOT
HETATM    1  C1  UNL     1      17.839   1.418  49.330  1.00  0.00     0.102 C 
HETATM    2  S1  UNL     1      18.966   1.800  50.374  1.00  0.00    -0.079 SA
HETATM    3  C2  UNL     1      19.180   0.553  51.588  1.00  0.00     0.058 C 
HETATM    4  C3  UNL     1      19.737  -0.017  52.616  1.00  0.00     0.022 C 
HETATM    5  C4  UNL     1      19.933  -1.030  53.624  1.00  0.00     0.000 C 
HETATM    6  C6  UNL     1      20.925  -0.813  54.469  1.00  0.00     0.014 C 
HETATM    7  C7  UNL     1      21.884   0.299  54.573  1.00  0.00     0.204 C 
HETATM    8  O2  UNL     1      23.197  -0.227  54.408  1.00  0.00    -0.345 OA
HETATM    9  C8  UNL     1      23.995   0.228  53.340  1.00  0.00     0.097 C 
HETATM   10  C9  UNL     1      23.536   1.371  52.920  1.00  0.00     0.068 C 
HETATM   11  C10 UNL     1      23.905   2.747  53.150  1.00  0.00     0.064 C 
HETATM   12  N1  UNL     1      24.021   3.925  53.641  1.00  0.00    -0.262 NA
HETATM   13  C11 UNL     1      23.851   5.041  52.702  1.00  0.00     0.134 C 
HETATM   14  C12 UNL     1      23.590   4.704  51.410  1.00  0.00     0.113 C 
HETATM   15  N2  UNL     1      23.723   3.330  50.943  1.00  0.00    -0.327 N 
HETATM   16  C13 UNL     1      22.898   2.953  49.847  1.00  0.00     0.123 A 
HETATM   17  C14 UNL     1      23.061   2.818  48.544  1.00  0.00     0.051 A 
HETATM   18  C15 UNL     1      21.950   2.365  47.722  1.00  0.00     0.024 A 
HETATM   19  C16 UNL     1      20.774   2.075  48.198  1.00  0.00     0.124 A 
HETATM   20  N3  UNL     1      20.503   2.190  49.589  1.00  0.00    -0.246 N 
HETATM   21  N4  UNL     1      21.580   2.627  50.357  1.00  0.00    -0.274 N 
HETATM   22  C17 UNL     1      24.710   2.707  51.851  1.00  0.00     0.168 C 
HETATM   23  C18 UNL     1      25.042   1.325  51.552  1.00  0.00     0.037 C 
HETATM   24  C19 UNL     1      25.059   0.238  52.348  1.00  0.00     0.067 C 
HETATM   25  H15 UNL     1      21.315   2.711  51.389  1.00  0.00     0.189 HD
ENDROOT
BRANCH  24  26
HETATM   26  N5  UNL     1      26.041  -0.775  52.198  1.00  0.00    -0.325 N 
HETATM   27  C20 UNL     1      27.166  -0.419  52.990  1.00  0.00     0.221 C 
HETATM   28  O3  UNL     1      27.320   0.610  53.720  1.00  0.00    -0.273 OA
HETATM   29  H18 UNL     1      26.162  -1.675  51.688  1.00  0.00     0.169 HD
BRANCH  27  30
HETATM   30  C21 UNL     1      28.450  -1.152  53.169  1.00  0.00     0.098 C 
HETATM   31  C22 UNL     1      29.385  -0.157  53.863  1.00  0.00     0.014 C 
ENDBRANCH  27  30
ENDBRANCH  24  26
BRANCH   5  32
HETATM   32  C5  UNL     1      19.068  -2.195  53.661  1.00  0.00     0.269 C 
HETATM   33  O1  UNL     1      17.817  -1.996  53.686  1.00  0.00    -0.301 OA
ENDBRANCH   5  32
TORSDOF 3
ENDMDL
MODEL 2
REMARK VINA RESULT:      -7.6      4.929      8.251
REMARK  3 active torsions:
REMARK  status: ('A' for Active; 'I' for Inactive)
REMARK    1  A    between atoms: C4_5  and  C5_6 
REMARK    2  A    between atoms: C19_26  and  N5_27 
REMARK       I    between atoms: N5_27  and  C20_28 
REMARK    3  A    between atoms: C20_28  and  C21_30 
ROOT
HETATM    1  C1  UNL     1      27.040   9.444  49.672  1.00  0.00     0.102 C 
HETATM    2  S1  UNL     1      26.023   8.357  50.210  1.00  0.00    -0.079 SA
HETATM    3  C2  UNL     1      24.370   8.733  49.764  1.00  0.00     0.058 C 
HETATM    4  C3  UNL     1      23.088   8.524  49.677  1.00  0.00     0.022 C 
HETATM    5  C4  UNL     1      21.720   8.811  49.319  1.00  0.00     0.000 C 
HETATM    6  C6  UNL     1      20.834   7.892  49.658  1.00  0.00     0.014 C 
HETATM    7  C7  UNL     1      20.992   6.604  50.352  1.00  0.00     0.204 C 
HETATM    8  O2  UNL     1      20.547   5.569  49.480  1.00  0.00    -0.345 OA
HETATM    9  C8  UNL     1      21.451   4.565  49.080  1.00  0.00     0.097 C 
HETATM   10  C9  UNL     1      22.445   4.527  49.918  1.00  0.00     0.068 C 
HETATM   11  C10 UNL     1      22.771   3.697  51.053  1.00  0.00     0.064 C 
HETATM   12  N1  UNL     1      22.852   3.199  52.231  1.00  0.00    -0.262 NA
HETATM   13  C11 UNL     1      24.201   2.855  52.700  1.00  0.00     0.134 C 
HETATM   14  C12 UNL     1      25.219   3.103  51.833  1.00  0.00     0.113 C 
HETATM   15  N2  UNL     1      24.963   3.446  50.440  1.00  0.00    -0.327 N 
HETATM   16  C13 UNL     1      25.946   4.247  49.796  1.00  0.00     0.123 A 
HETATM   17  C14 UNL     1      26.953   4.026  48.971  1.00  0.00     0.051 A 
HETATM   18  C15 UNL     1      27.745   5.145  48.485  1.00  0.00     0.024 A 
HETATM   19  C16 UNL     1      27.521   6.383  48.817  1.00  0.00     0.124 A 
HETATM   20  N3  UNL     1      26.459   6.719  49.701  1.00  0.00    -0.246 N 
HETATM   21  N4  UNL     1      25.715   5.633  50.156  1.00  0.00    -0.274 N 
HETATM   22  C17 UNL     1      23.647   2.848  50.130  1.00  0.00     0.168 C 
HETATM   23  C18 UNL     1      23.191   3.026  48.763  1.00  0.00     0.037 C 
HETATM   24  C19 UNL     1      22.018   3.487  48.286  1.00  0.00     0.067 C 
HETATM   25  H15 UNL     1      24.944   5.942  50.828  1.00  0.00     0.189 HD
ENDROOT
BRANCH  24  26
HETATM   26  N5  UNL     1      21.428   2.941  47.116  1.00  0.00    -0.325 N 
HETATM   27  C20 UNL     1      21.595   3.878  46.061  1.00  0.00     0.221 C 
HETATM   28  O3  UNL     1      22.162   5.016  46.101  1.00  0.00    -0.273 OA
HETATM   29  H18 UNL     1      20.926   2.076  46.826  1.00  0.00     0.169 HD
BRANCH  27  30
HETATM   30  C21 UNL     1      21.152   3.774  44.643  1.00  0.00     0.098 C 
HETATM   31  C22 UNL     1      21.093   5.218  44.135  1.00  0.00     0.014 C 
ENDBRANCH  27  30
ENDBRANCH  24  26
BRANCH   5  32
HETATM   32  C5  UNL     1      21.395  10.046  48.629  1.00  0.00     0.269 C 
HETATM   33  O1  UNL     1      20.748  10.925  49.273  1.00  0.00    -0.301 OA
ENDBRANCH   5  32
TORSDOF 3
ENDMDL
MODEL 3
REMARK VINA RESULT:      -7.4      4.137      8.775
REMARK  3 active torsions:
REMARK  status: ('A' for Active; 'I' for Inactive)
REMARK    1  A    between atoms: C4_5  and  C5_6 
REMARK    2  A    between atoms: C19_26  and  N5_27 
REMARK       I    between atoms: N5_27  and  C20_28 
REMARK    3  A    between atoms: C20_28  and  C21_30 
ROOT
HETATM    1  C1  UNL     1      22.224   1.995  49.236  1.00  0.00     0.102 C 
HETATM    2  S1  UNL     1      20.795   1.328  49.364  1.00  0.00    -0.079 SA
HETATM    3  C2  UNL     1      20.548   0.615  50.947  1.00  0.00     0.058 C 
HETATM    4  C3  UNL     1      19.875   0.014  51.884  1.00  0.00     0.022 C 
HETATM    5  C4  UNL     1      19.647  -0.578  53.180  1.00  0.00     0.000 C 
HETATM    6  C6  UNL     1      18.437  -1.068  53.382  1.00  0.00     0.014 C 
HETATM    7  C7  UNL     1      17.257  -1.125  52.505  1.00  0.00     0.204 C 
HETATM    8  O2  UNL     1      16.200  -0.402  53.130  1.00  0.00    -0.345 OA
HETATM    9  C8  UNL     1      15.649   0.718  52.479  1.00  0.00     0.097 C 
HETATM   10  C9  UNL     1      15.927   0.654  51.210  1.00  0.00     0.068 C 
HETATM   11  C10 UNL     1      15.200   0.219  50.042  1.00  0.00     0.064 C 
HETATM   12  N1  UNL     1      14.681  -0.488  49.108  1.00  0.00    -0.262 NA
HETATM   13  C11 UNL     1      14.840   0.024  47.740  1.00  0.00     0.134 C 
HETATM   14  C12 UNL     1      15.522   1.194  47.613  1.00  0.00     0.113 C 
HETATM   15  N2  UNL     1      15.848   2.013  48.774  1.00  0.00    -0.327 N 
HETATM   16  C13 UNL     1      17.009   2.827  48.668  1.00  0.00     0.123 A 
HETATM   17  C14 UNL     1      17.251   4.098  48.407  1.00  0.00     0.051 A 
HETATM   18  C15 UNL     1      18.620   4.588  48.417  1.00  0.00     0.024 A 
HETATM   19  C16 UNL     1      19.651   3.837  48.674  1.00  0.00     0.124 A 
HETATM   20  N3  UNL     1      19.490   2.455  48.966  1.00  0.00    -0.246 N 
HETATM   21  N4  UNL     1      18.171   2.007  48.949  1.00  0.00    -0.274 N 
HETATM   22  C17 UNL     1      14.820   1.677  49.784  1.00  0.00     0.168 C 
HETATM   23  C18 UNL     1      14.915   2.411  51.033  1.00  0.00     0.037 C 
HETATM   24  C19 UNL     1      14.931   1.971  52.306  1.00  0.00     0.067 C 
HETATM   25  H15 UNL     1      18.111   0.960  49.158  1.00  0.00     0.189 HD
ENDROOT
BRANCH  24  26
HETATM   26  N5  UNL     1      14.293   2.694  53.348  1.00  0.00    -0.325 N 
HETATM   27  C20 UNL     1      12.953   2.230  53.449  1.00  0.00     0.221 C 
HETATM   28  O3  UNL     1      12.377   1.333  52.757  1.00  0.00    -0.273 OA
HETATM   29  H18 UNL     1      14.525   3.441  54.034  1.00  0.00     0.169 HD
BRANCH  27  30
HETATM   30  C21 UNL     1      11.882   2.672  54.385  1.00  0.00     0.098 C 
HETATM   31  C22 UNL     1      12.095   4.179  54.554  1.00  0.00     0.014 C 
ENDBRANCH  27  30
ENDBRANCH  24  26
BRANCH   5  32
HETATM   32  C5  UNL     1      20.715  -0.604  54.163  1.00  0.00     0.269 C 
HETATM   33  O1  UNL     1      21.000  -1.719  54.691  1.00  0.00    -0.301 OA
ENDBRANCH   5  32
TORSDOF 3
ENDMDL
MODEL 4
REMARK VINA RESULT:      -7.3      4.098      7.316
REMARK  3 active torsions:
REMARK  status: ('A' for Active; 'I' for Inactive)
REMARK    1  A    between atoms: C4_5  and  C5_6 
REMARK    2  A    between atoms: C19_26  and  N5_27 
REMARK       I    between atoms: N5_27  and  C20_28 
REMARK    3  A    between atoms: C20_28  and  C21_30 
ROOT
HETATM    1  C1  UNL     1      23.941   9.999  47.507  1.00  0.00     0.102 C 
HETATM    2  S1  UNL     1      23.999   8.420  47.590  1.00  0.00    -0.079 SA
HETATM    3  C2  UNL     1      25.618   7.845  47.942  1.00  0.00     0.058 C 
HETATM    4  C3  UNL     1      26.527   6.954  48.209  1.00  0.00     0.022 C 
HETATM    5  C4  UNL     1      27.850   6.456  48.501  1.00  0.00     0.000 C 
HETATM    6  C6  UNL     1      27.945   5.150  48.677  1.00  0.00     0.014 C 
HETATM    7  C7  UNL     1      26.927   4.089  48.624  1.00  0.00     0.204 C 
HETATM    8  O2  UNL     1      26.878   3.453  49.898  1.00  0.00    -0.345 OA
HETATM    9  C8  UNL     1      25.680   3.475  50.637  1.00  0.00     0.097 C 
HETATM   10  C9  UNL     1      24.687   3.724  49.833  1.00  0.00     0.068 C 
HETATM   11  C10 UNL     1      23.702   2.905  49.169  1.00  0.00     0.064 C 
HETATM   12  N1  UNL     1      23.090   2.146  48.338  1.00  0.00    -0.262 NA
HETATM   13  C11 UNL     1      21.725   2.548  47.972  1.00  0.00     0.134 C 
HETATM   14  C12 UNL     1      21.257   3.684  48.558  1.00  0.00     0.113 C 
HETATM   15  N2  UNL     1      21.966   4.315  49.665  1.00  0.00    -0.327 N 
HETATM   16  C13 UNL     1      21.794   5.719  49.806  1.00  0.00     0.123 A 
HETATM   17  C14 UNL     1      21.057   6.509  50.565  1.00  0.00     0.051 A 
HETATM   18  C15 UNL     1      21.183   7.953  50.438  1.00  0.00     0.024 A 
HETATM   19  C16 UNL     1      21.996   8.533  49.604  1.00  0.00     0.124 A 
HETATM   20  N3  UNL     1      22.829   7.765  48.745  1.00  0.00    -0.246 N 
HETATM   21  N4  UNL     1      22.691   6.386  48.882  1.00  0.00    -0.274 N 
HETATM   22  C17 UNL     1      22.730   3.223  50.306  1.00  0.00     0.168 C 
HETATM   23  C18 UNL     1      23.495   3.608  51.479  1.00  0.00     0.037 C 
HETATM   24  C19 UNL     1      24.790   3.396  51.785  1.00  0.00     0.067 C 
HETATM   25  H15 UNL     1      23.327   5.860  48.203  1.00  0.00     0.189 HD
ENDROOT
BRANCH  24  26
HETATM   26  N5  UNL     1      25.202   3.125  53.116  1.00  0.00    -0.325 N 
HETATM   27  C20 UNL     1      25.543   1.748  53.199  1.00  0.00     0.221 C 
HETATM   28  O3  UNL     1      25.505   0.871  52.280  1.00  0.00    -0.273 OA
HETATM   29  H18 UNL     1      25.320   3.636  54.015  1.00  0.00     0.169 HD
BRANCH  27  30
HETATM   30  C21 UNL     1      26.030   0.978  54.377  1.00  0.00     0.098 C 
HETATM   31  C22 UNL     1      25.719  -0.486  54.054  1.00  0.00     0.014 C 
ENDBRANCH  27  30
ENDBRANCH  24  26
BRANCH   5  32
HETATM   32  C5  UNL     1      28.968   7.377  48.587  1.00  0.00     0.269 C 
HETATM   33  O1  UNL     1      30.136   6.885  48.577  1.00  0.00    -0.301 OA
ENDBRANCH   5  32
TORSDOF 3
ENDMDL
MODEL 5
REMARK VINA RESULT:      -7.2     22.389     26.021
REMARK  3 active torsions:
REMARK  status: ('A' for Active; 'I' for Inactive)
REMARK    1  A    between atoms: C4_5  and  C5_6 
REMARK    2  A    between atoms: C19_26  and  N5_27 
REMARK       I    between atoms: N5_27  and  C20_28 
REMARK    3  A    between atoms: C20_28  and  C21_30 
ROOT
HETATM    1  C1  UNL     1      43.193   7.389  70.432  1.00  0.00     0.102 C 
HETATM    2  S1  UNL     1      42.885   5.870  70.753  1.00  0.00    -0.079 SA
HETATM    3  C2  UNL     1      41.167   5.582  70.953  1.00  0.00     0.058 C 
HETATM    4  C3  UNL     1      40.100   4.861  71.139  1.00  0.00     0.022 C 
HETATM    5  C4  UNL     1      38.691   4.599  71.305  1.00  0.00     0.000 C 
HETATM    6  C6  UNL     1      38.361   3.332  71.481  1.00  0.00     0.014 C 
HETATM    7  C7  UNL     1      39.187   2.115  71.543  1.00  0.00     0.204 C 
HETATM    8  O2  UNL     1      38.782   1.246  70.490  1.00  0.00    -0.345 OA
HETATM    9  C8  UNL     1      39.714   0.876  69.501  1.00  0.00     0.097 C 
HETATM   10  C9  UNL     1      40.918   1.069  69.956  1.00  0.00     0.068 C 
HETATM   11  C10 UNL     1      41.921   0.212  70.541  1.00  0.00     0.064 C 
HETATM   12  N1  UNL     1      42.625  -0.479  71.359  1.00  0.00    -0.262 NA
HETATM   13  C11 UNL     1      44.081  -0.302  71.275  1.00  0.00     0.134 C 
HETATM   14  C12 UNL     1      44.525   0.577  70.335  1.00  0.00     0.113 C 
HETATM   15  N2  UNL     1      43.633   1.110  69.313  1.00  0.00    -0.327 N 
HETATM   16  C13 UNL     1      43.960   2.394  68.797  1.00  0.00     0.123 A 
HETATM   17  C14 UNL     1      44.560   2.852  67.714  1.00  0.00     0.051 A 
HETATM   18  C15 UNL     1      44.687   4.287  67.512  1.00  0.00     0.024 A 
HETATM   19  C16 UNL     1      44.234   5.174  68.350  1.00  0.00     0.124 A 
HETATM   20  N3  UNL     1      43.574   4.776  69.545  1.00  0.00    -0.246 N 
HETATM   21  N4  UNL     1      43.466   3.399  69.719  1.00  0.00    -0.274 N 
HETATM   22  C17 UNL     1      42.569   0.094  69.161  1.00  0.00     0.168 C 
HETATM   23  C18 UNL     1      41.569   0.391  68.151  1.00  0.00     0.037 C 
HETATM   24  C19 UNL     1      40.223   0.394  68.227  1.00  0.00     0.067 C 
HETATM   25  H15 UNL     1      42.978   3.158  70.639  1.00  0.00     0.189 HD
ENDROOT
BRANCH  24  26
HETATM   26  N5  UNL     1      39.418  -0.042  67.142  1.00  0.00    -0.325 N 
HETATM   27  C20 UNL     1      39.083  -1.406  67.363  1.00  0.00     0.221 C 
HETATM   28  O3  UNL     1      39.417  -2.150  68.338  1.00  0.00    -0.273 OA
HETATM   29  H18 UNL     1      39.020   0.345  66.262  1.00  0.00     0.169 HD
BRANCH  27  30
HETATM   30  C21 UNL     1      38.260  -2.313  66.515  1.00  0.00     0.098 C 
HETATM   31  C22 UNL     1      38.751  -3.725  66.848  1.00  0.00     0.014 C 
ENDBRANCH  27  30
ENDBRANCH  24  26
BRANCH   5  32
HETATM   32  C5  UNL     1      37.740   5.694  71.271  1.00  0.00     0.269 C 
HETATM   33  O1  UNL     1      36.962   5.765  70.274  1.00  0.00    -0.301 OA
ENDBRANCH   5  32
TORSDOF 3
ENDMDL
MODEL 6
REMARK VINA RESULT:      -7.1      3.197      4.444
REMARK  3 active torsions:
REMARK  status: ('A' for Active; 'I' for Inactive)
REMARK    1  A    between atoms: C4_5  and  C5_6 
REMARK    2  A    between atoms: C19_26  and  N5_27 
REMARK       I    between atoms: N5_27  and  C20_28 
REMARK    3  A    between atoms: C20_28  and  C21_30 
ROOT
HETATM    1  C1  UNL     1      18.258   1.156  49.750  1.00  0.00     0.102 C 
HETATM    2  S1  UNL     1      19.296   2.237  50.259  1.00  0.00    -0.079 SA
HETATM    3  C2  UNL     1      20.570   1.514  51.223  1.00  0.00     0.058 C 
HETATM    4  C3  UNL     1      21.676   1.501  51.908  1.00  0.00     0.022 C 
HETATM    5  C4  UNL     1      22.736   0.930  52.702  1.00  0.00     0.000 C 
HETATM    6  C6  UNL     1      23.687   1.767  53.077  1.00  0.00     0.014 C 
HETATM    7  C7  UNL     1      23.862   3.207  52.830  1.00  0.00     0.204 C 
HETATM    8  O2  UNL     1      25.082   3.393  52.120  1.00  0.00    -0.345 OA
HETATM    9  C8  UNL     1      25.056   3.982  50.841  1.00  0.00     0.097 C 
HETATM   10  C9  UNL     1      23.942   4.639  50.696  1.00  0.00     0.068 C 
HETATM   11  C10 UNL     1      23.573   6.030  50.817  1.00  0.00     0.064 C 
HETATM   12  N1  UNL     1      23.214   7.173  51.270  1.00  0.00    -0.262 NA
HETATM   13  C11 UNL     1      22.145   7.858  50.532  1.00  0.00     0.134 C 
HETATM   14  C12 UNL     1      21.651   7.204  49.445  1.00  0.00     0.113 C 
HETATM   15  N2  UNL     1      22.314   6.024  48.904  1.00  0.00    -0.327 N 
HETATM   16  C13 UNL     1      21.484   5.090  48.225  1.00  0.00     0.123 A 
HETATM   17  C14 UNL     1      21.202   4.818  46.964  1.00  0.00     0.051 A 
HETATM   18  C15 UNL     1      20.295   3.726  46.648  1.00  0.00     0.024 A 
HETATM   19  C16 UNL     1      19.729   2.978  47.549  1.00  0.00     0.124 A 
HETATM   20  N3  UNL     1      19.972   3.194  48.933  1.00  0.00    -0.246 N 
HETATM   21  N4  UNL     1      20.841   4.246  49.213  1.00  0.00    -0.274 N 
HETATM   22  C17 UNL     1      23.732   6.161  49.301  1.00  0.00     0.168 C 
HETATM   23  C18 UNL     1      24.612   5.106  48.832  1.00  0.00     0.037 C 
HETATM   24  C19 UNL     1      25.497   4.343  49.503  1.00  0.00     0.067 C 
HETATM   25  H15 UNL     1      20.973   4.373  50.266  1.00  0.00     0.189 HD
ENDROOT
BRANCH  24  26
HETATM   26  N5  UNL     1      26.731   3.953  48.920  1.00  0.00    -0.325 N 
HETATM   27  C20 UNL     1      27.521   5.120  48.738  1.00  0.00     0.221 C 
HETATM   28  O3  UNL     1      27.225   6.323  49.027  1.00  0.00    -0.273 OA
HETATM   29  H18 UNL     1      27.201   3.081  48.601  1.00  0.00     0.169 HD
BRANCH  27  30
HETATM   30  C21 UNL     1      28.890   5.240  48.166  1.00  0.00     0.098 C 
HETATM   31  C22 UNL     1      28.968   6.665  47.610  1.00  0.00     0.014 C 
ENDBRANCH  27  30
ENDBRANCH  24  26
BRANCH   5  32
HETATM   32  C5  UNL     1      22.711  -0.482  53.037  1.00  0.00     0.269 C 
HETATM   33  O1  UNL     1      21.793  -0.886  53.810  1.00  0.00    -0.301 OA
ENDBRANCH   5  32
TORSDOF 3
ENDMDL
MODEL 7
REMARK VINA RESULT:      -7.1      4.052      8.507
REMARK  3 active torsions:
REMARK  status: ('A' for Active; 'I' for Inactive)
REMARK    1  A    between atoms: C4_5  and  C5_6 
REMARK    2  A    between atoms: C19_26  and  N5_27 
REMARK       I    between atoms: N5_27  and  C20_28 
REMARK    3  A    between atoms: C20_28  and  C21_30 
ROOT
HETATM    1  C1  UNL     1      23.007   2.268  50.061  1.00  0.00     0.102 C 
HETATM    2  S1  UNL     1      21.459   2.032  49.828  1.00  0.00    -0.079 SA
HETATM    3  C2  UNL     1      20.765   0.996  51.060  1.00  0.00     0.058 C 
HETATM    4  C3  UNL     1      19.808   0.370  51.682  1.00  0.00     0.022 C 
HETATM    5  C4  UNL     1      19.213  -0.478  52.686  1.00  0.00     0.000 C 
HETATM    6  C6  UNL     1      17.904  -0.636  52.601  1.00  0.00     0.014 C 
HETATM    7  C7  UNL     1      16.924  -0.096  51.645  1.00  0.00     0.204 C 
HETATM    8  O2  UNL     1      15.980   0.688  52.369  1.00  0.00    -0.345 OA
HETATM    9  C8  UNL     1      15.844   2.057  52.070  1.00  0.00     0.097 C 
HETATM   10  C9  UNL     1      16.323   2.284  50.882  1.00  0.00     0.068 C 
HETATM   11  C10 UNL     1      15.735   2.432  49.572  1.00  0.00     0.064 C 
HETATM   12  N1  UNL     1      15.237   2.204  48.413  1.00  0.00    -0.262 NA
HETATM   13  C11 UNL     1      15.761   3.019  47.309  1.00  0.00     0.134 C 
HETATM   14  C12 UNL     1      16.718   3.930  47.637  1.00  0.00     0.113 C 
HETATM   15  N2  UNL     1      17.017   4.249  49.027  1.00  0.00    -0.327 N 
HETATM   16  C13 UNL     1      18.341   4.690  49.303  1.00  0.00     0.123 A 
HETATM   17  C14 UNL     1      18.927   5.857  49.495  1.00  0.00     0.051 A 
HETATM   18  C15 UNL     1      20.350   5.909  49.794  1.00  0.00     0.024 A 
HETATM   19  C16 UNL     1      21.103   4.852  49.889  1.00  0.00     0.124 A 
HETATM   20  N3  UNL     1      20.561   3.552  49.698  1.00  0.00    -0.246 N 
HETATM   21  N4  UNL     1      19.199   3.526  49.410  1.00  0.00    -0.274 N 
HETATM   22  C17 UNL     1      15.774   3.948  49.769  1.00  0.00     0.168 C 
HETATM   23  C18 UNL     1      15.817   4.231  51.192  1.00  0.00     0.037 C 
HETATM   24  C19 UNL     1      15.495   3.458  52.248  1.00  0.00     0.067 C 
HETATM   25  H15 UNL     1      18.849   2.527  49.260  1.00  0.00     0.189 HD
ENDROOT
BRANCH  24  26
HETATM   26  N5  UNL     1      14.874   4.001  53.403  1.00  0.00    -0.325 N 
HETATM   27  C20 UNL     1      13.468   3.987  53.195  1.00  0.00     0.221 C 
HETATM   28  O3  UNL     1      12.828   3.574  52.178  1.00  0.00    -0.273 OA
HETATM   29  H18 UNL     1      15.153   4.393  54.326  1.00  0.00     0.169 HD
BRANCH  27  30
HETATM   30  C21 UNL     1      12.387   4.449  54.108  1.00  0.00     0.098 C 
HETATM   31  C22 UNL     1      11.796   3.170  54.708  1.00  0.00     0.014 C 
ENDBRANCH  27  30
ENDBRANCH  24  26
BRANCH   5  32
HETATM   32  C5  UNL     1      20.047  -1.091  53.704  1.00  0.00     0.269 C 
HETATM   33  O1  UNL     1      20.750  -0.325  54.426  1.00  0.00    -0.301 OA
ENDBRANCH   5  32
TORSDOF 3
ENDMDL
MODEL 8
REMARK VINA RESULT:      -7.1      3.089      7.345
REMARK  3 active torsions:
REMARK  status: ('A' for Active; 'I' for Inactive)
REMARK    1  A    between atoms: C4_5  and  C5_6 
REMARK    2  A    between atoms: C19_26  and  N5_27 
REMARK       I    between atoms: N5_27  and  C20_28 
REMARK    3  A    between atoms: C20_28  and  C21_30 
ROOT
HETATM    1  C1  UNL     1      25.319   2.848  52.605  1.00  0.00     0.102 C 
HETATM    2  S1  UNL     1      24.024   2.555  51.744  1.00  0.00    -0.079 SA
HETATM    3  C2  UNL     1      22.901   1.508  52.591  1.00  0.00     0.058 C 
HETATM    4  C3  UNL     1      21.789   0.855  52.764  1.00  0.00     0.022 C 
HETATM    5  C4  UNL     1      20.848  -0.003  53.442  1.00  0.00     0.000 C 
HETATM    6  C6  UNL     1      19.704  -0.208  52.814  1.00  0.00     0.014 C 
HETATM    7  C7  UNL     1      19.207   0.286  51.520  1.00  0.00     0.204 C 
HETATM    8  O2  UNL     1      18.023   1.044  51.756  1.00  0.00    -0.345 OA
HETATM    9  C8  UNL     1      17.989   2.404  51.394  1.00  0.00     0.097 C 
HETATM   10  C9  UNL     1      18.921   2.636  50.516  1.00  0.00     0.068 C 
HETATM   11  C10 UNL     1      18.940   2.749  49.077  1.00  0.00     0.064 C 
HETATM   12  N1  UNL     1      18.988   2.492  47.823  1.00  0.00    -0.262 NA
HETATM   13  C11 UNL     1      19.907   3.313  47.025  1.00  0.00     0.134 C 
HETATM   14  C12 UNL     1      20.609   4.260  47.704  1.00  0.00     0.113 C 
HETATM   15  N2  UNL     1      20.282   4.605  49.082  1.00  0.00    -0.327 N 
HETATM   16  C13 UNL     1      21.351   5.095  49.882  1.00  0.00     0.123 A 
HETATM   17  C14 UNL     1      21.767   6.284  50.276  1.00  0.00     0.051 A 
HETATM   18  C15 UNL     1      22.926   6.389  51.148  1.00  0.00     0.024 A 
HETATM   19  C16 UNL     1      23.597   5.360  51.580  1.00  0.00     0.124 A 
HETATM   20  N3  UNL     1      23.224   4.040  51.208  1.00  0.00    -0.246 N 
HETATM   21  N4  UNL     1      22.114   3.963  50.371  1.00  0.00    -0.274 N 
HETATM   22  C17 UNL     1      18.850   4.267  49.235  1.00  0.00     0.168 C 
HETATM   23  C18 UNL     1      18.277   4.567  50.535  1.00  0.00     0.037 C 
HETATM   24  C19 UNL     1      17.559   3.794  51.373  1.00  0.00     0.067 C 
HETATM   25  H15 UNL     1      21.889   2.951  50.112  1.00  0.00     0.189 HD
ENDROOT
BRANCH  24  26
HETATM   26  N5  UNL     1      16.492   4.327  52.143  1.00  0.00    -0.325 N 
HETATM   27  C20 UNL     1      15.275   3.803  51.630  1.00  0.00     0.221 C 
HETATM   28  O3  UNL     1      15.112   2.999  50.659  1.00  0.00    -0.273 OA
HETATM   29  H18 UNL     1      16.359   4.971  52.949  1.00  0.00     0.169 HD
BRANCH  27  30
HETATM   30  C21 UNL     1      13.882   4.058  52.092  1.00  0.00     0.098 C 
HETATM   31  C22 UNL     1      14.001   4.308  53.598  1.00  0.00     0.014 C 
ENDBRANCH  27  30
ENDBRANCH  24  26
BRANCH   5  32
HETATM   32  C5  UNL     1      21.187  -0.576  54.732  1.00  0.00     0.269 C 
HETATM   33  O1  UNL     1      21.269  -1.837  54.811  1.00  0.00    -0.301 OA
ENDBRANCH   5  32
TORSDOF 3
ENDMDL
MODEL 9
REMARK VINA RESULT:      -7.0      8.733     10.779
REMARK  3 active torsions:
REMARK  status: ('A' for Active; 'I' for Inactive)
REMARK    1  A    between atoms: C4_5  and  C5_6 
REMARK    2  A    between atoms: C19_26  and  N5_27 
REMARK       I    between atoms: N5_27  and  C20_28 
REMARK    3  A    between atoms: C20_28  and  C21_30 
ROOT
HETATM    1  C1  UNL     1      24.606   8.809  43.285  1.00  0.00     0.102 C 
HETATM    2  S1  UNL     1      25.130   9.534  44.591  1.00  0.00    -0.079 SA
HETATM    3  C2  UNL     1      24.877   8.557  46.025  1.00  0.00     0.058 C 
HETATM    4  C3  UNL     1      24.965   8.261  47.289  1.00  0.00     0.022 C 
HETATM    5  C4  UNL     1      24.770   7.474  48.482  1.00  0.00     0.000 C 
HETATM    6  C6  UNL     1      25.273   7.984  49.593  1.00  0.00     0.014 C 
HETATM    7  C7  UNL     1      26.007   9.236  49.839  1.00  0.00     0.204 C 
HETATM    8  O2  UNL     1      27.293   8.905  50.354  1.00  0.00    -0.345 OA
HETATM    9  C8  UNL     1      28.444   9.296  49.643  1.00  0.00     0.097 C 
HETATM   10  C9  UNL     1      28.136  10.265  48.831  1.00  0.00     0.068 C 
HETATM   11  C10 UNL     1      28.268  11.702  48.886  1.00  0.00     0.064 C 
HETATM   12  N1  UNL     1      28.073  12.948  49.110  1.00  0.00    -0.262 NA
HETATM   13  C11 UNL     1      28.254  13.851  47.966  1.00  0.00     0.134 C 
HETATM   14  C12 UNL     1      28.611  13.266  46.791  1.00  0.00     0.113 C 
HETATM   15  N2  UNL     1      29.032  11.872  46.734  1.00  0.00    -0.327 N 
HETATM   16  C13 UNL     1      28.801  11.191  45.507  1.00  0.00     0.123 A 
HETATM   17  C14 UNL     1      29.529  10.869  44.454  1.00  0.00     0.051 A 
HETATM   18  C15 UNL     1      28.927  10.115  43.365  1.00  0.00     0.024 A 
HETATM   19  C16 UNL     1      27.685   9.726  43.361  1.00  0.00     0.124 A 
HETATM   20  N3  UNL     1      26.824  10.026  44.451  1.00  0.00    -0.246 N 
HETATM   21  N4  UNL     1      27.420  10.750  45.481  1.00  0.00    -0.274 N 
HETATM   22  C17 UNL     1      29.562  11.573  48.082  1.00  0.00     0.168 C 
HETATM   23  C18 UNL     1      30.089  10.232  48.259  1.00  0.00     0.037 C 
HETATM   24  C19 UNL     1      29.832   9.309  49.207  1.00  0.00     0.067 C 
HETATM   25  H15 UNL     1      26.724  10.962  46.264  1.00  0.00     0.189 HD
ENDROOT
BRANCH  24  26
HETATM   26  N5  UNL     1      30.849   8.454  49.704  1.00  0.00    -0.325 N 
HETATM   27  C20 UNL     1      30.858   7.274  48.911  1.00  0.00     0.221 C 
HETATM   28  O3  UNL     1      30.113   6.984  47.924  1.00  0.00    -0.273 OA
HETATM   29  H18 UNL     1      31.564   8.450  50.460  1.00  0.00     0.169 HD
BRANCH  27  30
HETATM   30  C21 UNL     1      31.737   6.078  49.031  1.00  0.00     0.098 C 
HETATM   31  C22 UNL     1      31.340   5.172  47.861  1.00  0.00     0.014 C 
ENDBRANCH  27  30
ENDBRANCH  24  26
BRANCH   5  32
HETATM   32  C5  UNL     1      24.062   6.210  48.410  1.00  0.00     0.269 C 
HETATM   33  O1  UNL     1      24.540   5.231  49.056  1.00  0.00    -0.301 OA
ENDBRANCH   5  32
TORSDOF 3
ENDMDL
