MODEL 1
REMARK VINA RESULT:      -7.6      0.000      0.000
REMARK  2 active torsions:
REMARK  status: ('A' for Active; 'I' for Inactive)
REMARK    1  A    between atoms: O1_2  and  C2_3 
REMARK    2  A    between atoms: N1_6  and  C5_7 
ROOT
HETATM    1  C2  UNL     1      28.586   1.070  54.369  1.00  0.00     0.067 C 
HETATM    2  C3  UNL     1      27.328   1.072  54.670  1.00  0.00     0.030 C 
HETATM    3  C4  UNL     1      26.516  -0.138  54.595  1.00  0.00     0.160 C 
HETATM    4  N1  UNL     1      25.675  -0.188  53.467  1.00  0.00    -0.338 N 
HETATM    5  C11 UNL     1      26.618  -0.462  52.360  1.00  0.00     0.211 C 
HETATM    6  N2  UNL     1      26.849  -1.516  52.909  1.00  0.00    -0.237 NA
HETATM    7  C12 UNL     1      27.560  -2.635  52.840  1.00  0.00     0.233 C 
HETATM    8  N3  UNL     1      28.846  -2.532  53.150  1.00  0.00    -0.254 NA
HETATM    9  C13 UNL     1      29.238  -1.190  53.505  1.00  0.00     0.120 C 
HETATM   10  C14 UNL     1      29.475   0.054  53.859  1.00  0.00     0.055 C 
ENDROOT
BRANCH   4  11
HETATM   11  C5  UNL     1      24.310  -0.060  53.152  1.00  0.00     0.037 A 
HETATM   12  C6  UNL     1      24.011   0.854  52.200  1.00  0.00     0.033 A 
HETATM   13  C7  UNL     1      22.696   1.066  51.810  1.00  0.00     0.046 A 
HETATM   14  C8  UNL     1      21.736   0.301  52.442  1.00  0.00     0.138 A 
HETATM   15  F1  UNL     1      20.444   0.521  52.048  1.00  0.00    -0.204 F 
HETATM   16  C9  UNL     1      22.069  -0.631  53.417  1.00  0.00     0.074 A 
HETATM   17 CL1  UNL     1      20.789  -1.553  54.172  1.00  0.00    -0.081 Cl
HETATM   18  C10 UNL     1      23.375  -0.837  53.800  1.00  0.00     0.056 A 
ENDBRANCH   4  11
BRANCH   1  19
HETATM   19  O1  UNL     1      29.187   2.280  54.530  1.00  0.00    -0.356 OA
HETATM   20  C1  UNL     1      30.469   2.469  55.103  1.00  0.00     0.210 C 
ENDBRANCH   1  19
TORSDOF 2
ENDMDL
MODEL 2
REMARK VINA RESULT:      -7.5      2.404      3.395
REMARK  2 active torsions:
REMARK  status: ('A' for Active; 'I' for Inactive)
REMARK    1  A    between atoms: O1_2  and  C2_3 
REMARK    2  A    between atoms: N1_6  and  C5_7 
ROOT
HETATM    1  C2  UNL     1      26.502   2.411  51.615  1.00  0.00     0.067 C 
HETATM    2  C3  UNL     1      25.244   2.422  51.914  1.00  0.00     0.030 C 
HETATM    3  C4  UNL     1      24.762   2.013  53.230  1.00  0.00     0.160 C 
HETATM    4  N1  UNL     1      24.185   0.730  53.249  1.00  0.00    -0.338 N 
HETATM    5  C11 UNL     1      25.359  -0.165  53.135  1.00  0.00     0.211 C 
HETATM    6  N2  UNL     1      25.717   0.283  54.201  1.00  0.00    -0.237 NA
HETATM    7  C12 UNL     1      26.666   0.233  55.129  1.00  0.00     0.233 C 
HETATM    8  N3  UNL     1      27.811   0.833  54.827  1.00  0.00    -0.254 NA
HETATM    9  C13 UNL     1      27.809   1.433  53.517  1.00  0.00     0.120 C 
HETATM   10  C14 UNL     1      27.681   1.987  52.330  1.00  0.00     0.055 C 
ENDROOT
BRANCH   4  11
HETATM   11  C5  UNL     1      22.913   0.136  53.342  1.00  0.00     0.037 A 
HETATM   12  C6  UNL     1      22.766  -0.787  54.321  1.00  0.00     0.033 A 
HETATM   13  C7  UNL     1      21.555  -1.439  54.503  1.00  0.00     0.046 A 
HETATM   14  C8  UNL     1      20.534  -1.093  53.642  1.00  0.00     0.138 A 
HETATM   15  F1  UNL     1      19.345  -1.743  53.833  1.00  0.00    -0.204 F 
HETATM   16  C9  UNL     1      20.709  -0.142  52.644  1.00  0.00     0.074 A 
HETATM   17 CL1  UNL     1      19.364   0.232  51.591  1.00  0.00    -0.081 Cl
HETATM   18  C10 UNL     1      21.913   0.502  52.467  1.00  0.00     0.056 A 
ENDBRANCH   4  11
BRANCH   1  19
HETATM   19  O1  UNL     1      26.766   2.855  50.357  1.00  0.00    -0.356 OA
HETATM   20  C1  UNL     1      26.075   3.915  49.717  1.00  0.00     0.210 C 
ENDBRANCH   1  19
TORSDOF 2
ENDMDL
MODEL 3
REMARK VINA RESULT:      -7.3      4.115      5.315
REMARK  2 active torsions:
REMARK  status: ('A' for Active; 'I' for Inactive)
REMARK    1  A    between atoms: O1_2  and  C2_3 
REMARK    2  A    between atoms: N1_6  and  C5_7 
ROOT
HETATM    1  C2  UNL     1      26.349   0.272  54.491  1.00  0.00     0.067 C 
HETATM    2  C3  UNL     1      26.444   1.491  54.070  1.00  0.00     0.030 C 
HETATM    3  C4  UNL     1      25.287   2.223  53.564  1.00  0.00     0.160 C 
HETATM    4  N1  UNL     1      25.252   2.329  52.161  1.00  0.00    -0.338 N 
HETATM    5  C11 UNL     1      24.878   0.962  51.732  1.00  0.00     0.211 C 
HETATM    6  N2  UNL     1      23.832   1.141  52.313  1.00  0.00    -0.237 NA
HETATM    7  C12 UNL     1      22.667   0.589  52.632  1.00  0.00     0.233 C 
HETATM    8  N3  UNL     1      22.697  -0.335  53.586  1.00  0.00    -0.254 NA
HETATM    9  C13 UNL     1      24.022  -0.573  54.101  1.00  0.00     0.120 C 
HETATM   10  C14 UNL     1      25.261  -0.674  54.534  1.00  0.00     0.055 C 
ENDROOT
BRANCH   4  11
HETATM   11  C5  UNL     1      25.457   3.298  51.161  1.00  0.00     0.037 A 
HETATM   12  C6  UNL     1      26.532   3.101  50.364  1.00  0.00     0.033 A 
HETATM   13  C7  UNL     1      26.832   3.994  49.346  1.00  0.00     0.046 A 
HETATM   14  C8  UNL     1      25.982   5.072  49.203  1.00  0.00     0.138 A 
HETATM   15  F1  UNL     1      26.290   5.946  48.196  1.00  0.00    -0.204 F 
HETATM   16  C9  UNL     1      24.884   5.253  50.035  1.00  0.00     0.074 A 
HETATM   17 CL1  UNL     1      23.862   6.651  49.789  1.00  0.00    -0.081 Cl
HETATM   18  C10 UNL     1      24.591   4.364  51.044  1.00  0.00     0.056 A 
ENDBRANCH   4  11
BRANCH   1  19
HETATM   19  O1  UNL     1      27.522  -0.235  54.957  1.00  0.00    -0.356 OA
HETATM   20  C1  UNL     1      28.802   0.291  54.652  1.00  0.00     0.210 C 
ENDBRANCH   1  19
TORSDOF 2
ENDMDL
MODEL 4
REMARK VINA RESULT:      -7.3      4.035      5.223
REMARK  2 active torsions:
REMARK  status: ('A' for Active; 'I' for Inactive)
REMARK    1  A    between atoms: O1_2  and  C2_3 
REMARK    2  A    between atoms: N1_6  and  C5_7 
ROOT
HETATM    1  C2  UNL     1      25.325  -0.505  54.290  1.00  0.00     0.067 C 
HETATM    2  C3  UNL     1      25.100  -0.184  53.058  1.00  0.00     0.030 C 
HETATM    3  C4  UNL     1      26.113   0.468  52.235  1.00  0.00     0.160 C 
HETATM    4  N1  UNL     1      25.895   1.846  52.052  1.00  0.00    -0.338 N 
HETATM    5  C11 UNL     1      26.252   2.418  53.370  1.00  0.00     0.211 C 
HETATM    6  N2  UNL     1      27.375   2.016  53.163  1.00  0.00    -0.237 NA
HETATM    7  C12 UNL     1      28.603   1.940  53.663  1.00  0.00     0.233 C 
HETATM    8  N3  UNL     1      28.785   1.055  54.636  1.00  0.00    -0.254 NA
HETATM    9  C13 UNL     1      27.584   0.333  54.977  1.00  0.00     0.120 C 
HETATM   10  C14 UNL     1      26.448  -0.300  55.172  1.00  0.00     0.055 C 
ENDROOT
BRANCH   4  11
HETATM   11  C5  UNL     1      25.472   2.732  51.045  1.00  0.00     0.037 A 
HETATM   12  C6  UNL     1      24.149   2.709  50.759  1.00  0.00     0.033 A 
HETATM   13  C7  UNL     1      23.621   3.539  49.782  1.00  0.00     0.046 A 
HETATM   14  C8  UNL     1      24.511   4.371  49.134  1.00  0.00     0.138 A 
HETATM   15  F1  UNL     1      23.977   5.184  48.171  1.00  0.00    -0.204 F 
HETATM   16  C9  UNL     1      25.866   4.376  49.443  1.00  0.00     0.074 A 
HETATM   17 CL1  UNL     1      26.926   5.457  48.568  1.00  0.00    -0.081 Cl
HETATM   18  C10 UNL     1      26.385   3.550  50.414  1.00  0.00     0.056 A 
ENDBRANCH   4  11
BRANCH   1  19
HETATM   19  O1  UNL     1      24.278  -1.135  54.889  1.00  0.00    -0.356 OA
HETATM   20  C1  UNL     1      22.918  -0.942  54.538  1.00  0.00     0.210 C 
ENDBRANCH   1  19
TORSDOF 2
ENDMDL
MODEL 5
REMARK VINA RESULT:      -7.2      4.744      6.600
REMARK  2 active torsions:
REMARK  status: ('A' for Active; 'I' for Inactive)
REMARK    1  A    between atoms: O1_2  and  C2_3 
REMARK    2  A    between atoms: N1_6  and  C5_7 
ROOT
HETATM    1  C2  UNL     1      25.901   5.229  49.275  1.00  0.00     0.067 C 
HETATM    2  C3  UNL     1      26.710   4.259  49.555  1.00  0.00     0.030 C 
HETATM    3  C4  UNL     1      26.242   2.883  49.692  1.00  0.00     0.160 C 
HETATM    4  N1  UNL     1      26.144   2.448  51.027  1.00  0.00    -0.338 N 
HETATM    5  C11 UNL     1      24.944   3.159  51.522  1.00  0.00     0.211 C 
HETATM    6  N2  UNL     1      24.317   2.529  50.701  1.00  0.00    -0.237 NA
HETATM    7  C12 UNL     1      23.107   2.321  50.195  1.00  0.00     0.233 C 
HETATM    8  N3  UNL     1      22.636   3.269  49.393  1.00  0.00    -0.254 NA
HETATM    9  C13 UNL     1      23.547   4.373  49.225  1.00  0.00     0.120 C 
HETATM   10  C14 UNL     1      24.471   5.301  49.101  1.00  0.00     0.055 C 
ENDROOT
BRANCH   4  11
HETATM   11  C5  UNL     1      26.819   1.597  51.920  1.00  0.00     0.037 A 
HETATM   12  C6  UNL     1      27.607   2.210  52.834  1.00  0.00     0.033 A 
HETATM   13  C7  UNL     1      28.322   1.470  53.764  1.00  0.00     0.046 A 
HETATM   14  C8  UNL     1      28.181   0.098  53.699  1.00  0.00     0.138 A 
HETATM   15  F1  UNL     1      28.892  -0.620  54.621  1.00  0.00    -0.204 F 
HETATM   16  C9  UNL     1      27.367  -0.509  52.750  1.00  0.00     0.074 A 
HETATM   17 CL1  UNL     1      27.250  -2.254  52.732  1.00  0.00    -0.081 Cl
HETATM   18  C10 UNL     1      26.660   0.231  51.830  1.00  0.00     0.056 A 
ENDBRANCH   4  11
BRANCH   1  19
HETATM   19  O1  UNL     1      26.520   6.435  49.153  1.00  0.00    -0.356 OA
HETATM   20  C1  UNL     1      27.589   6.704  48.262  1.00  0.00     0.210 C 
ENDBRANCH   1  19
TORSDOF 2
ENDMDL
MODEL 6
REMARK VINA RESULT:      -7.0      2.486      3.539
REMARK  2 active torsions:
REMARK  status: ('A' for Active; 'I' for Inactive)
REMARK    1  A    between atoms: O1_2  and  C2_3 
REMARK    2  A    between atoms: N1_6  and  C5_7 
ROOT
HETATM    1  C2  UNL     1      26.855   0.899  53.790  1.00  0.00     0.067 C 
HETATM    2  C3  UNL     1      25.870   0.067  53.694  1.00  0.00     0.030 C 
HETATM    3  C4  UNL     1      24.984   0.054  52.534  1.00  0.00     0.160 C 
HETATM    4  N1  UNL     1      23.730   0.649  52.771  1.00  0.00    -0.338 N 
HETATM    5  C11 UNL     1      24.049   2.094  52.813  1.00  0.00     0.211 C 
HETATM    6  N2  UNL     1      24.385   1.983  51.656  1.00  0.00    -0.237 NA
HETATM    7  C12 UNL     1      24.867   2.636  50.605  1.00  0.00     0.233 C 
HETATM    8  N3  UNL     1      26.161   2.932  50.642  1.00  0.00    -0.254 NA
HETATM    9  C13 UNL     1      26.810   2.483  51.848  1.00  0.00     0.120 C 
HETATM   10  C14 UNL     1      27.312   1.986  52.959  1.00  0.00     0.055 C 
ENDROOT
BRANCH   4  11
HETATM   11  C5  UNL     1      22.389   0.267  52.957  1.00  0.00     0.037 A 
HETATM   12  C6  UNL     1      22.105  -0.323  54.142  1.00  0.00     0.033 A 
HETATM   13  C7  UNL     1      20.815  -0.743  54.432  1.00  0.00     0.046 A 
HETATM   14  C8  UNL     1      19.863  -0.525  53.457  1.00  0.00     0.138 A 
HETATM   15  F1  UNL     1      18.595  -0.945  53.757  1.00  0.00    -0.204 F 
HETATM   16  C9  UNL     1      20.179   0.081  52.248  1.00  0.00     0.074 A 
HETATM   17 CL1  UNL     1      18.913   0.312  51.064  1.00  0.00    -0.081 Cl
HETATM   18  C10 UNL     1      21.461   0.496  51.965  1.00  0.00     0.056 A 
ENDBRANCH   4  11
BRANCH   1  19
HETATM   19  O1  UNL     1      27.592   0.742  54.923  1.00  0.00    -0.356 OA
HETATM   20  C1  UNL     1      28.914   0.232  54.957  1.00  0.00     0.210 C 
ENDBRANCH   1  19
TORSDOF 2
ENDMDL
MODEL 7
REMARK VINA RESULT:      -6.9      3.959      6.544
REMARK  2 active torsions:
REMARK  status: ('A' for Active; 'I' for Inactive)
REMARK    1  A    between atoms: O1_2  and  C2_3 
REMARK    2  A    between atoms: N1_6  and  C5_7 
ROOT
HETATM    1  C2  UNL     1      22.604   3.330  51.982  1.00  0.00     0.067 C 
HETATM    2  C3  UNL     1      23.792   2.927  51.667  1.00  0.00     0.030 C 
HETATM    3  C4  UNL     1      24.105   1.512  51.502  1.00  0.00     0.160 C 
HETATM    4  N1  UNL     1      24.808   0.956  52.588  1.00  0.00    -0.338 N 
HETATM    5  C11 UNL     1      23.770   0.851  53.638  1.00  0.00     0.211 C 
HETATM    6  N2  UNL     1      23.205   0.071  52.904  1.00  0.00    -0.237 NA
HETATM    7  C12 UNL     1      22.134  -0.703  52.772  1.00  0.00     0.233 C 
HETATM    8  N3  UNL     1      20.991  -0.083  52.506  1.00  0.00    -0.254 NA
HETATM    9  C13 UNL     1      21.132   1.349  52.415  1.00  0.00     0.120 C 
HETATM   10  C14 UNL     1      21.381   2.636  52.304  1.00  0.00     0.055 C 
ENDROOT
BRANCH   4  11
HETATM   11  C5  UNL     1      26.107   0.516  52.902  1.00  0.00     0.037 A 
HETATM   12  C6  UNL     1      26.393  -0.762  52.561  1.00  0.00     0.033 A 
HETATM   13  C7  UNL     1      27.643  -1.303  52.825  1.00  0.00     0.046 A 
HETATM   14  C8  UNL     1      28.555  -0.472  53.444  1.00  0.00     0.138 A 
HETATM   15  F1  UNL     1      29.783  -1.017  53.699  1.00  0.00    -0.204 F 
HETATM   16  C9  UNL     1      28.237   0.837  53.785  1.00  0.00     0.074 A 
HETATM   17 CL1  UNL     1      29.450   1.821  54.573  1.00  0.00    -0.081 Cl
HETATM   18  C10 UNL     1      26.995   1.369  53.521  1.00  0.00     0.056 A 
ENDBRANCH   4  11
BRANCH   1  19
HETATM   19  O1  UNL     1      22.491   4.684  52.059  1.00  0.00    -0.356 OA
HETATM   20  C1  UNL     1      21.606   5.463  51.271  1.00  0.00     0.210 C 
ENDBRANCH   1  19
TORSDOF 2
ENDMDL
MODEL 8
REMARK VINA RESULT:      -6.6      4.615      6.323
REMARK  2 active torsions:
REMARK  status: ('A' for Active; 'I' for Inactive)
REMARK    1  A    between atoms: O1_2  and  C2_3 
REMARK    2  A    between atoms: N1_6  and  C5_7 
ROOT
HETATM    1  C2  UNL     1      22.441   0.395  53.356  1.00  0.00     0.067 C 
HETATM    2  C3  UNL     1      22.411   1.272  52.406  1.00  0.00     0.030 C 
HETATM    3  C4  UNL     1      23.536   1.457  51.494  1.00  0.00     0.160 C 
HETATM    4  N1  UNL     1      24.307   2.602  51.770  1.00  0.00    -0.338 N 
HETATM    5  C11 UNL     1      25.049   2.217  52.992  1.00  0.00     0.211 C 
HETATM    6  N2  UNL     1      25.576   1.360  52.318  1.00  0.00    -0.237 NA
HETATM    7  C12 UNL     1      26.450   0.361  52.334  1.00  0.00     0.233 C 
HETATM    8  N3  UNL     1      26.045  -0.762  52.916  1.00  0.00    -0.254 NA
HETATM    9  C13 UNL     1      24.704  -0.679  53.437  1.00  0.00     0.120 C 
HETATM   10  C14 UNL     1      23.459  -0.512  53.828  1.00  0.00     0.055 C 
ENDROOT
BRANCH   4  11
HETATM   11  C5  UNL     1      24.535   3.885  51.240  1.00  0.00     0.037 A 
HETATM   12  C6  UNL     1      23.764   4.875  51.747  1.00  0.00     0.033 A 
HETATM   13  C7  UNL     1      23.901   6.180  51.296  1.00  0.00     0.046 A 
HETATM   14  C8  UNL     1      24.853   6.397  50.320  1.00  0.00     0.138 A 
HETATM   15  F1  UNL     1      24.977   7.688  49.884  1.00  0.00    -0.204 F 
HETATM   16  C9  UNL     1      25.631   5.363  49.814  1.00  0.00     0.074 A 
HETATM   17 CL1  UNL     1      26.809   5.725  48.573  1.00  0.00    -0.081 Cl
HETATM   18  C10 UNL     1      25.491   4.070  50.265  1.00  0.00     0.056 A 
ENDBRANCH   4  11
BRANCH   1  19
HETATM   19  O1  UNL     1      21.292   0.341  54.083  1.00  0.00    -0.356 OA
HETATM   20  C1  UNL     1      20.084  -0.247  53.632  1.00  0.00     0.210 C 
ENDBRANCH   1  19
TORSDOF 2
ENDMDL
MODEL 9
REMARK VINA RESULT:      -6.6      4.513      6.529
REMARK  2 active torsions:
REMARK  status: ('A' for Active; 'I' for Inactive)
REMARK    1  A    between atoms: O1_2  and  C2_3 
REMARK    2  A    between atoms: N1_6  and  C5_7 
ROOT
HETATM    1  C2  UNL     1      24.952   4.873  49.310  1.00  0.00     0.067 C 
HETATM    2  C3  UNL     1      25.024   3.621  49.625  1.00  0.00     0.030 C 
HETATM    3  C4  UNL     1      23.909   2.921  50.254  1.00  0.00     0.160 C 
HETATM    4  N1  UNL     1      24.081   2.705  51.635  1.00  0.00    -0.338 N 
HETATM    5  C11 UNL     1      23.875   4.053  52.211  1.00  0.00     0.211 C 
HETATM    6  N2  UNL     1      22.742   3.983  51.791  1.00  0.00    -0.237 NA
HETATM    7  C12 UNL     1      21.584   4.627  51.699  1.00  0.00     0.233 C 
HETATM    8  N3  UNL     1      21.534   5.620  50.819  1.00  0.00    -0.254 NA
HETATM    9  C13 UNL     1      22.778   5.820  50.119  1.00  0.00     0.120 C 
HETATM   10  C14 UNL     1      23.940   5.882  49.505  1.00  0.00     0.055 C 
ENDROOT
BRANCH   4  11
HETATM   11  C5  UNL     1      24.367   1.649  52.519  1.00  0.00     0.037 A 
HETATM   12  C6  UNL     1      23.372   0.749  52.700  1.00  0.00     0.033 A 
HETATM   13  C7  UNL     1      23.542  -0.332  53.552  1.00  0.00     0.046 A 
HETATM   14  C8  UNL     1      24.763  -0.429  54.188  1.00  0.00     0.138 A 
HETATM   15  F1  UNL     1      24.917  -1.499  55.026  1.00  0.00    -0.204 F 
HETATM   16  C9  UNL     1      25.769   0.509  53.987  1.00  0.00     0.074 A 
HETATM   17 CL1  UNL     1      27.284   0.315  54.839  1.00  0.00    -0.081 Cl
HETATM   18  C10 UNL     1      25.595   1.580  53.140  1.00  0.00     0.056 A 
ENDBRANCH   4  11
BRANCH   1  19
HETATM   19  O1  UNL     1      26.074   5.346  48.702  1.00  0.00    -0.356 OA
HETATM   20  C1  UNL     1      27.358   4.757  48.814  1.00  0.00     0.210 C 
ENDBRANCH   1  19
TORSDOF 2
ENDMDL
