MODEL 1
REMARK VINA RESULT:      -7.8      0.000      0.000
REMARK  9 active torsions:
REMARK  status: ('A' for Active; 'I' for Inactive)
REMARK    1  A    between atoms: N1_2  and  C3_4 
REMARK    2  A    between atoms: C3_4  and  C4_5 
REMARK    3  A    between atoms: C4_5  and  C5_7 
REMARK    4  A    between atoms: C5_7  and  C6_8 
REMARK    5  A    between atoms: C9_11  and  O2_12 
REMARK    6  A    between atoms: O2_12  and  S1_13 
REMARK    7  A    between atoms: S1_13  and  C10_16 
REMARK    8  A    between atoms: C13_19  and  C14_20 
REMARK    9  A    between atoms: C14_20  and  O6_22 
ROOT
HETATM    1  O2  UNL     1      22.782   3.963  51.304  1.00  0.00    -0.229 OA
ENDROOT
BRANCH   1   2
HETATM    2  C9  UNL     1      23.313   2.862  51.976  1.00  0.00     0.089 A 
HETATM    3  C8  UNL     1      24.486   3.081  52.661  1.00  0.00     0.039 A 
HETATM    4  C7  UNL     1      25.065   2.051  53.342  1.00  0.00     0.010 A 
HETATM    5  C6  UNL     1      24.526   0.792  53.377  1.00  0.00    -0.051 A 
HETATM    6  C18 UNL     1      23.334   0.565  52.682  1.00  0.00     0.010 A 
HETATM    7  C17 UNL     1      22.717   1.596  51.976  1.00  0.00     0.039 A 
BRANCH   5   8
HETATM    8  C5  UNL     1      25.071  -0.397  54.079  1.00  0.00     0.118 C 
BRANCH   8   9
HETATM    9  C4  UNL     1      26.536  -0.516  53.851  1.00  0.00     0.159 C 
HETATM   10  O1  UNL     1      26.446  -1.208  52.842  1.00  0.00    -0.296 OA
BRANCH   9  11
HETATM   11  C3  UNL     1      27.799  -0.069  54.462  1.00  0.00     0.349 C 
BRANCH  11  12
HETATM   12  N1  UNL     1      28.712   0.559  53.528  1.00  0.00     0.086 N 
HETATM   13  C1  UNL     1      30.009  -0.081  53.525  1.00  0.00     0.309 C 
HETATM   14  C2  UNL     1      28.756   1.985  53.675  1.00  0.00     0.309 C 
ENDBRANCH  11  12
ENDBRANCH   9  11
ENDBRANCH   8   9
ENDBRANCH   5   8
ENDBRANCH   1   2
BRANCH   1  15
HETATM   15  S1  UNL     1      22.938   4.030  49.614  1.00  0.00     0.303 S 
HETATM   16  O3  UNL     1      21.981   5.024  49.067  1.00  0.00    -0.193 OA
HETATM   17  O4  UNL     1      22.632   2.675  49.045  1.00  0.00    -0.193 OA
BRANCH  15  18
HETATM   18  C10 UNL     1      24.587   4.486  49.273  1.00  0.00     0.086 A 
HETATM   19  C11 UNL     1      25.665   3.644  49.436  1.00  0.00     0.027 A 
HETATM   20  C12 UNL     1      26.956   4.043  49.155  1.00  0.00     0.020 A 
HETATM   21  C13 UNL     1      27.156   5.322  48.699  1.00  0.00     0.037 A 
HETATM   22  C15 UNL     1      26.072   6.169  48.535  1.00  0.00     0.020 A 
HETATM   23  C16 UNL     1      24.753   5.798  48.810  1.00  0.00     0.027 A 
BRANCH  21  24
HETATM   24  C14 UNL     1      28.488   5.866  48.364  1.00  0.00     0.176 C 
HETATM   25  O5  UNL     1      28.799   6.655  47.458  1.00  0.00    -0.646 OA
BRANCH  24  26
HETATM   26  O6  UNL     1      29.545   5.434  49.175  1.00  0.00    -0.773 OA
HETATM   27  H15 UNL     1      29.370   4.770  49.945  1.00  0.00     0.167 HD
ENDBRANCH  24  26
ENDBRANCH  21  24
ENDBRANCH  15  18
ENDBRANCH   1  15
TORSDOF 9
ENDMDL
MODEL 2
REMARK VINA RESULT:      -7.6      2.955      7.380
REMARK  9 active torsions:
REMARK  status: ('A' for Active; 'I' for Inactive)
REMARK    1  A    between atoms: N1_2  and  C3_4 
REMARK    2  A    between atoms: C3_4  and  C4_5 
REMARK    3  A    between atoms: C4_5  and  C5_7 
REMARK    4  A    between atoms: C5_7  and  C6_8 
REMARK    5  A    between atoms: C9_11  and  O2_12 
REMARK    6  A    between atoms: O2_12  and  S1_13 
REMARK    7  A    between atoms: S1_13  and  C10_16 
REMARK    8  A    between atoms: C13_19  and  C14_20 
REMARK    9  A    between atoms: C14_20  and  O6_22 
ROOT
HETATM    1  O2  UNL     1      24.179   2.228  50.927  1.00  0.00    -0.229 OA
ENDROOT
BRANCH   1   2
HETATM    2  C9  UNL     1      24.985   3.171  50.287  1.00  0.00     0.089 A 
HETATM    3  C8  UNL     1      24.392   4.381  50.008  1.00  0.00     0.039 A 
HETATM    4  C7  UNL     1      25.118   5.352  49.384  1.00  0.00     0.010 A 
HETATM    5  C6  UNL     1      26.425   5.178  49.017  1.00  0.00    -0.051 A 
HETATM    6  C18 UNL     1      27.032   3.950  49.299  1.00  0.00     0.010 A 
HETATM    7  C17 UNL     1      26.318   2.936  49.936  1.00  0.00     0.039 A 
BRANCH   5   8
HETATM    8  C5  UNL     1      27.303   6.160  48.332  1.00  0.00     0.118 C 
BRANCH   8   9
HETATM    9  C4  UNL     1      26.911   7.550  48.684  1.00  0.00     0.159 C 
HETATM   10  O1  UNL     1      26.407   7.813  47.597  1.00  0.00    -0.296 OA
BRANCH   9  11
HETATM   11  C3  UNL     1      26.990   8.476  49.826  1.00  0.00     0.349 C 
BRANCH  11  12
HETATM   12  N1  UNL     1      28.035   9.473  49.703  1.00  0.00     0.086 N 
HETATM   13  C1  UNL     1      27.583  10.645  48.986  1.00  0.00     0.309 C 
HETATM   14  C2  UNL     1      29.268   8.923  49.219  1.00  0.00     0.309 C 
ENDBRANCH  11  12
ENDBRANCH   9  11
ENDBRANCH   8   9
ENDBRANCH   5   8
ENDBRANCH   1   2
BRANCH   1  15
HETATM   15  S1  UNL     1      24.338   2.039  52.608  1.00  0.00     0.303 S 
HETATM   16  O3  UNL     1      23.136   1.352  53.144  1.00  0.00    -0.193 OA
HETATM   17  O4  UNL     1      24.464   3.394  53.238  1.00  0.00    -0.193 OA
BRANCH  15  18
HETATM   18  C10 UNL     1      25.780   1.094  52.878  1.00  0.00     0.086 A 
HETATM   19  C11 UNL     1      26.961   1.617  53.354  1.00  0.00     0.027 A 
HETATM   20  C12 UNL     1      28.081   0.835  53.556  1.00  0.00     0.020 A 
HETATM   21  C13 UNL     1      27.999  -0.503  53.268  1.00  0.00     0.037 A 
HETATM   22  C15 UNL     1      26.810  -1.031  52.789  1.00  0.00     0.020 A 
HETATM   23  C16 UNL     1      25.659  -0.268  52.573  1.00  0.00     0.027 A 
BRANCH  21  24
HETATM   24  C14 UNL     1      29.126  -1.443  53.441  1.00  0.00     0.176 C 
HETATM   25  O5  UNL     1      30.294  -1.199  53.781  1.00  0.00    -0.646 OA
BRANCH  24  26
HETATM   26  O6  UNL     1      28.841  -2.790  53.186  1.00  0.00    -0.773 OA
HETATM   27  H15 UNL     1      28.156  -3.294  53.770  1.00  0.00     0.167 HD
ENDBRANCH  24  26
ENDBRANCH  21  24
ENDBRANCH  15  18
ENDBRANCH   1  15
TORSDOF 9
ENDMDL
MODEL 3
REMARK VINA RESULT:      -7.5      2.575      3.475
REMARK  9 active torsions:
REMARK  status: ('A' for Active; 'I' for Inactive)
REMARK    1  A    between atoms: N1_2  and  C3_4 
REMARK    2  A    between atoms: C3_4  and  C4_5 
REMARK    3  A    between atoms: C4_5  and  C5_7 
REMARK    4  A    between atoms: C5_7  and  C6_8 
REMARK    5  A    between atoms: C9_11  and  O2_12 
REMARK    6  A    between atoms: O2_12  and  S1_13 
REMARK    7  A    between atoms: S1_13  and  C10_16 
REMARK    8  A    between atoms: C13_19  and  C14_20 
REMARK    9  A    between atoms: C14_20  and  O6_22 
ROOT
HETATM    1  O2  UNL     1      20.098   1.094  51.812  1.00  0.00    -0.229 OA
ENDROOT
BRANCH   1   2
HETATM    2  C9  UNL     1      21.012   0.432  52.633  1.00  0.00     0.089 A 
HETATM    3  C8  UNL     1      20.804   0.554  53.988  1.00  0.00     0.039 A 
HETATM    4  C7  UNL     1      21.656  -0.066  54.853  1.00  0.00     0.010 A 
HETATM    5  C6  UNL     1      22.723  -0.813  54.432  1.00  0.00    -0.051 A 
HETATM    6  C18 UNL     1      22.939  -0.940  53.056  1.00  0.00     0.010 A 
HETATM    7  C17 UNL     1      22.086  -0.319  52.145  1.00  0.00     0.039 A 
BRANCH   5   8
HETATM    8  C5  UNL     1      23.712  -1.523  55.282  1.00  0.00     0.118 C 
BRANCH   8   9
HETATM    9  C4  UNL     1      25.010  -0.797  55.295  1.00  0.00     0.159 C 
HETATM   10  O1  UNL     1      25.358  -1.190  56.404  1.00  0.00    -0.296 OA
BRANCH   9  11
HETATM   11  C3  UNL     1      25.792   0.105  54.434  1.00  0.00     0.349 C 
BRANCH  11  12
HETATM   12  N1  UNL     1      26.803  -0.568  53.643  1.00  0.00     0.086 N 
HETATM   13  C1  UNL     1      28.142  -0.215  54.062  1.00  0.00     0.309 C 
HETATM   14  C2  UNL     1      26.572  -0.445  52.233  1.00  0.00     0.309 C 
ENDBRANCH  11  12
ENDBRANCH   9  11
ENDBRANCH   8   9
ENDBRANCH   5   8
ENDBRANCH   1   2
BRANCH   1  15
HETATM   15  S1  UNL     1      20.415   2.708  51.388  1.00  0.00     0.303 S 
HETATM   16  O3  UNL     1      19.880   3.610  52.438  1.00  0.00    -0.193 OA
HETATM   17  O4  UNL     1      19.742   3.006  50.081  1.00  0.00    -0.193 OA
BRANCH  15  18
HETATM   18  C10 UNL     1      22.146   2.864  51.242  1.00  0.00     0.086 A 
HETATM   19  C11 UNL     1      22.977   3.200  52.287  1.00  0.00     0.027 A 
HETATM   20  C12 UNL     1      24.344   3.313  52.130  1.00  0.00     0.020 A 
HETATM   21  C13 UNL     1      24.877   3.082  50.888  1.00  0.00     0.037 A 
HETATM   22  C15 UNL     1      24.041   2.744  49.835  1.00  0.00     0.020 A 
HETATM   23  C16 UNL     1      22.655   2.621  49.959  1.00  0.00     0.027 A 
BRANCH  21  24
HETATM   24  C14 UNL     1      26.322   3.172  50.593  1.00  0.00     0.176 C 
HETATM   25  O5  UNL     1      26.881   3.395  49.508  1.00  0.00    -0.646 OA
BRANCH  24  26
HETATM   26  O6  UNL     1      27.179   2.978  51.684  1.00  0.00    -0.773 OA
HETATM   27  H15 UNL     1      27.821   3.729  51.978  1.00  0.00     0.167 HD
ENDBRANCH  24  26
ENDBRANCH  21  24
ENDBRANCH  15  18
ENDBRANCH   1  15
TORSDOF 9
ENDMDL
MODEL 4
REMARK VINA RESULT:      -7.4      1.938      2.418
REMARK  9 active torsions:
REMARK  status: ('A' for Active; 'I' for Inactive)
REMARK    1  A    between atoms: N1_2  and  C3_4 
REMARK    2  A    between atoms: C3_4  and  C4_5 
REMARK    3  A    between atoms: C4_5  and  C5_7 
REMARK    4  A    between atoms: C5_7  and  C6_8 
REMARK    5  A    between atoms: C9_11  and  O2_12 
REMARK    6  A    between atoms: O2_12  and  S1_13 
REMARK    7  A    between atoms: S1_13  and  C10_16 
REMARK    8  A    between atoms: C13_19  and  C14_20 
REMARK    9  A    between atoms: C14_20  and  O6_22 
ROOT
HETATM    1  O2  UNL     1      22.612   4.178  50.914  1.00  0.00    -0.229 OA
ENDROOT
BRANCH   1   2
HETATM    2  C9  UNL     1      23.092   3.071  51.615  1.00  0.00     0.089 A 
HETATM    3  C8  UNL     1      24.114   3.315  52.503  1.00  0.00     0.039 A 
HETATM    4  C7  UNL     1      24.634   2.281  53.224  1.00  0.00     0.010 A 
HETATM    5  C6  UNL     1      24.180   0.995  53.106  1.00  0.00    -0.051 A 
HETATM    6  C18 UNL     1      23.140   0.742  52.205  1.00  0.00     0.010 A 
HETATM    7  C17 UNL     1      22.587   1.777  51.453  1.00  0.00     0.039 A 
BRANCH   5   8
HETATM    8  C5  UNL     1      24.673  -0.201  53.834  1.00  0.00     0.118 C 
BRANCH   8   9
HETATM    9  C4  UNL     1      26.157  -0.184  53.929  1.00  0.00     0.159 C 
HETATM   10  O1  UNL     1      26.210  -0.606  55.079  1.00  0.00    -0.296 OA
BRANCH   9  11
HETATM   11  C3  UNL     1      27.322   0.164  53.099  1.00  0.00     0.349 C 
BRANCH  11  12
HETATM   12  N1  UNL     1      28.355   0.891  53.813  1.00  0.00     0.086 N 
HETATM   13  C1  UNL     1      28.394   2.286  53.437  1.00  0.00     0.309 C 
HETATM   14  C2  UNL     1      29.626   0.229  53.765  1.00  0.00     0.309 C 
ENDBRANCH  11  12
ENDBRANCH   9  11
ENDBRANCH   8   9
ENDBRANCH   5   8
ENDBRANCH   1   2
BRANCH   1  15
HETATM   15  S1  UNL     1      23.329   4.562  49.423  1.00  0.00     0.303 S 
HETATM   16  O3  UNL     1      22.272   4.748  48.398  1.00  0.00    -0.193 OA
HETATM   17  O4  UNL     1      24.230   3.435  49.014  1.00  0.00    -0.193 OA
BRANCH  15  18
HETATM   18  C10 UNL     1      24.244   6.029  49.662  1.00  0.00     0.086 A 
HETATM   19  C11 UNL     1      23.719   7.181  50.205  1.00  0.00     0.027 A 
HETATM   20  C12 UNL     1      24.477   8.321  50.378  1.00  0.00     0.020 A 
HETATM   21  C13 UNL     1      25.792   8.292  49.992  1.00  0.00     0.037 A 
HETATM   22  C15 UNL     1      26.322   7.133  49.446  1.00  0.00     0.020 A 
HETATM   23  C16 UNL     1      25.583   5.962  49.256  1.00  0.00     0.027 A 
BRANCH  21  24
HETATM   24  C14 UNL     1      26.705   9.446  50.125  1.00  0.00     0.176 C 
HETATM   25  O5  UNL     1      26.780  10.462  49.417  1.00  0.00    -0.646 OA
BRANCH  24  26
HETATM   26  O6  UNL     1      27.608   9.388  51.194  1.00  0.00    -0.773 OA
HETATM   27  H15 UNL     1      28.599   9.634  51.049  1.00  0.00     0.167 HD
ENDBRANCH  24  26
ENDBRANCH  21  24
ENDBRANCH  15  18
ENDBRANCH   1  15
TORSDOF 9
ENDMDL
MODEL 5
REMARK VINA RESULT:      -7.4      3.031      6.661
REMARK  9 active torsions:
REMARK  status: ('A' for Active; 'I' for Inactive)
REMARK    1  A    between atoms: N1_2  and  C3_4 
REMARK    2  A    between atoms: C3_4  and  C4_5 
REMARK    3  A    between atoms: C4_5  and  C5_7 
REMARK    4  A    between atoms: C5_7  and  C6_8 
REMARK    5  A    between atoms: C9_11  and  O2_12 
REMARK    6  A    between atoms: O2_12  and  S1_13 
REMARK    7  A    between atoms: S1_13  and  C10_16 
REMARK    8  A    between atoms: C13_19  and  C14_20 
REMARK    9  A    between atoms: C14_20  and  O6_22 
ROOT
HETATM    1  O2  UNL     1      22.696   0.901  53.709  1.00  0.00    -0.229 OA
ENDROOT
BRANCH   1   2
HETATM    2  C9  UNL     1      23.124   1.611  52.587  1.00  0.00     0.089 A 
HETATM    3  C8  UNL     1      24.031   2.619  52.819  1.00  0.00     0.039 A 
HETATM    4  C7  UNL     1      24.495   3.356  51.770  1.00  0.00     0.010 A 
HETATM    5  C6  UNL     1      24.096   3.137  50.479  1.00  0.00    -0.051 A 
HETATM    6  C18 UNL     1      23.174   2.113  50.237  1.00  0.00     0.010 A 
HETATM    7  C17 UNL     1      22.680   1.341  51.288  1.00  0.00     0.039 A 
BRANCH   5   8
HETATM    8  C5  UNL     1      24.530   3.878  49.268  1.00  0.00     0.118 C 
BRANCH   8   9
HETATM    9  C4  UNL     1      25.503   4.944  49.625  1.00  0.00     0.159 C 
HETATM   10  O1  UNL     1      26.506   4.278  49.389  1.00  0.00    -0.296 OA
BRANCH   9  11
HETATM   11  C3  UNL     1      25.505   6.336  50.103  1.00  0.00     0.349 C 
BRANCH  11  12
HETATM   12  N1  UNL     1      26.341   7.225  49.319  1.00  0.00     0.086 N 
HETATM   13  C1  UNL     1      26.647   8.447  50.029  1.00  0.00     0.309 C 
HETATM   14  C2  UNL     1      25.841   7.421  47.990  1.00  0.00     0.309 C 
ENDBRANCH  11  12
ENDBRANCH   9  11
ENDBRANCH   8   9
ENDBRANCH   5   8
ENDBRANCH   1   2
BRANCH   1  15
HETATM   15  S1  UNL     1      23.326  -0.654  53.970  1.00  0.00     0.303 S 
HETATM   16  O3  UNL     1      22.756  -1.594  52.972  1.00  0.00    -0.193 OA
HETATM   17  O4  UNL     1      22.952  -1.104  55.351  1.00  0.00    -0.193 OA
BRANCH  15  18
HETATM   18  C10 UNL     1      25.059  -0.535  53.807  1.00  0.00     0.086 A 
HETATM   19  C11 UNL     1      25.752  -0.918  52.680  1.00  0.00     0.027 A 
HETATM   20  C12 UNL     1      27.125  -0.806  52.590  1.00  0.00     0.020 A 
HETATM   21  C13 UNL     1      27.807  -0.296  53.665  1.00  0.00     0.037 A 
HETATM   22  C15 UNL     1      27.111   0.090  54.799  1.00  0.00     0.020 A 
HETATM   23  C16 UNL     1      25.722  -0.009  54.924  1.00  0.00     0.027 A 
BRANCH  21  24
HETATM   24  C14 UNL     1      29.275  -0.127  53.691  1.00  0.00     0.176 C 
HETATM   25  O5  UNL     1      30.156  -1.000  53.716  1.00  0.00    -0.646 OA
BRANCH  24  26
HETATM   26  O6  UNL     1      29.736   1.196  53.687  1.00  0.00    -0.773 OA
HETATM   27  H15 UNL     1      30.557   1.460  54.252  1.00  0.00     0.167 HD
ENDBRANCH  24  26
ENDBRANCH  21  24
ENDBRANCH  15  18
ENDBRANCH   1  15
TORSDOF 9
ENDMDL
MODEL 6
REMARK VINA RESULT:      -7.4      3.085      7.601
REMARK  9 active torsions:
REMARK  status: ('A' for Active; 'I' for Inactive)
REMARK    1  A    between atoms: N1_2  and  C3_4 
REMARK    2  A    between atoms: C3_4  and  C4_5 
REMARK    3  A    between atoms: C4_5  and  C5_7 
REMARK    4  A    between atoms: C5_7  and  C6_8 
REMARK    5  A    between atoms: C9_11  and  O2_12 
REMARK    6  A    between atoms: O2_12  and  S1_13 
REMARK    7  A    between atoms: S1_13  and  C10_16 
REMARK    8  A    between atoms: C13_19  and  C14_20 
REMARK    9  A    between atoms: C14_20  and  O6_22 
ROOT
HETATM    1  O2  UNL     1      24.151   2.191  50.923  1.00  0.00    -0.229 OA
ENDROOT
BRANCH   1   2
HETATM    2  C9  UNL     1      24.949   3.146  50.293  1.00  0.00     0.089 A 
HETATM    3  C8  UNL     1      24.343   4.348  50.009  1.00  0.00     0.039 A 
HETATM    4  C7  UNL     1      25.061   5.330  49.394  1.00  0.00     0.010 A 
HETATM    5  C6  UNL     1      26.375   5.175  49.041  1.00  0.00    -0.051 A 
HETATM    6  C18 UNL     1      26.996   3.955  49.327  1.00  0.00     0.010 A 
HETATM    7  C17 UNL     1      26.289   2.930  49.956  1.00  0.00     0.039 A 
BRANCH   5   8
HETATM    8  C5  UNL     1      27.246   6.170  48.366  1.00  0.00     0.118 C 
BRANCH   8   9
HETATM    9  C4  UNL     1      26.617   7.517  48.384  1.00  0.00     0.159 C 
HETATM   10  O1  UNL     1      27.284   7.951  49.318  1.00  0.00    -0.296 OA
BRANCH   9  11
HETATM   11  C3  UNL     1      25.578   8.271  47.664  1.00  0.00     0.349 C 
BRANCH  11  12
HETATM   12  N1  UNL     1      24.902   9.264  48.477  1.00  0.00     0.086 N 
HETATM   13  C1  UNL     1      23.526   8.905  48.738  1.00  0.00     0.309 C 
HETATM   14  C2  UNL     1      25.083  10.597  47.981  1.00  0.00     0.309 C 
ENDBRANCH  11  12
ENDBRANCH   9  11
ENDBRANCH   8   9
ENDBRANCH   5   8
ENDBRANCH   1   2
BRANCH   1  15
HETATM   15  S1  UNL     1      24.333   1.963  52.596  1.00  0.00     0.303 S 
HETATM   16  O3  UNL     1      23.094   1.366  53.153  1.00  0.00    -0.193 OA
HETATM   17  O4  UNL     1      24.582   3.294  53.243  1.00  0.00    -0.193 OA
BRANCH  15  18
HETATM   18  C10 UNL     1      25.701   0.903  52.818  1.00  0.00     0.086 A 
HETATM   19  C11 UNL     1      25.681  -0.445  52.536  1.00  0.00     0.027 A 
HETATM   20  C12 UNL     1      26.787  -1.250  52.724  1.00  0.00     0.020 A 
HETATM   21  C13 UNL     1      27.933  -0.676  53.210  1.00  0.00     0.037 A 
HETATM   22  C15 UNL     1      27.955   0.680  53.494  1.00  0.00     0.020 A 
HETATM   23  C16 UNL     1      26.855   1.524  53.315  1.00  0.00     0.027 A 
BRANCH  21  24
HETATM   24  C14 UNL     1      29.180  -1.430  53.454  1.00  0.00     0.176 C 
HETATM   25  O5  UNL     1      30.304  -0.997  53.753  1.00  0.00    -0.646 OA
BRANCH  24  26
HETATM   26  O6  UNL     1      29.084  -2.823  53.330  1.00  0.00    -0.773 OA
HETATM   27  H15 UNL     1      28.475  -3.238  52.609  1.00  0.00     0.167 HD
ENDBRANCH  24  26
ENDBRANCH  21  24
ENDBRANCH  15  18
ENDBRANCH   1  15
TORSDOF 9
ENDMDL
MODEL 7
REMARK VINA RESULT:      -7.3      2.753      7.169
REMARK  9 active torsions:
REMARK  status: ('A' for Active; 'I' for Inactive)
REMARK    1  A    between atoms: N1_2  and  C3_4 
REMARK    2  A    between atoms: C3_4  and  C4_5 
REMARK    3  A    between atoms: C4_5  and  C5_7 
REMARK    4  A    between atoms: C5_7  and  C6_8 
REMARK    5  A    between atoms: C9_11  and  O2_12 
REMARK    6  A    between atoms: O2_12  and  S1_13 
REMARK    7  A    between atoms: S1_13  and  C10_16 
REMARK    8  A    between atoms: C13_19  and  C14_20 
REMARK    9  A    between atoms: C14_20  and  O6_22 
ROOT
HETATM    1  O2  UNL     1      24.061   2.073  50.861  1.00  0.00    -0.229 OA
ENDROOT
BRANCH   1   2
HETATM    2  C9  UNL     1      24.527   3.222  50.221  1.00  0.00     0.089 A 
HETATM    3  C8  UNL     1      25.872   3.248  49.932  1.00  0.00     0.039 A 
HETATM    4  C7  UNL     1      26.401   4.339  49.307  1.00  0.00     0.010 A 
HETATM    5  C6  UNL     1      25.646   5.423  48.947  1.00  0.00    -0.051 A 
HETATM    6  C18 UNL     1      24.278   5.401  49.239  1.00  0.00     0.010 A 
HETATM    7  C17 UNL     1      23.707   4.301  49.877  1.00  0.00     0.039 A 
BRANCH   5   8
HETATM    8  C5  UNL     1      26.115   6.658  48.271  1.00  0.00     0.118 C 
BRANCH   8   9
HETATM    9  C4  UNL     1      27.563   6.880  48.528  1.00  0.00     0.159 C 
HETATM   10  O1  UNL     1      27.405   7.749  49.378  1.00  0.00    -0.296 OA
BRANCH   9  11
HETATM   11  C3  UNL     1      28.867   6.376  48.065  1.00  0.00     0.349 C 
BRANCH  11  12
HETATM   12  N1  UNL     1      29.704   7.389  47.453  1.00  0.00     0.086 N 
HETATM   13  C1  UNL     1      29.122   7.911  46.237  1.00  0.00     0.309 C 
HETATM   14  C2  UNL     1      31.069   6.969  47.322  1.00  0.00     0.309 C 
ENDBRANCH  11  12
ENDBRANCH   9  11
ENDBRANCH   8   9
ENDBRANCH   5   8
ENDBRANCH   1   2
BRANCH   1  15
HETATM   15  S1  UNL     1      24.277   1.940  52.540  1.00  0.00     0.303 S 
HETATM   16  O3  UNL     1      23.042   1.393  53.156  1.00  0.00    -0.193 OA
HETATM   17  O4  UNL     1      24.556   3.302  53.102  1.00  0.00    -0.193 OA
BRANCH  15  18
HETATM   18  C10 UNL     1      25.636   0.876  52.795  1.00  0.00     0.086 A 
HETATM   19  C11 UNL     1      25.541  -0.498  52.817  1.00  0.00     0.027 A 
HETATM   20  C12 UNL     1      26.642  -1.306  53.021  1.00  0.00     0.020 A 
HETATM   21  C13 UNL     1      27.862  -0.707  53.206  1.00  0.00     0.037 A 
HETATM   22  C15 UNL     1      27.958   0.675  53.183  1.00  0.00     0.020 A 
HETATM   23  C16 UNL     1      26.865   1.522  52.980  1.00  0.00     0.027 A 
BRANCH  21  24
HETATM   24  C14 UNL     1      29.111  -1.461  53.433  1.00  0.00     0.176 C 
HETATM   25  O5  UNL     1      30.229  -1.032  53.762  1.00  0.00    -0.646 OA
BRANCH  24  26
HETATM   26  O6  UNL     1      29.028  -2.848  53.253  1.00  0.00    -0.773 OA
HETATM   27  H15 UNL     1      29.118  -3.254  52.310  1.00  0.00     0.167 HD
ENDBRANCH  24  26
ENDBRANCH  21  24
ENDBRANCH  15  18
ENDBRANCH   1  15
TORSDOF 9
ENDMDL
MODEL 8
REMARK VINA RESULT:      -7.2      3.391      6.956
REMARK  9 active torsions:
REMARK  status: ('A' for Active; 'I' for Inactive)
REMARK    1  A    between atoms: N1_2  and  C3_4 
REMARK    2  A    between atoms: C3_4  and  C4_5 
REMARK    3  A    between atoms: C4_5  and  C5_7 
REMARK    4  A    between atoms: C5_7  and  C6_8 
REMARK    5  A    between atoms: C9_11  and  O2_12 
REMARK    6  A    between atoms: O2_12  and  S1_13 
REMARK    7  A    between atoms: S1_13  and  C10_16 
REMARK    8  A    between atoms: C13_19  and  C14_20 
REMARK    9  A    between atoms: C14_20  and  O6_22 
ROOT
HETATM    1  O2  UNL     1      22.632   0.840  53.715  1.00  0.00    -0.229 OA
ENDROOT
BRANCH   1   2
HETATM    2  C9  UNL     1      23.077   1.567  52.611  1.00  0.00     0.089 A 
HETATM    3  C8  UNL     1      22.476   1.269  51.410  1.00  0.00     0.039 A 
HETATM    4  C7  UNL     1      22.859   1.940  50.286  1.00  0.00     0.010 A 
HETATM    5  C6  UNL     1      23.827   2.908  50.297  1.00  0.00    -0.051 A 
HETATM    6  C18 UNL     1      24.442   3.214  51.515  1.00  0.00     0.010 A 
HETATM    7  C17 UNL     1      24.072   2.547  52.682  1.00  0.00     0.039 A 
BRANCH   5   8
HETATM    8  C5  UNL     1      24.324   3.693  49.139  1.00  0.00     0.118 C 
BRANCH   8   9
HETATM    9  C4  UNL     1      23.331   4.727  48.741  1.00  0.00     0.159 C 
HETATM   10  O1  UNL     1      22.782   4.044  47.883  1.00  0.00    -0.296 OA
BRANCH   9  11
HETATM   11  C3  UNL     1      22.957   6.107  49.092  1.00  0.00     0.349 C 
BRANCH  11  12
HETATM   12  N1  UNL     1      23.061   6.402  50.507  1.00  0.00     0.086 N 
HETATM   13  C1  UNL     1      21.878   5.996  51.234  1.00  0.00     0.309 C 
HETATM   14  C2  UNL     1      23.478   7.750  50.759  1.00  0.00     0.309 C 
ENDBRANCH  11  12
ENDBRANCH   9  11
ENDBRANCH   8   9
ENDBRANCH   5   8
ENDBRANCH   1   2
BRANCH   1  15
HETATM   15  S1  UNL     1      23.291  -0.702  53.986  1.00  0.00     0.303 S 
HETATM   16  O3  UNL     1      22.728  -1.661  53.003  1.00  0.00    -0.193 OA
HETATM   17  O4  UNL     1      22.936  -1.143  55.376  1.00  0.00    -0.193 OA
BRANCH  15  18
HETATM   18  C10 UNL     1      25.020  -0.554  53.807  1.00  0.00     0.086 A 
HETATM   19  C11 UNL     1      25.703  -0.880  52.656  1.00  0.00     0.027 A 
HETATM   20  C12 UNL     1      27.073  -0.747  52.554  1.00  0.00     0.020 A 
HETATM   21  C13 UNL     1      27.763  -0.276  53.641  1.00  0.00     0.037 A 
HETATM   22  C15 UNL     1      27.077   0.052  54.800  1.00  0.00     0.020 A 
HETATM   23  C16 UNL     1      25.692  -0.069  54.937  1.00  0.00     0.027 A 
BRANCH  21  24
HETATM   24  C14 UNL     1      29.229  -0.090  53.656  1.00  0.00     0.176 C 
HETATM   25  O5  UNL     1      30.119  -0.946  53.780  1.00  0.00    -0.646 OA
BRANCH  24  26
HETATM   26  O6  UNL     1      29.677   1.229  53.511  1.00  0.00    -0.773 OA
HETATM   27  H15 UNL     1      29.764   1.840  54.337  1.00  0.00     0.167 HD
ENDBRANCH  24  26
ENDBRANCH  21  24
ENDBRANCH  15  18
ENDBRANCH   1  15
TORSDOF 9
ENDMDL
MODEL 9
REMARK VINA RESULT:      -7.1      3.435      8.011
REMARK  9 active torsions:
REMARK  status: ('A' for Active; 'I' for Inactive)
REMARK    1  A    between atoms: N1_2  and  C3_4 
REMARK    2  A    between atoms: C3_4  and  C4_5 
REMARK    3  A    between atoms: C4_5  and  C5_7 
REMARK    4  A    between atoms: C5_7  and  C6_8 
REMARK    5  A    between atoms: C9_11  and  O2_12 
REMARK    6  A    between atoms: O2_12  and  S1_13 
REMARK    7  A    between atoms: S1_13  and  C10_16 
REMARK    8  A    between atoms: C13_19  and  C14_20 
REMARK    9  A    between atoms: C14_20  and  O6_22 
ROOT
HETATM    1  O2  UNL     1      25.709   1.125  54.232  1.00  0.00    -0.229 OA
ENDROOT
BRANCH   1   2
HETATM    2  C9  UNL     1      25.606   1.832  53.034  1.00  0.00     0.089 A 
HETATM    3  C8  UNL     1      26.567   1.562  52.088  1.00  0.00     0.039 A 
HETATM    4  C7  UNL     1      26.530   2.215  50.891  1.00  0.00     0.010 A 
HETATM    5  C6  UNL     1      25.568   3.139  50.582  1.00  0.00    -0.051 A 
HETATM    6  C18 UNL     1      24.588   3.417  51.541  1.00  0.00     0.010 A 
HETATM    7  C17 UNL     1      24.598   2.767  52.774  1.00  0.00     0.039 A 
BRANCH   5   8
HETATM    8  C5  UNL     1      25.436   3.909  49.320  1.00  0.00     0.118 C 
BRANCH   8   9
HETATM    9  C4  UNL     1      25.997   5.277  49.478  1.00  0.00     0.159 C 
HETATM   10  O1  UNL     1      27.062   5.037  48.918  1.00  0.00    -0.296 OA
BRANCH   9  11
HETATM   11  C3  UNL     1      25.615   6.579  50.049  1.00  0.00     0.349 C 
BRANCH  11  12
HETATM   12  N1  UNL     1      24.336   7.074  49.579  1.00  0.00     0.086 N 
HETATM   13  C1  UNL     1      24.391   7.489  48.195  1.00  0.00     0.309 C 
HETATM   14  C2  UNL     1      23.762   8.044  50.466  1.00  0.00     0.309 C 
ENDBRANCH  11  12
ENDBRANCH   9  11
ENDBRANCH   8   9
ENDBRANCH   5   8
ENDBRANCH   1   2
BRANCH   1  15
HETATM   15  S1  UNL     1      25.249  -0.509  54.247  1.00  0.00     0.303 S 
HETATM   16  O3  UNL     1      25.608  -1.113  55.555  1.00  0.00    -0.193 OA
HETATM   17  O4  UNL     1      25.974  -1.228  53.148  1.00  0.00    -0.193 OA
BRANCH  15  18
HETATM   18  C10 UNL     1      23.525  -0.554  53.982  1.00  0.00     0.086 A 
HETATM   19  C11 UNL     1      22.612  -0.949  54.934  1.00  0.00     0.027 A 
HETATM   20  C12 UNL     1      21.254  -0.970  54.685  1.00  0.00     0.020 A 
HETATM   21  C13 UNL     1      20.816  -0.582  53.444  1.00  0.00     0.037 A 
HETATM   22  C15 UNL     1      21.734  -0.183  52.486  1.00  0.00     0.020 A 
HETATM   23  C16 UNL     1      23.114  -0.151  52.704  1.00  0.00     0.027 A 
BRANCH  21  24
HETATM   24  C14 UNL     1      19.390  -0.560  53.056  1.00  0.00     0.176 C 
HETATM   25  O5  UNL     1      18.886  -0.225  51.973  1.00  0.00    -0.646 OA
BRANCH  24  26
HETATM   26  O6  UNL     1      18.484  -0.971  54.042  1.00  0.00    -0.773 OA
HETATM   27  H15 UNL     1      18.627  -1.863  54.538  1.00  0.00     0.167 HD
ENDBRANCH  24  26
ENDBRANCH  21  24
ENDBRANCH  15  18
ENDBRANCH   1  15
TORSDOF 9
ENDMDL
