MODEL 1
REMARK VINA RESULT:      -8.8      0.000      0.000
REMARK  6 active torsions:
REMARK  status: ('A' for Active; 'I' for Inactive)
REMARK    1  A    between atoms: C2_2  and  C3_3 
REMARK    2  A    between atoms: C4_4  and  C5_5 
REMARK    3  A    between atoms: C10_10  and  N1_11 
REMARK    4  A    between atoms: N1_11  and  C11_12 
REMARK    5  A    between atoms: C13_14  and  N2_15 
REMARK    6  A    between atoms: C15_17  and  O1_18 
ROOT
HETATM    1  C5  UNL     1      31.016   5.756  47.979  1.00  0.00     0.009 C 
HETATM    2  C6  UNL     1      29.867   6.227  48.410  1.00  0.00    -0.041 C 
HETATM    3  C7  UNL     1      28.719   5.359  48.247  1.00  0.00     0.010 C 
HETATM    4  C8  UNL     1      27.419   5.366  48.502  1.00  0.00     0.015 C 
HETATM    5  C9  UNL     1      26.496   6.336  49.112  1.00  0.00     0.006 A 
HETATM    6  C10 UNL     1      25.465   5.581  49.568  1.00  0.00     0.041 A 
HETATM    7  C19 UNL     1      24.469   6.323  50.144  1.00  0.00     0.030 A 
HETATM    8  C20 UNL     1      24.517   7.692  50.247  1.00  0.00     0.003 A 
HETATM    9  C21 UNL     1      25.582   8.428  49.775  1.00  0.00     0.018 A 
HETATM   10  C22 UNL     1      26.608   7.727  49.187  1.00  0.00     0.044 A 
HETATM   11  C23 UNL     1      27.621   8.729  48.784  1.00  0.00     0.252 C 
HETATM   12  O3  UNL     1      27.117   9.867  48.635  1.00  0.00    -0.268 OA
HETATM   13  N3  UNL     1      29.035   8.536  48.560  1.00  0.00    -0.353 N 
HETATM   14  C24 UNL     1      30.024   7.565  48.971  1.00  0.00     0.161 C 
HETATM   15  H29 UNL     1      29.341   9.347  47.938  1.00  0.00     0.163 HD
ENDROOT
BRANCH   6  16
HETATM   16  N1  UNL     1      25.372   4.183  49.558  1.00  0.00    -0.363 N 
HETATM   17  H9  UNL     1      25.264   3.483  48.808  1.00  0.00     0.162 HD
BRANCH  16  18
HETATM   18  C11 UNL     1      25.450   3.380  50.762  1.00  0.00     0.223 C 
HETATM   19  C12 UNL     1      26.781   2.693  50.873  1.00  0.00     0.091 C 
HETATM   20  C13 UNL     1      26.780   1.764  52.069  1.00  0.00     0.255 C 
HETATM   21  C15 UNL     1      25.511   0.993  52.085  1.00  0.00     0.182 C 
HETATM   22  C17 UNL     1      24.278   1.848  51.954  1.00  0.00     0.151 C 
HETATM   23  C18 UNL     1      23.962   2.754  53.077  1.00  0.00     0.042 C 
HETATM   24  O2  UNL     1      24.366   2.493  50.734  1.00  0.00    -0.359 OA
BRANCH  20  25
HETATM   25  N2  UNL     1      27.097   2.471  53.278  1.00  0.00     0.086 N 
HETATM   26  C14 UNL     1      28.514   2.371  53.613  1.00  0.00     0.307 C 
HETATM   27  H14 UNL     1      26.935   3.486  53.095  1.00  0.00     0.316 HD
ENDBRANCH  20  25
BRANCH  21  28
HETATM   28  O1  UNL     1      25.425  -0.038  52.965  1.00  0.00    -0.386 OA
HETATM   29  C16 UNL     1      26.319  -1.056  52.829  1.00  0.00     0.202 C 
ENDBRANCH  21  28
ENDBRANCH  16  18
ENDBRANCH   6  16
BRANCH   1  30
HETATM   30  C4  UNL     1      31.694   4.642  47.354  1.00  0.00     0.001 C 
HETATM   31  C3  UNL     1      32.663   3.783  47.453  1.00  0.00    -0.001 C 
BRANCH  31  32
HETATM   32  C2  UNL     1      32.892   2.798  46.422  1.00  0.00    -0.010 C 
HETATM   33  C1  UNL     1      32.540   1.636  46.933  1.00  0.00     0.011 C 
ENDBRANCH  31  32
ENDBRANCH   1  30
TORSDOF 6
ENDMDL
MODEL 2
REMARK VINA RESULT:      -8.6      4.247      8.191
REMARK  6 active torsions:
REMARK  status: ('A' for Active; 'I' for Inactive)
REMARK    1  A    between atoms: C2_2  and  C3_3 
REMARK    2  A    between atoms: C4_4  and  C5_5 
REMARK    3  A    between atoms: C10_10  and  N1_11 
REMARK    4  A    between atoms: N1_11  and  C11_12 
REMARK    5  A    between atoms: C13_14  and  N2_15 
REMARK    6  A    between atoms: C15_17  and  O1_18 
ROOT
HETATM    1  C5  UNL     1      26.464   2.357  50.691  1.00  0.00     0.009 C 
HETATM    2  C6  UNL     1      25.653   1.668  51.464  1.00  0.00    -0.041 C 
HETATM    3  C7  UNL     1      24.441   2.341  51.880  1.00  0.00     0.010 C 
HETATM    4  C8  UNL     1      23.366   2.095  52.614  1.00  0.00     0.015 C 
HETATM    5  C9  UNL     1      22.893   0.939  53.391  1.00  0.00     0.006 A 
HETATM    6  C10 UNL     1      21.547   1.099  53.449  1.00  0.00     0.041 A 
HETATM    7  C19 UNL     1      20.921   0.123  54.178  1.00  0.00     0.030 A 
HETATM    8  C20 UNL     1      21.594  -0.910  54.783  1.00  0.00     0.003 A 
HETATM    9  C21 UNL     1      22.963  -1.043  54.701  1.00  0.00     0.018 A 
HETATM   10  C22 UNL     1      23.638  -0.087  53.980  1.00  0.00     0.044 A 
HETATM   11  C23 UNL     1      25.070  -0.458  54.029  1.00  0.00     0.252 C 
HETATM   12  O3  UNL     1      25.330  -1.175  55.024  1.00  0.00    -0.268 OA
HETATM   13  N3  UNL     1      26.123  -0.100  53.108  1.00  0.00    -0.353 N 
HETATM   14  C24 UNL     1      26.189   0.336  51.731  1.00  0.00     0.161 C 
HETATM   15  H29 UNL     1      27.033  -0.214  53.653  1.00  0.00     0.163 HD
ENDROOT
BRANCH   6  16
HETATM   16  N1  UNL     1      20.783   2.084  52.808  1.00  0.00    -0.363 N 
HETATM   17  H9  UNL     1      20.575   3.072  53.021  1.00  0.00     0.162 HD
BRANCH  16  18
HETATM   18  C11 UNL     1      20.090   1.853  51.557  1.00  0.00     0.223 C 
HETATM   19  C12 UNL     1      20.591   2.771  50.479  1.00  0.00     0.091 C 
HETATM   20  C13 UNL     1      19.758   2.593  49.226  1.00  0.00     0.255 C 
HETATM   21  C15 UNL     1      18.322   2.554  49.600  1.00  0.00     0.182 C 
HETATM   22  C17 UNL     1      18.006   1.580  50.705  1.00  0.00     0.151 C 
HETATM   23  C18 UNL     1      18.163   0.143  50.404  1.00  0.00     0.042 C 
HETATM   24  O2  UNL     1      18.720   1.992  51.816  1.00  0.00    -0.359 OA
BRANCH  20  25
HETATM   25  N2  UNL     1      20.231   1.489  48.439  1.00  0.00     0.086 N 
HETATM   26  C14 UNL     1      21.688   1.463  48.354  1.00  0.00     0.307 C 
HETATM   27  H14 UNL     1      19.976   0.613  48.949  1.00  0.00     0.316 HD
ENDBRANCH  20  25
BRANCH  21  28
HETATM   28  O1  UNL     1      17.418   2.610  48.587  1.00  0.00    -0.386 OA
HETATM   29  C16 UNL     1      16.150   2.998  48.897  1.00  0.00     0.202 C 
ENDBRANCH  21  28
ENDBRANCH  16  18
ENDBRANCH   6  16
BRANCH   1  30
HETATM   30  C4  UNL     1      26.690   3.614  50.014  1.00  0.00     0.001 C 
HETATM   31  C3  UNL     1      26.148   4.581  49.337  1.00  0.00    -0.001 C 
BRANCH  31  32
HETATM   32  C2  UNL     1      26.938   5.695  48.867  1.00  0.00    -0.010 C 
HETATM   33  C1  UNL     1      28.093   5.193  48.479  1.00  0.00     0.011 C 
ENDBRANCH  31  32
ENDBRANCH   1  30
TORSDOF 6
ENDMDL
MODEL 3
REMARK VINA RESULT:      -8.2      3.736      9.608
REMARK  6 active torsions:
REMARK  status: ('A' for Active; 'I' for Inactive)
REMARK    1  A    between atoms: C2_2  and  C3_3 
REMARK    2  A    between atoms: C4_4  and  C5_5 
REMARK    3  A    between atoms: C10_10  and  N1_11 
REMARK    4  A    between atoms: N1_11  and  C11_12 
REMARK    5  A    between atoms: C13_14  and  N2_15 
REMARK    6  A    between atoms: C15_17  and  O1_18 
ROOT
HETATM    1  C5  UNL     1      21.062  -1.012  54.322  1.00  0.00     0.009 C 
HETATM    2  C6  UNL     1      22.229  -0.485  54.021  1.00  0.00    -0.041 C 
HETATM    3  C7  UNL     1      22.347   0.096  52.700  1.00  0.00     0.010 C 
HETATM    4  C8  UNL     1      23.255   0.713  51.960  1.00  0.00     0.015 C 
HETATM    5  C9  UNL     1      24.655   1.113  52.171  1.00  0.00     0.006 A 
HETATM    6  C10 UNL     1      24.849   2.139  51.304  1.00  0.00     0.041 A 
HETATM    7  C19 UNL     1      26.127   2.628  51.327  1.00  0.00     0.030 A 
HETATM    8  C20 UNL     1      27.108   2.127  52.148  1.00  0.00     0.003 A 
HETATM    9  C21 UNL     1      26.876   1.085  53.019  1.00  0.00     0.018 A 
HETATM   10  C22 UNL     1      25.606   0.559  53.033  1.00  0.00     0.044 A 
HETATM   11  C23 UNL     1      25.612  -0.520  54.048  1.00  0.00     0.252 C 
HETATM   12  O3  UNL     1      26.766  -0.967  54.244  1.00  0.00    -0.268 OA
HETATM   13  N3  UNL     1      24.494  -1.068  54.781  1.00  0.00    -0.353 N 
HETATM   14  C24 UNL     1      23.167  -0.617  55.132  1.00  0.00     0.161 C 
HETATM   15  H29 UNL     1      24.810  -2.034  55.106  1.00  0.00     0.163 HD
ENDROOT
BRANCH   6  16
HETATM   16  N1  UNL     1      23.887   2.746  50.485  1.00  0.00    -0.363 N 
HETATM   17  H9  UNL     1      23.074   2.390  49.959  1.00  0.00     0.162 HD
BRANCH  16  18
HETATM   18  C11 UNL     1      23.857   4.172  50.230  1.00  0.00     0.223 C 
HETATM   19  C12 UNL     1      24.817   4.551  49.139  1.00  0.00     0.091 C 
HETATM   20  C13 UNL     1      24.855   6.057  48.989  1.00  0.00     0.255 C 
HETATM   21  C15 UNL     1      24.935   6.678  50.335  1.00  0.00     0.182 C 
HETATM   22  C17 UNL     1      23.897   6.170  51.302  1.00  0.00     0.151 C 
HETATM   23  C18 UNL     1      22.489   6.511  51.021  1.00  0.00     0.042 C 
HETATM   24  O2  UNL     1      24.118   4.812  51.448  1.00  0.00    -0.359 OA
BRANCH  20  25
HETATM   25  N2  UNL     1      23.790   6.524  48.147  1.00  0.00     0.086 N 
HETATM   26  C14 UNL     1      24.264   7.463  47.135  1.00  0.00     0.307 C 
HETATM   27  H14 UNL     1      23.438   5.702  47.607  1.00  0.00     0.316 HD
ENDBRANCH  20  25
BRANCH  21  28
HETATM   28  O1  UNL     1      25.189   8.011  50.387  1.00  0.00    -0.386 OA
HETATM   29  C16 UNL     1      26.459   8.420  50.112  1.00  0.00     0.202 C 
ENDBRANCH  21  28
ENDBRANCH  16  18
ENDBRANCH   6  16
BRANCH   1  30
HETATM   30  C4  UNL     1      19.720  -1.288  53.860  1.00  0.00     0.001 C 
HETATM   31  C3  UNL     1      18.728  -0.871  53.134  1.00  0.00    -0.001 C 
BRANCH  31  32
HETATM   32  C2  UNL     1      17.507  -1.636  53.031  1.00  0.00    -0.010 C 
HETATM   33  C1  UNL     1      17.731  -2.777  53.651  1.00  0.00     0.011 C 
ENDBRANCH  31  32
ENDBRANCH   1  30
TORSDOF 6
ENDMDL
MODEL 4
REMARK VINA RESULT:      -8.0      4.784      9.768
REMARK  6 active torsions:
REMARK  status: ('A' for Active; 'I' for Inactive)
REMARK    1  A    between atoms: C2_2  and  C3_3 
REMARK    2  A    between atoms: C4_4  and  C5_5 
REMARK    3  A    between atoms: C10_10  and  N1_11 
REMARK    4  A    between atoms: N1_11  and  C11_12 
REMARK    5  A    between atoms: C13_14  and  N2_15 
REMARK    6  A    between atoms: C15_17  and  O1_18 
ROOT
HETATM    1  C5  UNL     1      19.957  -0.181  53.189  1.00  0.00     0.009 C 
HETATM    2  C6  UNL     1      21.241  -0.003  53.407  1.00  0.00    -0.041 C 
HETATM    3  C7  UNL     1      22.044   0.348  52.253  1.00  0.00     0.010 C 
HETATM    4  C8  UNL     1      23.307   0.617  51.962  1.00  0.00     0.015 C 
HETATM    5  C9  UNL     1      24.551   0.685  52.745  1.00  0.00     0.006 A 
HETATM    6  C10 UNL     1      25.359   1.505  52.026  1.00  0.00     0.041 A 
HETATM    7  C19 UNL     1      26.598   1.664  52.585  1.00  0.00     0.030 A 
HETATM    8  C20 UNL     1      26.978   1.052  53.755  1.00  0.00     0.003 A 
HETATM    9  C21 UNL     1      26.131   0.226  54.462  1.00  0.00     0.018 A 
HETATM   10  C22 UNL     1      24.873   0.036  53.940  1.00  0.00     0.044 A 
HETATM   11  C23 UNL     1      24.163  -0.864  54.878  1.00  0.00     0.252 C 
HETATM   12  O3  UNL     1      24.962  -1.551  55.557  1.00  0.00    -0.268 OA
HETATM   13  N3  UNL     1      22.740  -1.017  55.072  1.00  0.00    -0.353 N 
HETATM   14  C24 UNL     1      21.569  -0.211  54.815  1.00  0.00     0.161 C 
HETATM   15  H29 UNL     1      22.612  -1.978  55.518  1.00  0.00     0.163 HD
ENDROOT
BRANCH   6  16
HETATM   16  N1  UNL     1      25.025   2.214  50.864  1.00  0.00    -0.363 N 
HETATM   17  H9  UNL     1      25.377   2.195  49.894  1.00  0.00     0.162 HD
BRANCH  16  18
HETATM   18  C11 UNL     1      23.970   3.206  50.822  1.00  0.00     0.223 C 
HETATM   19  C12 UNL     1      23.972   3.949  49.517  1.00  0.00     0.091 C 
HETATM   20  C13 UNL     1      22.945   5.062  49.559  1.00  0.00     0.255 C 
HETATM   21  C15 UNL     1      23.058   5.779  50.854  1.00  0.00     0.182 C 
HETATM   22  C17 UNL     1      23.047   4.871  52.055  1.00  0.00     0.151 C 
HETATM   23  C18 UNL     1      21.791   4.152  52.347  1.00  0.00     0.042 C 
HETATM   24  O2  UNL     1      24.145   4.037  51.937  1.00  0.00    -0.359 OA
BRANCH  20  25
HETATM   25  N2  UNL     1      21.636   4.575  49.225  1.00  0.00     0.086 N 
HETATM   26  C14 UNL     1      21.100   5.224  48.032  1.00  0.00     0.307 C 
HETATM   27  H14 UNL     1      21.737   3.570  48.961  1.00  0.00     0.316 HD
ENDBRANCH  20  25
BRANCH  21  28
HETATM   28  O1  UNL     1      22.360   6.937  50.982  1.00  0.00    -0.386 OA
HETATM   29  C16 UNL     1      22.698   7.969  50.159  1.00  0.00     0.202 C 
ENDBRANCH  21  28
ENDBRANCH  16  18
ENDBRANCH   6  16
BRANCH   1  30
HETATM   30  C4  UNL     1      18.900  -0.178  52.202  1.00  0.00     0.001 C 
HETATM   31  C3  UNL     1      18.535   0.219  51.021  1.00  0.00    -0.001 C 
BRANCH  31  32
HETATM   32  C2  UNL     1      17.230  -0.106  50.496  1.00  0.00    -0.010 C 
HETATM   33  C1  UNL     1      16.582  -0.718  51.466  1.00  0.00     0.011 C 
ENDBRANCH  31  32
ENDBRANCH   1  30
TORSDOF 6
ENDMDL
MODEL 5
REMARK VINA RESULT:      -7.9      4.792     10.487
REMARK  6 active torsions:
REMARK  status: ('A' for Active; 'I' for Inactive)
REMARK    1  A    between atoms: C2_2  and  C3_3 
REMARK    2  A    between atoms: C4_4  and  C5_5 
REMARK    3  A    between atoms: C10_10  and  N1_11 
REMARK    4  A    between atoms: N1_11  and  C11_12 
REMARK    5  A    between atoms: C13_14  and  N2_15 
REMARK    6  A    between atoms: C15_17  and  O1_18 
ROOT
HETATM    1  C5  UNL     1      17.717  -0.307  51.892  1.00  0.00     0.009 C 
HETATM    2  C6  UNL     1      18.955  -0.254  52.333  1.00  0.00    -0.041 C 
HETATM    3  C7  UNL     1      19.968   0.090  51.357  1.00  0.00     0.010 C 
HETATM    4  C8  UNL     1      21.279   0.264  51.300  1.00  0.00     0.015 C 
HETATM    5  C9  UNL     1      22.372   0.179  52.282  1.00  0.00     0.006 A 
HETATM    6  C10 UNL     1      23.351   0.965  51.767  1.00  0.00     0.041 A 
HETATM    7  C19 UNL     1      24.485   0.983  52.535  1.00  0.00     0.030 A 
HETATM    8  C20 UNL     1      24.609   0.275  53.705  1.00  0.00     0.003 A 
HETATM    9  C21 UNL     1      23.593  -0.513  54.201  1.00  0.00     0.018 A 
HETATM   10  C22 UNL     1      22.433  -0.563  53.465  1.00  0.00     0.044 A 
HETATM   11  C23 UNL     1      21.506  -1.449  54.205  1.00  0.00     0.252 C 
HETATM   12  O3  UNL     1      22.122  -2.241  54.958  1.00  0.00    -0.268 OA
HETATM   13  N3  UNL     1      20.063  -1.488  54.149  1.00  0.00    -0.353 N 
HETATM   14  C24 UNL     1      19.019  -0.569  53.757  1.00  0.00     0.161 C 
HETATM   15  H29 UNL     1      19.788  -2.458  54.498  1.00  0.00     0.163 HD
ENDROOT
BRANCH   6  16
HETATM   16  N1  UNL     1      23.277   1.765  50.619  1.00  0.00    -0.363 N 
HETATM   17  H9  UNL     1      22.992   1.584  49.644  1.00  0.00     0.162 HD
BRANCH  16  18
HETATM   18  C11 UNL     1      23.607   3.175  50.619  1.00  0.00     0.223 C 
HETATM   19  C12 UNL     1      22.593   3.973  51.388  1.00  0.00     0.091 C 
HETATM   20  C13 UNL     1      22.897   5.451  51.259  1.00  0.00     0.255 C 
HETATM   21  C15 UNL     1      23.205   5.760  49.840  1.00  0.00     0.182 C 
HETATM   22  C17 UNL     1      24.241   4.852  49.230  1.00  0.00     0.151 C 
HETATM   23  C18 UNL     1      25.619   4.955  49.750  1.00  0.00     0.042 C 
HETATM   24  O2  UNL     1      23.726   3.569  49.280  1.00  0.00    -0.359 OA
BRANCH  20  25
HETATM   25  N2  UNL     1      23.880   5.867  52.218  1.00  0.00     0.086 N 
HETATM   26  C14 UNL     1      23.792   5.101  53.458  1.00  0.00     0.307 C 
HETATM   27  H14 UNL     1      24.818   5.631  51.823  1.00  0.00     0.316 HD
ENDBRANCH  20  25
BRANCH  21  28
HETATM   28  O1  UNL     1      23.296   7.072  49.499  1.00  0.00    -0.386 OA
HETATM   29  C16 UNL     1      22.204   7.856  49.723  1.00  0.00     0.202 C 
ENDBRANCH  21  28
ENDBRANCH  16  18
ENDBRANCH   6  16
BRANCH   1  30
HETATM   30  C4  UNL     1      16.848  -0.157  50.746  1.00  0.00     0.001 C 
HETATM   31  C3  UNL     1      16.752   0.261  49.520  1.00  0.00    -0.001 C 
BRANCH  31  32
HETATM   32  C2  UNL     1      15.512   0.145  48.789  1.00  0.00    -0.010 C 
HETATM   33  C1  UNL     1      15.522  -1.048  48.229  1.00  0.00     0.011 C 
ENDBRANCH  31  32
ENDBRANCH   1  30
TORSDOF 6
ENDMDL
MODEL 6
REMARK VINA RESULT:      -7.8      2.122      3.189
REMARK  6 active torsions:
REMARK  status: ('A' for Active; 'I' for Inactive)
REMARK    1  A    between atoms: C2_2  and  C3_3 
REMARK    2  A    between atoms: C4_4  and  C5_5 
REMARK    3  A    between atoms: C10_10  and  N1_11 
REMARK    4  A    between atoms: N1_11  and  C11_12 
REMARK    5  A    between atoms: C13_14  and  N2_15 
REMARK    6  A    between atoms: C15_17  and  O1_18 
ROOT
HETATM    1  C5  UNL     1      30.968   5.648  47.486  1.00  0.00     0.009 C 
HETATM    2  C6  UNL     1      29.787   6.175  47.724  1.00  0.00    -0.041 C 
HETATM    3  C7  UNL     1      28.778   5.276  48.244  1.00  0.00     0.010 C 
HETATM    4  C8  UNL     1      27.511   5.313  48.624  1.00  0.00     0.015 C 
HETATM    5  C9  UNL     1      26.487   6.368  48.693  1.00  0.00     0.006 A 
HETATM    6  C10 UNL     1      25.613   5.931  49.634  1.00  0.00     0.041 A 
HETATM    7  C19 UNL     1      24.551   6.776  49.815  1.00  0.00     0.030 A 
HETATM    8  C20 UNL     1      24.395   7.946  49.112  1.00  0.00     0.003 A 
HETATM    9  C21 UNL     1      25.305   8.361  48.164  1.00  0.00     0.018 A 
HETATM   10  C22 UNL     1      26.390   7.546  47.946  1.00  0.00     0.044 A 
HETATM   11  C23 UNL     1      27.212   8.211  46.910  1.00  0.00     0.252 C 
HETATM   12  O3  UNL     1      26.531   8.997  46.210  1.00  0.00    -0.268 OA
HETATM   13  N3  UNL     1      28.623   8.053  46.645  1.00  0.00    -0.353 N 
HETATM   14  C24 UNL     1      29.771   7.598  47.395  1.00  0.00     0.161 C 
HETATM   15  H29 UNL     1      28.763   8.373  45.637  1.00  0.00     0.163 HD
ENDROOT
BRANCH   6  16
HETATM   16  N1  UNL     1      25.735   4.788  50.435  1.00  0.00    -0.363 N 
HETATM   17  H9  UNL     1      26.526   4.350  50.933  1.00  0.00     0.162 HD
BRANCH  16  18
HETATM   18  C11 UNL     1      24.613   3.933  50.764  1.00  0.00     0.223 C 
HETATM   19  C12 UNL     1      23.598   3.915  49.657  1.00  0.00     0.091 C 
HETATM   20  C13 UNL     1      22.384   3.119  50.086  1.00  0.00     0.255 C 
HETATM   21  C15 UNL     1      22.009   3.512  51.468  1.00  0.00     0.182 C 
HETATM   22  C17 UNL     1      23.157   3.478  52.442  1.00  0.00     0.151 C 
HETATM   23  C18 UNL     1      23.727   2.155  52.769  1.00  0.00     0.042 C 
HETATM   24  O2  UNL     1      24.097   4.384  51.985  1.00  0.00    -0.359 OA
BRANCH  20  25
HETATM   25  N2  UNL     1      22.578   1.714  49.865  1.00  0.00     0.086 N 
HETATM   26  C14 UNL     1      21.587   1.163  48.945  1.00  0.00     0.307 C 
HETATM   27  H14 UNL     1      23.493   1.600  49.374  1.00  0.00     0.316 HD
ENDBRANCH  20  25
BRANCH  21  28
HETATM   28  O1  UNL     1      20.820   3.054  51.939  1.00  0.00    -0.386 OA
HETATM   29  C16 UNL     1      19.689   3.656  51.479  1.00  0.00     0.202 C 
ENDBRANCH  21  28
ENDBRANCH  16  18
ENDBRANCH   6  16
BRANCH   1  30
HETATM   30  C4  UNL     1      31.770   4.446  47.521  1.00  0.00     0.001 C 
HETATM   31  C3  UNL     1      32.106   3.361  46.890  1.00  0.00    -0.001 C 
BRANCH  31  32
HETATM   32  C2  UNL     1      33.048   2.429  47.463  1.00  0.00    -0.010 C 
HETATM   33  C1  UNL     1      34.162   3.103  47.663  1.00  0.00     0.011 C 
ENDBRANCH  31  32
ENDBRANCH   1  30
TORSDOF 6
ENDMDL
MODEL 7
REMARK VINA RESULT:      -7.7      5.311      9.011
REMARK  6 active torsions:
REMARK  status: ('A' for Active; 'I' for Inactive)
REMARK    1  A    between atoms: C2_2  and  C3_3 
REMARK    2  A    between atoms: C4_4  and  C5_5 
REMARK    3  A    between atoms: C10_10  and  N1_11 
REMARK    4  A    between atoms: N1_11  and  C11_12 
REMARK    5  A    between atoms: C13_14  and  N2_15 
REMARK    6  A    between atoms: C15_17  and  O1_18 
ROOT
HETATM    1  C5  UNL     1      26.361   2.030  51.120  1.00  0.00     0.009 C 
HETATM    2  C6  UNL     1      25.450   1.334  51.765  1.00  0.00    -0.041 C 
HETATM    3  C7  UNL     1      24.114   1.891  51.782  1.00  0.00     0.010 C 
HETATM    4  C8  UNL     1      22.917   1.595  52.265  1.00  0.00     0.015 C 
HETATM    5  C9  UNL     1      22.374   0.482  53.060  1.00  0.00     0.006 A 
HETATM    6  C10 UNL     1      21.048   0.476  52.773  1.00  0.00     0.041 A 
HETATM    7  C19 UNL     1      20.354  -0.484  53.460  1.00  0.00     0.030 A 
HETATM    8  C20 UNL     1      20.948  -1.349  54.347  1.00  0.00     0.003 A 
HETATM    9  C21 UNL     1      22.299  -1.316  54.614  1.00  0.00     0.018 A 
HETATM   10  C22 UNL     1      23.040  -0.369  53.947  1.00  0.00     0.044 A 
HETATM   11  C23 UNL     1      24.442  -0.547  54.389  1.00  0.00     0.252 C 
HETATM   12  O3  UNL     1      24.509  -1.109  55.508  1.00  0.00    -0.268 OA
HETATM   13  N3  UNL     1      25.654  -0.164  53.705  1.00  0.00    -0.353 N 
HETATM   14  C24 UNL     1      26.025   0.120  52.337  1.00  0.00     0.161 C 
HETATM   15  H29 UNL     1      26.404  -0.100  54.462  1.00  0.00     0.163 HD
ENDROOT
BRANCH   6  16
HETATM   16  N1  UNL     1      20.382   1.278  51.837  1.00  0.00    -0.363 N 
HETATM   17  H9  UNL     1      20.696   1.994  51.163  1.00  0.00     0.162 HD
BRANCH  16  18
HETATM   18  C11 UNL     1      18.953   1.204  51.611  1.00  0.00     0.223 C 
HETATM   19  C12 UNL     1      18.555  -0.139  51.070  1.00  0.00     0.091 C 
HETATM   20  C13 UNL     1      17.081  -0.137  50.724  1.00  0.00     0.255 C 
HETATM   21  C15 UNL     1      16.754   1.114  49.996  1.00  0.00     0.182 C 
HETATM   22  C17 UNL     1      17.238   2.364  50.685  1.00  0.00     0.151 C 
HETATM   23  C18 UNL     1      16.598   2.719  51.967  1.00  0.00     0.042 C 
HETATM   24  O2  UNL     1      18.616   2.268  50.764  1.00  0.00    -0.359 OA
BRANCH  20  25
HETATM   25  N2  UNL     1      16.275  -0.417  51.879  1.00  0.00     0.086 N 
HETATM   26  C14 UNL     1      16.848  -1.479  52.701  1.00  0.00     0.307 C 
HETATM   27  H14 UNL     1      16.296   0.433  52.486  1.00  0.00     0.316 HD
ENDBRANCH  20  25
BRANCH  21  28
HETATM   28  O1  UNL     1      15.525   1.194  49.424  1.00  0.00    -0.386 OA
HETATM   29  C16 UNL     1      15.464   1.192  48.063  1.00  0.00     0.202 C 
ENDBRANCH  21  28
ENDBRANCH  16  18
ENDBRANCH   6  16
BRANCH   1  30
HETATM   30  C4  UNL     1      26.630   3.222  50.347  1.00  0.00     0.001 C 
HETATM   31  C3  UNL     1      26.800   3.713  49.158  1.00  0.00    -0.001 C 
BRANCH  31  32
HETATM   32  C2  UNL     1      27.068   5.119  48.964  1.00  0.00    -0.010 C 
HETATM   33  C1  UNL     1      25.949   5.753  49.254  1.00  0.00     0.011 C 
ENDBRANCH  31  32
ENDBRANCH   1  30
TORSDOF 6
ENDMDL
MODEL 8
REMARK VINA RESULT:      -7.3      4.672      7.984
REMARK  6 active torsions:
REMARK  status: ('A' for Active; 'I' for Inactive)
REMARK    1  A    between atoms: C2_2  and  C3_3 
REMARK    2  A    between atoms: C4_4  and  C5_5 
REMARK    3  A    between atoms: C10_10  and  N1_11 
REMARK    4  A    between atoms: N1_11  and  C11_12 
REMARK    5  A    between atoms: C13_14  and  N2_15 
REMARK    6  A    between atoms: C15_17  and  O1_18 
ROOT
HETATM    1  C5  UNL     1      26.381   4.650  49.612  1.00  0.00     0.009 C 
HETATM    2  C6  UNL     1      25.764   3.671  50.237  1.00  0.00    -0.041 C 
HETATM    3  C7  UNL     1      24.322   3.639  50.109  1.00  0.00     0.010 C 
HETATM    4  C8  UNL     1      23.301   2.903  50.520  1.00  0.00     0.015 C 
HETATM    5  C9  UNL     1      23.170   1.698  51.354  1.00  0.00     0.006 A 
HETATM    6  C10 UNL     1      21.994   1.144  50.967  1.00  0.00     0.041 A 
HETATM    7  C19 UNL     1      21.676   0.013  51.670  1.00  0.00     0.030 A 
HETATM    8  C20 UNL     1      22.472  -0.503  52.663  1.00  0.00     0.003 A 
HETATM    9  C21 UNL     1      23.664   0.085  53.029  1.00  0.00     0.018 A 
HETATM   10  C22 UNL     1      24.028   1.224  52.351  1.00  0.00     0.044 A 
HETATM   11  C23 UNL     1      25.332   1.645  52.911  1.00  0.00     0.252 C 
HETATM   12  O3  UNL     1      25.505   1.202  54.071  1.00  0.00    -0.268 OA
HETATM   13  N3  UNL     1      26.353   2.460  52.295  1.00  0.00    -0.353 N 
HETATM   14  C24 UNL     1      26.715   2.816  50.941  1.00  0.00     0.161 C 
HETATM   15  H29 UNL     1      26.934   2.851  53.100  1.00  0.00     0.163 HD
ENDROOT
BRANCH   6  16
HETATM   16  N1  UNL     1      21.161   1.571  49.924  1.00  0.00    -0.363 N 
HETATM   17  H9  UNL     1      21.335   1.872  48.953  1.00  0.00     0.162 HD
BRANCH  16  18
HETATM   18  C11 UNL     1      19.719   1.645  50.047  1.00  0.00     0.223 C 
HETATM   19  C12 UNL     1      19.118   2.459  48.938  1.00  0.00     0.091 C 
HETATM   20  C13 UNL     1      17.630   2.623  49.170  1.00  0.00     0.255 C 
HETATM   21  C15 UNL     1      17.397   2.971  50.594  1.00  0.00     0.182 C 
HETATM   22  C17 UNL     1      18.085   2.049  51.567  1.00  0.00     0.151 C 
HETATM   23  C18 UNL     1      17.603   0.655  51.631  1.00  0.00     0.042 C 
HETATM   24  O2  UNL     1      19.442   2.153  51.323  1.00  0.00    -0.359 OA
BRANCH  20  25
HETATM   25  N2  UNL     1      16.897   1.493  48.673  1.00  0.00     0.086 N 
HETATM   26  C14 UNL     1      15.886   1.884  47.696  1.00  0.00     0.307 C 
HETATM   27  H14 UNL     1      17.570   0.897  48.140  1.00  0.00     0.316 HD
ENDBRANCH  20  25
BRANCH  21  28
HETATM   28  O1  UNL     1      16.142   3.362  50.937  1.00  0.00    -0.386 OA
HETATM   29  C16 UNL     1      16.017   4.229  51.980  1.00  0.00     0.202 C 
ENDBRANCH  21  28
ENDBRANCH  16  18
ENDBRANCH   6  16
BRANCH   1  30
HETATM   30  C4  UNL     1      26.228   5.818  48.774  1.00  0.00     0.001 C 
HETATM   31  C3  UNL     1      25.388   6.609  48.179  1.00  0.00    -0.001 C 
BRANCH  31  32
HETATM   32  C2  UNL     1      25.848   7.732  47.396  1.00  0.00    -0.010 C 
HETATM   33  C1  UNL     1      27.164   7.657  47.379  1.00  0.00     0.011 C 
ENDBRANCH  31  32
ENDBRANCH   1  30
TORSDOF 6
ENDMDL
MODEL 9
REMARK VINA RESULT:      -7.2      3.912      8.403
REMARK  6 active torsions:
REMARK  status: ('A' for Active; 'I' for Inactive)
REMARK    1  A    between atoms: C2_2  and  C3_3 
REMARK    2  A    between atoms: C4_4  and  C5_5 
REMARK    3  A    between atoms: C10_10  and  N1_11 
REMARK    4  A    between atoms: N1_11  and  C11_12 
REMARK    5  A    between atoms: C13_14  and  N2_15 
REMARK    6  A    between atoms: C15_17  and  O1_18 
ROOT
HETATM    1  C5  UNL     1      24.272   1.007  52.903  1.00  0.00     0.009 C 
HETATM    2  C6  UNL     1      24.652   2.083  52.249  1.00  0.00    -0.041 C 
HETATM    3  C7  UNL     1      23.602   3.006  51.871  1.00  0.00     0.010 C 
HETATM    4  C8  UNL     1      23.471   4.163  51.240  1.00  0.00     0.015 C 
HETATM    5  C9  UNL     1      24.409   5.095  50.594  1.00  0.00     0.006 A 
HETATM    6  C10 UNL     1      23.771   6.292  50.623  1.00  0.00     0.041 A 
HETATM    7  C19 UNL     1      24.484   7.295  50.022  1.00  0.00     0.030 A 
HETATM    8  C20 UNL     1      25.718   7.101  49.452  1.00  0.00     0.003 A 
HETATM    9  C21 UNL     1      26.339   5.871  49.443  1.00  0.00     0.018 A 
HETATM   10  C22 UNL     1      25.663   4.831  50.035  1.00  0.00     0.044 A 
HETATM   11  C23 UNL     1      26.534   3.640  49.909  1.00  0.00     0.252 C 
HETATM   12  O3  UNL     1      27.342   3.754  48.958  1.00  0.00    -0.268 OA
HETATM   13  N3  UNL     1      26.543   2.444  50.719  1.00  0.00    -0.353 N 
HETATM   14  C24 UNL     1      26.098   2.092  52.048  1.00  0.00     0.161 C 
HETATM   15  H29 UNL     1      27.008   1.694  50.119  1.00  0.00     0.163 HD
ENDROOT
BRANCH   6  16
HETATM   16  N1  UNL     1      22.546   6.582  51.239  1.00  0.00    -0.363 N 
HETATM   17  H9  UNL     1      22.227   6.583  52.220  1.00  0.00     0.162 HD
BRANCH  16  18
HETATM   18  C11 UNL     1      21.377   7.015  50.501  1.00  0.00     0.223 C 
HETATM   19  C12 UNL     1      20.945   5.977  49.506  1.00  0.00     0.091 C 
HETATM   20  C13 UNL     1      19.805   6.514  48.666  1.00  0.00     0.255 C 
HETATM   21  C15 UNL     1      20.125   7.901  48.244  1.00  0.00     0.182 C 
HETATM   22  C17 UNL     1      20.547   8.800  49.376  1.00  0.00     0.151 C 
HETATM   23  C18 UNL     1      19.524   9.141  50.385  1.00  0.00     0.042 C 
HETATM   24  O2  UNL     1      21.694   8.249  49.918  1.00  0.00    -0.359 OA
BRANCH  20  25
HETATM   25  N2  UNL     1      18.543   6.336  49.327  1.00  0.00     0.086 N 
HETATM   26  C14 UNL     1      18.317   4.946  49.709  1.00  0.00     0.307 C 
HETATM   27  H14 UNL     1      18.589   6.859  50.230  1.00  0.00     0.316 HD
ENDBRANCH  20  25
BRANCH  21  28
HETATM   28  O1  UNL     1      19.313   8.466  47.312  1.00  0.00    -0.386 OA
HETATM   29  C16 UNL     1      19.708   8.395  46.010  1.00  0.00     0.202 C 
ENDBRANCH  21  28
ENDBRANCH  16  18
ENDBRANCH   6  16
BRANCH   1  30
HETATM   30  C4  UNL     1      23.154   0.279  53.460  1.00  0.00     0.001 C 
HETATM   31  C3  UNL     1      22.785  -0.754  54.155  1.00  0.00    -0.001 C 
BRANCH  31  32
HETATM   32  C2  UNL     1      21.390  -1.008  54.429  1.00  0.00    -0.010 C 
HETATM   33  C1  UNL     1      20.794   0.167  54.440  1.00  0.00     0.011 C 
ENDBRANCH  31  32
ENDBRANCH   1  30
TORSDOF 6
ENDMDL
