MODEL 1
REMARK VINA RESULT:      -8.3      0.000      0.000
REMARK  5 active torsions:
REMARK  status: ('A' for Active; 'I' for Inactive)
REMARK    1  A    between atoms: O1_1  and  C1_2 
REMARK    2  A    between atoms: C2_4  and  C3_5 
REMARK    3  A    between atoms: C3_5  and  C4_6 
REMARK    4  A    between atoms: C4_6  and  C5_7 
REMARK    5  A    between atoms: C10_12  and  C11_13 
ROOT
HETATM    1  C5  UNL     1      22.391   1.131  52.692  1.00  0.00     0.023 A 
HETATM    2  C6  UNL     1      20.914   0.896  52.826  1.00  0.00     0.036 A 
HETATM    3  C7  UNL     1      20.602  -0.293  53.699  1.00  0.00    -0.026 A 
HETATM    4  C8  UNL     1      21.408  -1.091  54.361  1.00  0.00    -0.003 A 
HETATM    5  C9  UNL     1      22.853  -0.798  54.241  1.00  0.00     0.008 A 
HETATM    6  C10 UNL     1      23.238   0.212  53.487  1.00  0.00    -0.043 A 
ENDROOT
BRANCH   6   7
HETATM    7  C11 UNL     1      24.681   0.395  53.531  1.00  0.00    -0.027 A 
HETATM    8  C12 UNL     1      25.311   1.615  53.469  1.00  0.00     0.015 A 
HETATM    9  C13 UNL     1      26.677   1.790  53.438  1.00  0.00     0.040 A 
HETATM   10  C14 UNL     1      27.515   0.719  53.471  1.00  0.00     0.102 A 
HETATM   11  C15 UNL     1      26.975  -0.545  53.534  1.00  0.00     0.102 A 
HETATM   12  O3  UNL     1      28.891   0.882  53.442  1.00  0.00    -0.346 OA
HETATM   13  C16 UNL     1      25.608  -0.653  53.560  1.00  0.00     0.051 A 
HETATM   14  O2  UNL     1      27.822  -1.642  53.568  1.00  0.00    -0.346 OA
HETATM   15  C17 UNL     1      29.173  -1.423  53.133  1.00  0.00     0.202 C 
HETATM   16  C18 UNL     1      29.666  -0.227  53.922  1.00  0.00     0.202 C 
ENDBRANCH   6   7
BRANCH   1  17
HETATM   17  C4  UNL     1      22.878   1.113  51.261  1.00  0.00     0.013 C 
BRANCH  17  18
HETATM   18  C3  UNL     1      22.821   2.370  50.490  1.00  0.00     0.031 C 
BRANCH  18  19
HETATM   19  C2  UNL     1      24.116   2.959  50.177  1.00  0.00     0.023 C 
HETATM   20  C1  UNL     1      24.565   3.975  50.921  1.00  0.00     0.132 C 
HETATM   21 CL1  UNL     1      23.625   4.599  52.249  1.00  0.00    -0.058 Cl
BRANCH  20  22
HETATM   22  O1  UNL     1      25.792   4.606  50.702  1.00  0.00    -0.351 OA
HETATM   23  H1  UNL     1      25.820   5.284  49.936  1.00  0.00     0.218 HD
ENDBRANCH  20  22
ENDBRANCH  18  19
ENDBRANCH  17  18
ENDBRANCH   1  17
TORSDOF 5
ENDMDL
MODEL 2
REMARK VINA RESULT:      -8.0      1.410      2.022
REMARK  5 active torsions:
REMARK  status: ('A' for Active; 'I' for Inactive)
REMARK    1  A    between atoms: O1_1  and  C1_2 
REMARK    2  A    between atoms: C2_4  and  C3_5 
REMARK    3  A    between atoms: C3_5  and  C4_6 
REMARK    4  A    between atoms: C4_6  and  C5_7 
REMARK    5  A    between atoms: C10_12  and  C11_13 
ROOT
HETATM    1  C5  UNL     1      22.858   2.112  52.247  1.00  0.00     0.023 A 
HETATM    2  C6  UNL     1      21.395   2.444  52.322  1.00  0.00     0.036 A 
HETATM    3  C7  UNL     1      20.623   1.443  53.145  1.00  0.00    -0.026 A 
HETATM    4  C8  UNL     1      21.043   0.391  53.808  1.00  0.00    -0.003 A 
HETATM    5  C9  UNL     1      22.497   0.124  53.749  1.00  0.00     0.008 A 
HETATM    6  C10 UNL     1      23.264   0.930  53.042  1.00  0.00    -0.043 A 
ENDROOT
BRANCH   6   7
HETATM    7  C11 UNL     1      24.668   0.560  53.143  1.00  0.00    -0.027 A 
HETATM    8  C12 UNL     1      25.152  -0.711  52.942  1.00  0.00     0.015 A 
HETATM    9  C13 UNL     1      26.469  -1.082  53.106  1.00  0.00     0.040 A 
HETATM   10  C14 UNL     1      27.404  -0.173  53.492  1.00  0.00     0.102 A 
HETATM   11  C15 UNL     1      27.013   1.127  53.717  1.00  0.00     0.102 A 
HETATM   12  O3  UNL     1      28.731  -0.533  53.659  1.00  0.00    -0.346 OA
HETATM   13  C16 UNL     1      25.688   1.434  53.538  1.00  0.00     0.051 A 
HETATM   14  O2  UNL     1      27.959   2.061  54.109  1.00  0.00    -0.346 OA
HETATM   15  C17 UNL     1      29.187   1.544  54.643  1.00  0.00     0.202 C 
HETATM   16  C18 UNL     1      29.684   0.540  53.622  1.00  0.00     0.202 C 
ENDBRANCH   6   7
BRANCH   1  17
HETATM   17  C4  UNL     1      23.367   1.938  50.835  1.00  0.00     0.013 C 
BRANCH  17  18
HETATM   18  C3  UNL     1      23.996   3.096  50.173  1.00  0.00     0.031 C 
BRANCH  18  19
HETATM   19  C2  UNL     1      25.450   3.122  50.229  1.00  0.00     0.023 C 
HETATM   20  C1  UNL     1      26.105   4.145  49.670  1.00  0.00     0.132 C 
HETATM   21 CL1  UNL     1      25.241   5.437  48.877  1.00  0.00    -0.058 Cl
BRANCH  20  22
HETATM   22  O1  UNL     1      27.496   4.263  49.670  1.00  0.00    -0.351 OA
HETATM   23  H1  UNL     1      27.889   4.966  50.303  1.00  0.00     0.218 HD
ENDBRANCH  20  22
ENDBRANCH  18  19
ENDBRANCH  17  18
ENDBRANCH   1  17
TORSDOF 5
ENDMDL
MODEL 3
REMARK VINA RESULT:      -7.8      2.334      4.211
REMARK  5 active torsions:
REMARK  status: ('A' for Active; 'I' for Inactive)
REMARK    1  A    between atoms: O1_1  and  C1_2 
REMARK    2  A    between atoms: C2_4  and  C3_5 
REMARK    3  A    between atoms: C3_5  and  C4_6 
REMARK    4  A    between atoms: C4_6  and  C5_7 
REMARK    5  A    between atoms: C10_12  and  C11_13 
ROOT
HETATM    1  C5  UNL     1      22.577   1.255  50.922  1.00  0.00     0.023 A 
HETATM    2  C6  UNL     1      21.688   1.503  49.738  1.00  0.00     0.036 A 
HETATM    3  C7  UNL     1      22.255   2.544  48.805  1.00  0.00    -0.026 A 
HETATM    4  C8  UNL     1      23.388   3.205  48.864  1.00  0.00    -0.003 A 
HETATM    5  C9  UNL     1      24.258   2.898  50.020  1.00  0.00     0.008 A 
HETATM    6  C10 UNL     1      23.850   2.013  50.907  1.00  0.00    -0.043 A 
ENDROOT
BRANCH   6   7
HETATM    7  C11 UNL     1      24.851   1.788  51.940  1.00  0.00    -0.027 A 
HETATM    8  C12 UNL     1      25.029   2.596  53.038  1.00  0.00     0.015 A 
HETATM    9  C13 UNL     1      26.020   2.429  53.980  1.00  0.00     0.040 A 
HETATM   10  C14 UNL     1      26.915   1.411  53.874  1.00  0.00     0.102 A 
HETATM   11  C15 UNL     1      26.816   0.548  52.806  1.00  0.00     0.102 A 
HETATM   12  O3  UNL     1      27.915   1.232  54.816  1.00  0.00    -0.346 OA
HETATM   13  C16 UNL     1      25.809   0.768  51.901  1.00  0.00     0.051 A 
HETATM   14  O2  UNL     1      27.724  -0.492  52.690  1.00  0.00    -0.346 OA
HETATM   15  C17 UNL     1      28.938  -0.373  53.448  1.00  0.00     0.202 C 
HETATM   16  C18 UNL     1      28.503  -0.078  54.869  1.00  0.00     0.202 C 
ENDBRANCH   6   7
BRANCH   1  17
HETATM   17  C4  UNL     1      21.895   1.491  52.250  1.00  0.00     0.013 C 
BRANCH  17  18
HETATM   18  C3  UNL     1      21.467   0.315  53.031  1.00  0.00     0.031 C 
BRANCH  18  19
HETATM   19  C2  UNL     1      22.401  -0.113  54.062  1.00  0.00     0.023 C 
HETATM   20  C1  UNL     1      22.138  -1.223  54.758  1.00  0.00     0.132 C 
HETATM   21 CL1  UNL     1      20.698  -2.157  54.448  1.00  0.00    -0.058 Cl
BRANCH  20  22
HETATM   22  O1  UNL     1      22.970  -1.717  55.766  1.00  0.00    -0.351 OA
HETATM   23  H1  UNL     1      22.606  -2.508  56.304  1.00  0.00     0.218 HD
ENDBRANCH  20  22
ENDBRANCH  18  19
ENDBRANCH  17  18
ENDBRANCH   1  17
TORSDOF 5
ENDMDL
MODEL 4
REMARK VINA RESULT:      -7.8      2.024      2.625
REMARK  5 active torsions:
REMARK  status: ('A' for Active; 'I' for Inactive)
REMARK    1  A    between atoms: O1_1  and  C1_2 
REMARK    2  A    between atoms: C2_4  and  C3_5 
REMARK    3  A    between atoms: C3_5  and  C4_6 
REMARK    4  A    between atoms: C4_6  and  C5_7 
REMARK    5  A    between atoms: C10_12  and  C11_13 
ROOT
HETATM    1  C5  UNL     1      23.038   2.692  50.539  1.00  0.00     0.023 A 
HETATM    2  C6  UNL     1      21.723   2.681  49.814  1.00  0.00     0.036 A 
HETATM    3  C7  UNL     1      20.913   1.445  50.119  1.00  0.00    -0.026 A 
HETATM    4  C8  UNL     1      21.172   0.443  50.926  1.00  0.00    -0.003 A 
HETATM    5  C9  UNL     1      22.456   0.513  51.658  1.00  0.00     0.008 A 
HETATM    6  C10 UNL     1      23.250   1.545  51.452  1.00  0.00    -0.043 A 
ENDROOT
BRANCH   6   7
HETATM    7  C11 UNL     1      24.435   1.486  52.295  1.00  0.00    -0.027 A 
HETATM    8  C12 UNL     1      24.852   2.501  53.122  1.00  0.00     0.015 A 
HETATM    9  C13 UNL     1      26.010   2.479  53.866  1.00  0.00     0.040 A 
HETATM   10  C14 UNL     1      26.843   1.405  53.824  1.00  0.00     0.102 A 
HETATM   11  C15 UNL     1      26.509   0.337  53.023  1.00  0.00     0.102 A 
HETATM   12  O3  UNL     1      28.010   1.369  54.570  1.00  0.00    -0.346 OA
HETATM   13  C16 UNL     1      25.343   0.420  52.305  1.00  0.00     0.051 A 
HETATM   14  O2  UNL     1      27.351  -0.763  52.975  1.00  0.00    -0.346 OA
HETATM   15  C17 UNL     1      28.696  -0.562  53.434  1.00  0.00     0.202 C 
HETATM   16  C18 UNL     1      28.567   0.067  54.807  1.00  0.00     0.202 C 
ENDBRANCH   6   7
BRANCH   1  17
HETATM   17  C4  UNL     1      24.233   2.799  49.620  1.00  0.00     0.013 C 
BRANCH  17  18
HETATM   18  C3  UNL     1      24.947   4.089  49.552  1.00  0.00     0.031 C 
BRANCH  18  19
HETATM   19  C2  UNL     1      26.399   3.991  49.580  1.00  0.00     0.023 C 
HETATM   20  C1  UNL     1      27.128   4.981  49.056  1.00  0.00     0.132 C 
HETATM   21 CL1  UNL     1      26.364   6.377  48.342  1.00  0.00    -0.058 Cl
BRANCH  20  22
HETATM   22  O1  UNL     1      28.524   4.983  49.034  1.00  0.00    -0.351 OA
HETATM   23  H1  UNL     1      28.978   4.073  49.153  1.00  0.00     0.218 HD
ENDBRANCH  20  22
ENDBRANCH  18  19
ENDBRANCH  17  18
ENDBRANCH   1  17
TORSDOF 5
ENDMDL
MODEL 5
REMARK VINA RESULT:      -7.7      2.250      5.358
REMARK  5 active torsions:
REMARK  status: ('A' for Active; 'I' for Inactive)
REMARK    1  A    between atoms: O1_1  and  C1_2 
REMARK    2  A    between atoms: C2_4  and  C3_5 
REMARK    3  A    between atoms: C3_5  and  C4_6 
REMARK    4  A    between atoms: C4_6  and  C5_7 
REMARK    5  A    between atoms: C10_12  and  C11_13 
ROOT
HETATM    1  C5  UNL     1      23.625   0.056  53.063  1.00  0.00     0.023 A 
HETATM    2  C6  UNL     1      23.119  -0.993  54.012  1.00  0.00     0.036 A 
HETATM    3  C7  UNL     1      21.745  -0.668  54.542  1.00  0.00    -0.026 A 
HETATM    4  C8  UNL     1      20.949   0.340  54.268  1.00  0.00    -0.003 A 
HETATM    5  C9  UNL     1      21.463   1.326  53.293  1.00  0.00     0.008 A 
HETATM    6  C10 UNL     1      22.664   1.147  52.779  1.00  0.00    -0.043 A 
ENDROOT
BRANCH   6   7
HETATM    7  C11 UNL     1      22.985   2.172  51.797  1.00  0.00    -0.027 A 
HETATM    8  C12 UNL     1      23.152   1.934  50.453  1.00  0.00     0.015 A 
HETATM    9  C13 UNL     1      23.526   2.886  49.531  1.00  0.00     0.040 A 
HETATM   10  C14 UNL     1      23.760   4.170  49.913  1.00  0.00     0.102 A 
HETATM   11  C15 UNL     1      23.618   4.504  51.241  1.00  0.00     0.102 A 
HETATM   12  O3  UNL     1      24.136   5.137  48.994  1.00  0.00    -0.346 OA
HETATM   13  C16 UNL     1      23.245   3.511  52.110  1.00  0.00     0.051 A 
HETATM   14  O2  UNL     1      23.854   5.810  51.639  1.00  0.00    -0.346 OA
HETATM   15  C17 UNL     1      24.613   6.629  50.737  1.00  0.00     0.202 C 
HETATM   16  C18 UNL     1      23.924   6.500  49.393  1.00  0.00     0.202 C 
ENDBRANCH   6   7
BRANCH   1  17
HETATM   17  C4  UNL     1      24.938   0.672  53.487  1.00  0.00     0.013 C 
BRANCH  17  18
HETATM   18  C3  UNL     1      26.110   0.485  52.611  1.00  0.00     0.031 C 
BRANCH  18  19
HETATM   19  C2  UNL     1      26.916   1.679  52.399  1.00  0.00     0.023 C 
HETATM   20  C1  UNL     1      28.022   1.856  53.129  1.00  0.00     0.132 C 
HETATM   21 CL1  UNL     1      28.505   0.682  54.325  1.00  0.00    -0.058 Cl
BRANCH  20  22
HETATM   22  O1  UNL     1      28.862   2.965  53.002  1.00  0.00    -0.351 OA
HETATM   23  H1  UNL     1      28.525   3.718  52.396  1.00  0.00     0.218 HD
ENDBRANCH  20  22
ENDBRANCH  18  19
ENDBRANCH  17  18
ENDBRANCH   1  17
TORSDOF 5
ENDMDL
MODEL 6
REMARK VINA RESULT:      -7.7      2.340      2.893
REMARK  5 active torsions:
REMARK  status: ('A' for Active; 'I' for Inactive)
REMARK    1  A    between atoms: O1_1  and  C1_2 
REMARK    2  A    between atoms: C2_4  and  C3_5 
REMARK    3  A    between atoms: C3_5  and  C4_6 
REMARK    4  A    between atoms: C4_6  and  C5_7 
REMARK    5  A    between atoms: C10_12  and  C11_13 
ROOT
HETATM    1  C5  UNL     1      22.517   1.259  52.951  1.00  0.00     0.023 A 
HETATM    2  C6  UNL     1      21.051   1.356  53.262  1.00  0.00     0.036 A 
HETATM    3  C7  UNL     1      20.569   0.204  54.108  1.00  0.00    -0.026 A 
HETATM    4  C8  UNL     1      21.234  -0.805  54.621  1.00  0.00    -0.003 A 
HETATM    5  C9  UNL     1      22.684  -0.839  54.333  1.00  0.00     0.008 A 
HETATM    6  C10 UNL     1      23.208   0.113  53.586  1.00  0.00    -0.043 A 
ENDROOT
BRANCH   6   7
HETATM    7  C11 UNL     1      24.650  -0.041  53.454  1.00  0.00    -0.027 A 
HETATM    8  C12 UNL     1      25.267  -1.140  52.908  1.00  0.00     0.015 A 
HETATM    9  C13 UNL     1      26.631  -1.322  52.846  1.00  0.00     0.040 A 
HETATM   10  C14 UNL     1      27.480  -0.383  53.342  1.00  0.00     0.102 A 
HETATM   11  C15 UNL     1      26.954   0.755  53.909  1.00  0.00     0.102 A 
HETATM   12  O3  UNL     1      28.854  -0.554  53.284  1.00  0.00    -0.346 OA
HETATM   13  C16 UNL     1      25.588   0.876  53.942  1.00  0.00     0.051 A 
HETATM   14  O2  UNL     1      27.812   1.717  54.417  1.00  0.00    -0.346 OA
HETATM   15  C17 UNL     1      29.159   1.299  54.686  1.00  0.00     0.202 C 
HETATM   16  C18 UNL     1      29.642   0.640  53.410  1.00  0.00     0.202 C 
ENDBRANCH   6   7
BRANCH   1  17
HETATM   17  C4  UNL     1      22.821   1.242  51.471  1.00  0.00     0.013 C 
BRANCH  17  18
HETATM   18  C3  UNL     1      21.890   0.527  50.577  1.00  0.00     0.031 C 
BRANCH  18  19
HETATM   19  C2  UNL     1      21.424   1.296  49.432  1.00  0.00     0.023 C 
HETATM   20  C1  UNL     1      20.110   1.474  49.261  1.00  0.00     0.132 C 
HETATM   21 CL1  UNL     1      18.958   0.799  50.382  1.00  0.00    -0.058 Cl
BRANCH  20  22
HETATM   22  O1  UNL     1      19.562   2.195  48.197  1.00  0.00    -0.351 OA
HETATM   23  H1  UNL     1      18.744   1.779  47.743  1.00  0.00     0.218 HD
ENDBRANCH  20  22
ENDBRANCH  18  19
ENDBRANCH  17  18
ENDBRANCH   1  17
TORSDOF 5
ENDMDL
MODEL 7
REMARK VINA RESULT:      -7.4      3.021      5.933
REMARK  5 active torsions:
REMARK  status: ('A' for Active; 'I' for Inactive)
REMARK    1  A    between atoms: O1_1  and  C1_2 
REMARK    2  A    between atoms: C2_4  and  C3_5 
REMARK    3  A    between atoms: C3_5  and  C4_6 
REMARK    4  A    between atoms: C4_6  and  C5_7 
REMARK    5  A    between atoms: C10_12  and  C11_13 
ROOT
HETATM    1  C5  UNL     1      24.705   1.545  52.163  1.00  0.00     0.023 A 
HETATM    2  C6  UNL     1      26.174   1.690  51.889  1.00  0.00     0.036 A 
HETATM    3  C7  UNL     1      26.968   0.510  52.392  1.00  0.00    -0.026 A 
HETATM    4  C8  UNL     1      26.564  -0.595  52.974  1.00  0.00    -0.003 A 
HETATM    5  C9  UNL     1      25.105  -0.721  53.185  1.00  0.00     0.008 A 
HETATM    6  C10 UNL     1      24.318   0.263  52.797  1.00  0.00    -0.043 A 
ENDROOT
BRANCH   6   7
HETATM    7  C11 UNL     1      22.915  -0.051  53.022  1.00  0.00    -0.027 A 
HETATM    8  C12 UNL     1      22.447  -0.809  54.068  1.00  0.00     0.015 A 
HETATM    9  C13 UNL     1      21.130  -1.169  54.246  1.00  0.00     0.040 A 
HETATM   10  C14 UNL     1      20.177  -0.778  53.359  1.00  0.00     0.102 A 
HETATM   11  C15 UNL     1      20.550  -0.015  52.277  1.00  0.00     0.102 A 
HETATM   12  O3  UNL     1      18.848  -1.133  53.528  1.00  0.00    -0.346 OA
HETATM   13  C16 UNL     1      21.877   0.310  52.154  1.00  0.00     0.051 A 
HETATM   14  O2  UNL     1      19.585   0.389  51.368  1.00  0.00    -0.346 OA
HETATM   15  C17 UNL     1      18.346  -0.336  51.383  1.00  0.00     0.202 C 
HETATM   16  C18 UNL     1      17.887  -0.328  52.827  1.00  0.00     0.202 C 
ENDBRANCH   6   7
BRANCH   1  17
HETATM   17  C4  UNL     1      24.130   2.677  52.983  1.00  0.00     0.013 C 
BRANCH  17  18
HETATM   18  C3  UNL     1      23.240   3.643  52.310  1.00  0.00     0.031 C 
BRANCH  18  19
HETATM   19  C2  UNL     1      23.508   5.041  52.613  1.00  0.00     0.023 C 
HETATM   20  C1  UNL     1      24.087   5.809  51.684  1.00  0.00     0.132 C 
HETATM   21 CL1  UNL     1      24.523   5.157  50.127  1.00  0.00    -0.058 Cl
BRANCH  20  22
HETATM   22  O1  UNL     1      24.385   7.160  51.876  1.00  0.00    -0.351 OA
HETATM   23  H1  UNL     1      25.339   7.372  52.182  1.00  0.00     0.218 HD
ENDBRANCH  20  22
ENDBRANCH  18  19
ENDBRANCH  17  18
ENDBRANCH   1  17
TORSDOF 5
ENDMDL
MODEL 8
REMARK VINA RESULT:      -7.3      2.623      3.974
REMARK  5 active torsions:
REMARK  status: ('A' for Active; 'I' for Inactive)
REMARK    1  A    between atoms: O1_1  and  C1_2 
REMARK    2  A    between atoms: C2_4  and  C3_5 
REMARK    3  A    between atoms: C3_5  and  C4_6 
REMARK    4  A    between atoms: C4_6  and  C5_7 
REMARK    5  A    between atoms: C10_12  and  C11_13 
ROOT
HETATM    1  C5  UNL     1      21.730   0.483  52.854  1.00  0.00     0.023 A 
HETATM    2  C6  UNL     1      20.802  -0.236  53.791  1.00  0.00     0.036 A 
HETATM    3  C7  UNL     1      21.545  -1.072  54.803  1.00  0.00    -0.026 A 
HETATM    4  C8  UNL     1      22.836  -1.218  54.994  1.00  0.00    -0.003 A 
HETATM    5  C9  UNL     1      23.717  -0.457  54.082  1.00  0.00     0.008 A 
HETATM    6  C10 UNL     1      23.170   0.294  53.147  1.00  0.00    -0.043 A 
ENDROOT
BRANCH   6   7
HETATM    7  C11 UNL     1      24.176   1.018  52.383  1.00  0.00    -0.027 A 
HETATM    8  C12 UNL     1      25.505   0.673  52.328  1.00  0.00     0.015 A 
HETATM    9  C13 UNL     1      26.473   1.395  51.665  1.00  0.00     0.040 A 
HETATM   10  C14 UNL     1      26.155   2.537  50.999  1.00  0.00     0.102 A 
HETATM   11  C15 UNL     1      24.846   2.962  50.998  1.00  0.00     0.102 A 
HETATM   12  O3  UNL     1      27.120   3.271  50.327  1.00  0.00    -0.346 OA
HETATM   13  C16 UNL     1      23.929   2.201  51.677  1.00  0.00     0.051 A 
HETATM   14  O2  UNL     1      24.513   4.125  50.321  1.00  0.00    -0.346 OA
HETATM   15  C17 UNL     1      25.592   5.019  50.011  1.00  0.00     0.202 C 
HETATM   16  C18 UNL     1      26.637   4.169  49.317  1.00  0.00     0.202 C 
ENDBRANCH   6   7
BRANCH   1  17
HETATM   17  C4  UNL     1      21.491   0.157  51.398  1.00  0.00     0.013 C 
BRANCH  17  18
HETATM   18  C3  UNL     1      20.334   0.780  50.726  1.00  0.00     0.031 C 
BRANCH  18  19
HETATM   19  C2  UNL     1      20.476   2.202  50.450  1.00  0.00     0.023 C 
HETATM   20  C1  UNL     1      21.131   2.589  49.350  1.00  0.00     0.132 C 
HETATM   21 CL1  UNL     1      21.814   1.418  48.254  1.00  0.00    -0.058 Cl
BRANCH  20  22
HETATM   22  O1  UNL     1      21.321   3.927  48.996  1.00  0.00    -0.351 OA
HETATM   23  H1  UNL     1      21.715   4.533  49.720  1.00  0.00     0.218 HD
ENDBRANCH  20  22
ENDBRANCH  18  19
ENDBRANCH  17  18
ENDBRANCH   1  17
TORSDOF 5
ENDMDL
MODEL 9
REMARK VINA RESULT:      -7.2      3.240      6.369
REMARK  5 active torsions:
REMARK  status: ('A' for Active; 'I' for Inactive)
REMARK    1  A    between atoms: O1_1  and  C1_2 
REMARK    2  A    between atoms: C2_4  and  C3_5 
REMARK    3  A    between atoms: C3_5  and  C4_6 
REMARK    4  A    between atoms: C4_6  and  C5_7 
REMARK    5  A    between atoms: C10_12  and  C11_13 
ROOT
HETATM    1  C5  UNL     1      24.556   0.094  53.691  1.00  0.00     0.023 A 
HETATM    2  C6  UNL     1      25.626  -0.864  54.129  1.00  0.00     0.036 A 
HETATM    3  C7  UNL     1      26.837  -0.817  53.232  1.00  0.00    -0.026 A 
HETATM    4  C8  UNL     1      27.089  -0.058  52.191  1.00  0.00    -0.003 A 
HETATM    5  C9  UNL     1      26.030   0.906  51.819  1.00  0.00     0.008 A 
HETATM    6  C10 UNL     1      24.920   0.937  52.529  1.00  0.00    -0.043 A 
ENDROOT
BRANCH   6   7
HETATM    7  C11 UNL     1      24.016   1.981  52.066  1.00  0.00    -0.027 A 
HETATM    8  C12 UNL     1      23.718   3.120  52.775  1.00  0.00     0.015 A 
HETATM    9  C13 UNL     1      22.811   4.075  52.375  1.00  0.00     0.040 A 
HETATM   10  C14 UNL     1      22.130   3.941  51.206  1.00  0.00     0.102 A 
HETATM   11  C15 UNL     1      22.362   2.830  50.426  1.00  0.00     0.102 A 
HETATM   12  O3  UNL     1      21.215   4.896  50.792  1.00  0.00    -0.346 OA
HETATM   13  C16 UNL     1      23.277   1.914  50.880  1.00  0.00     0.051 A 
HETATM   14  O2  UNL     1      21.673   2.685  49.233  1.00  0.00    -0.346 OA
HETATM   15  C17 UNL     1      20.484   3.476  49.078  1.00  0.00     0.202 C 
HETATM   16  C18 UNL     1      20.899   4.899  49.391  1.00  0.00     0.202 C 
ENDBRANCH   6   7
BRANCH   1  17
HETATM   17  C4  UNL     1      23.230  -0.571  53.403  1.00  0.00     0.013 C 
BRANCH  17  18
HETATM   18  C3  UNL     1      22.179  -0.508  54.438  1.00  0.00     0.031 C 
BRANCH  18  19
HETATM   19  C2  UNL     1      20.890  -1.056  54.041  1.00  0.00     0.023 C 
HETATM   20  C1  UNL     1      19.995  -0.253  53.455  1.00  0.00     0.132 C 
HETATM   21 CL1  UNL     1      20.352   1.429  53.167  1.00  0.00    -0.058 Cl
BRANCH  20  22
HETATM   22  O1  UNL     1      18.733  -0.681  53.037  1.00  0.00    -0.351 OA
HETATM   23  H1  UNL     1      18.195  -1.228  53.715  1.00  0.00     0.218 HD
ENDBRANCH  20  22
ENDBRANCH  18  19
ENDBRANCH  17  18
ENDBRANCH   1  17
TORSDOF 5
ENDMDL
