MODEL 1
REMARK VINA RESULT:      -9.2      0.000      0.000
REMARK  6 active torsions:
REMARK  status: ('A' for Active; 'I' for Inactive)
REMARK    1  A    between atoms: C7_11  and  N3_12 
REMARK    2  A    between atoms: N3_12  and  C8_13 
REMARK    3  A    between atoms: N4_21  and  C16_22 
REMARK    4  A    between atoms: C16_22  and  C17_23 
REMARK    5  A    between atoms: C17_23  and  C18_24 
REMARK    6  A    between atoms: C18_24  and  N5_25 
ROOT
HETATM    1  O1  UNL     1      19.132   1.169  49.729  1.00  0.00    -0.271 OA
HETATM    2  C1  UNL     1      19.723   0.828  50.790  1.00  0.00     0.248 C 
HETATM    3  C2  UNL     1      18.698   0.503  51.831  1.00  0.00     0.279 C 
HETATM    4  O2  UNL     1      19.295  -0.165  52.929  1.00  0.00    -0.340 OA
HETATM    5  C3  UNL     1      20.649  -0.252  53.143  1.00  0.00     0.098 A 
HETATM    6  C4  UNL     1      21.199  -0.788  54.305  1.00  0.00     0.071 A 
HETATM    7  C5  UNL     1      22.564  -0.866  54.494  1.00  0.00     0.075 A 
HETATM    8  N1  UNL     1      23.064  -1.386  55.619  1.00  0.00    -0.241 NA
HETATM    9  C6  UNL     1      24.404  -1.488  55.858  1.00  0.00     0.236 A 
HETATM   10  N2  UNL     1      25.294  -1.046  54.920  1.00  0.00    -0.224 NA
HETATM   11  C7  UNL     1      24.790  -0.521  53.785  1.00  0.00     0.142 A 
HETATM   12  C13 UNL     1      23.440  -0.416  53.542  1.00  0.00     0.041 A 
HETATM   13  C14 UNL     1      22.931   0.120  52.383  1.00  0.00     0.050 A 
HETATM   14  C15 UNL     1      21.567   0.192  52.208  1.00  0.00     0.071 A 
HETATM   15  N4  UNL     1      21.155   0.761  50.973  1.00  0.00    -0.314 N 
ENDROOT
BRANCH  15  16
HETATM   16  C16 UNL     1      21.916   1.270  49.887  1.00  0.00     0.134 C 
BRANCH  16  17
HETATM   17  C17 UNL     1      22.038   2.763  49.792  1.00  0.00     0.040 C 
BRANCH  17  18
HETATM   18  C18 UNL     1      22.859   3.429  50.833  1.00  0.00     0.118 C 
BRANCH  18  19
HETATM   19  N5  UNL     1      24.199   3.599  50.366  1.00  0.00    -0.412 N 
HETATM   20  C19 UNL     1      24.716   4.920  50.348  1.00  0.00     0.117 C 
HETATM   21  C20 UNL     1      25.774   4.960  49.237  1.00  0.00     0.019 C 
HETATM   22  C21 UNL     1      26.750   3.831  49.398  1.00  0.00     0.003 C 
HETATM   23  C22 UNL     1      26.555   3.126  50.730  1.00  0.00     0.019 C 
HETATM   24  C23 UNL     1      25.133   2.614  50.848  1.00  0.00     0.117 C 
ENDBRANCH  18  19
ENDBRANCH  17  18
ENDBRANCH  16  17
ENDBRANCH  15  16
BRANCH  11  25
HETATM   25  N3  UNL     1      25.745  -0.073  52.833  1.00  0.00    -0.339 N 
HETATM   26  H5  UNL     1      25.650   0.137  51.825  1.00  0.00     0.167 HD
BRANCH  25  27
HETATM   27  C8  UNL     1      27.092   0.154  53.234  1.00  0.00     0.044 C 
HETATM   28  C9  UNL     1      28.140  -0.654  53.175  1.00  0.00     0.003 C 
HETATM   29  C10 UNL     1      29.008  -0.474  54.157  1.00  0.00     0.014 C 
HETATM   30  C11 UNL     1      28.861   0.979  54.390  1.00  0.00     0.003 C 
HETATM   31  C12 UNL     1      27.699   1.363  53.831  1.00  0.00     0.030 C 
ENDBRANCH  25  27
ENDBRANCH  11  25
TORSDOF 6
ENDMDL
MODEL 2
REMARK VINA RESULT:      -9.1      1.771      5.461
REMARK  6 active torsions:
REMARK  status: ('A' for Active; 'I' for Inactive)
REMARK    1  A    between atoms: C7_11  and  N3_12 
REMARK    2  A    between atoms: N3_12  and  C8_13 
REMARK    3  A    between atoms: N4_21  and  C16_22 
REMARK    4  A    between atoms: C16_22  and  C17_23 
REMARK    5  A    between atoms: C17_23  and  C18_24 
REMARK    6  A    between atoms: C18_24  and  N5_25 
ROOT
HETATM    1  O1  UNL     1      22.566  -2.010  55.204  1.00  0.00    -0.271 OA
HETATM    2  C1  UNL     1      22.143  -1.077  54.467  1.00  0.00     0.248 C 
HETATM    3  C2  UNL     1      20.672  -1.256  54.256  1.00  0.00     0.279 C 
HETATM    4  O2  UNL     1      20.103  -0.087  53.695  1.00  0.00    -0.340 OA
HETATM    5  C3  UNL     1      20.825   0.951  53.160  1.00  0.00     0.098 A 
HETATM    6  C4  UNL     1      20.234   2.017  52.486  1.00  0.00     0.071 A 
HETATM    7  C5  UNL     1      20.985   3.050  51.960  1.00  0.00     0.075 A 
HETATM    8  N1  UNL     1      20.390   4.061  51.318  1.00  0.00    -0.241 NA
HETATM    9  C6  UNL     1      21.083   5.106  50.779  1.00  0.00     0.236 A 
HETATM   10  N2  UNL     1      22.445   5.144  50.887  1.00  0.00    -0.224 NA
HETATM   11  C7  UNL     1      23.044   4.124  51.533  1.00  0.00     0.142 A 
HETATM   12  C13 UNL     1      22.349   3.068  52.078  1.00  0.00     0.041 A 
HETATM   13  C14 UNL     1      22.965   2.032  52.736  1.00  0.00     0.050 A 
HETATM   14  C15 UNL     1      22.204   1.007  53.256  1.00  0.00     0.071 A 
HETATM   15  N4  UNL     1      22.946  -0.008  53.916  1.00  0.00    -0.314 N 
ENDROOT
BRANCH  15  16
HETATM   16  C16 UNL     1      24.343  -0.146  54.131  1.00  0.00     0.134 C 
BRANCH  16  17
HETATM   17  C17 UNL     1      25.132  -0.795  53.031  1.00  0.00     0.040 C 
BRANCH  17  18
HETATM   18  C18 UNL     1      26.039   0.086  52.256  1.00  0.00     0.118 C 
BRANCH  18  19
HETATM   19  N5  UNL     1      27.106   0.547  53.089  1.00  0.00    -0.412 N 
HETATM   20  C19 UNL     1      28.316  -0.192  53.061  1.00  0.00     0.117 C 
HETATM   21  C20 UNL     1      28.984   0.008  54.428  1.00  0.00     0.019 C 
HETATM   22  C21 UNL     1      29.066   1.469  54.764  1.00  0.00     0.003 C 
HETATM   23  C22 UNL     1      28.690   2.326  53.568  1.00  0.00     0.019 C 
HETATM   24  C23 UNL     1      27.295   1.975  53.089  1.00  0.00     0.117 C 
ENDBRANCH  18  19
ENDBRANCH  17  18
ENDBRANCH  16  17
ENDBRANCH  15  16
BRANCH  11  25
HETATM   25  N3  UNL     1      24.460   4.198  51.628  1.00  0.00    -0.339 N 
HETATM   26  H5  UNL     1      25.089   4.144  52.446  1.00  0.00     0.167 HD
BRANCH  25  27
HETATM   27  C8  UNL     1      25.240   4.375  50.449  1.00  0.00     0.044 C 
HETATM   28  C9  UNL     1      25.943   3.489  49.760  1.00  0.00     0.003 C 
HETATM   29  C10 UNL     1      27.025   3.994  49.189  1.00  0.00     0.014 C 
HETATM   30  C11 UNL     1      26.565   5.370  48.901  1.00  0.00     0.003 C 
HETATM   31  C12 UNL     1      25.482   5.603  49.664  1.00  0.00     0.030 C 
ENDBRANCH  25  27
ENDBRANCH  11  25
TORSDOF 6
ENDMDL
MODEL 3
REMARK VINA RESULT:      -9.0      2.769      5.696
REMARK  6 active torsions:
REMARK  status: ('A' for Active; 'I' for Inactive)
REMARK    1  A    between atoms: C7_11  and  N3_12 
REMARK    2  A    between atoms: N3_12  and  C8_13 
REMARK    3  A    between atoms: N4_21  and  C16_22 
REMARK    4  A    between atoms: C16_22  and  C17_23 
REMARK    5  A    between atoms: C17_23  and  C18_24 
REMARK    6  A    between atoms: C18_24  and  N5_25 
ROOT
HETATM    1  O1  UNL     1      29.024   1.435  53.059  1.00  0.00    -0.271 OA
HETATM    2  C1  UNL     1      27.975   0.835  53.422  1.00  0.00     0.248 C 
HETATM    3  C2  UNL     1      28.256   0.095  54.692  1.00  0.00     0.279 C 
HETATM    4  O2  UNL     1      27.050  -0.342  55.292  1.00  0.00    -0.340 OA
HETATM    5  C3  UNL     1      25.826  -0.340  54.670  1.00  0.00     0.098 A 
HETATM    6  C4  UNL     1      24.688  -0.910  55.235  1.00  0.00     0.071 A 
HETATM    7  C5  UNL     1      23.468  -0.892  54.589  1.00  0.00     0.075 A 
HETATM    8  N1  UNL     1      22.393  -1.447  55.156  1.00  0.00    -0.241 NA
HETATM    9  C6  UNL     1      21.163  -1.458  54.562  1.00  0.00     0.236 A 
HETATM   10  N2  UNL     1      21.000  -0.881  53.334  1.00  0.00    -0.224 NA
HETATM   11  C7  UNL     1      22.086  -0.322  52.762  1.00  0.00     0.142 A 
HETATM   12  C13 UNL     1      23.326  -0.310  53.357  1.00  0.00     0.041 A 
HETATM   13  C14 UNL     1      24.428   0.261  52.770  1.00  0.00     0.050 A 
HETATM   14  C15 UNL     1      25.640   0.235  53.426  1.00  0.00     0.071 A 
HETATM   15  N4  UNL     1      26.708   0.858  52.726  1.00  0.00    -0.314 N 
ENDROOT
BRANCH  15  16
HETATM   16  C16 UNL     1      26.738   1.502  51.461  1.00  0.00     0.134 C 
BRANCH  16  17
HETATM   17  C17 UNL     1      26.210   2.906  51.409  1.00  0.00     0.040 C 
BRANCH  17  18
HETATM   18  C18 UNL     1      26.298   3.599  50.100  1.00  0.00     0.118 C 
BRANCH  18  19
HETATM   19  N5  UNL     1      25.022   4.137  49.743  1.00  0.00    -0.412 N 
HETATM   20  C19 UNL     1      23.985   3.213  49.459  1.00  0.00     0.117 C 
HETATM   21  C20 UNL     1      23.030   3.913  48.482  1.00  0.00     0.019 C 
HETATM   22  C21 UNL     1      22.637   5.263  49.008  1.00  0.00     0.003 C 
HETATM   23  C22 UNL     1      23.098   5.446  50.443  1.00  0.00     0.019 C 
HETATM   24  C23 UNL     1      24.600   5.261  50.539  1.00  0.00     0.117 C 
ENDBRANCH  18  19
ENDBRANCH  17  18
ENDBRANCH  16  17
ENDBRANCH  15  16
BRANCH  11  25
HETATM   25  N3  UNL     1      21.878   0.269  51.486  1.00  0.00    -0.339 N 
HETATM   26  H5  UNL     1      22.060  -0.091  50.535  1.00  0.00     0.167 HD
BRANCH  25  27
HETATM   27  C8  UNL     1      21.328   1.579  51.394  1.00  0.00     0.044 C 
HETATM   28  C9  UNL     1      21.509   2.629  52.181  1.00  0.00     0.003 C 
HETATM   29  C10 UNL     1      20.449   3.416  52.274  1.00  0.00     0.014 C 
HETATM   30  C11 UNL     1      19.865   3.249  50.925  1.00  0.00     0.003 C 
HETATM   31  C12 UNL     1      20.397   2.135  50.389  1.00  0.00     0.030 C 
ENDBRANCH  25  27
ENDBRANCH  11  25
TORSDOF 6
ENDMDL
MODEL 4
REMARK VINA RESULT:      -8.8      2.105      6.226
REMARK  6 active torsions:
REMARK  status: ('A' for Active; 'I' for Inactive)
REMARK    1  A    between atoms: C7_11  and  N3_12 
REMARK    2  A    between atoms: N3_12  and  C8_13 
REMARK    3  A    between atoms: N4_21  and  C16_22 
REMARK    4  A    between atoms: C16_22  and  C17_23 
REMARK    5  A    between atoms: C17_23  and  C18_24 
REMARK    6  A    between atoms: C18_24  and  N5_25 
ROOT
HETATM    1  O1  UNL     1      22.507  -0.280  54.121  1.00  0.00    -0.271 OA
HETATM    2  C1  UNL     1      22.164   0.698  53.402  1.00  0.00     0.248 C 
HETATM    3  C2  UNL     1      20.708   0.575  53.079  1.00  0.00     0.279 C 
HETATM    4  O2  UNL     1      20.212   1.785  52.536  1.00  0.00    -0.340 OA
HETATM    5  C3  UNL     1      21.000   2.823  52.103  1.00  0.00     0.098 A 
HETATM    6  C4  UNL     1      20.489   3.937  51.441  1.00  0.00     0.071 A 
HETATM    7  C5  UNL     1      21.303   4.969  51.018  1.00  0.00     0.075 A 
HETATM    8  N1  UNL     1      20.785   6.026  50.386  1.00  0.00    -0.241 NA
HETATM    9  C6  UNL     1      21.543   7.073  49.946  1.00  0.00     0.236 A 
HETATM   10  N2  UNL     1      22.894   7.063  50.152  1.00  0.00    -0.224 NA
HETATM   11  C7  UNL     1      23.417   5.996  50.789  1.00  0.00     0.142 A 
HETATM   12  C13 UNL     1      22.656   4.939  51.233  1.00  0.00     0.041 A 
HETATM   13  C14 UNL     1      23.194   3.855  51.882  1.00  0.00     0.050 A 
HETATM   14  C15 UNL     1      22.370   2.832  52.298  1.00  0.00     0.071 A 
HETATM   15  N4  UNL     1      23.034   1.765  52.960  1.00  0.00    -0.314 N 
ENDROOT
BRANCH  15  16
HETATM   16  C16 UNL     1      24.408   1.575  53.265  1.00  0.00     0.134 C 
BRANCH  16  17
HETATM   17  C17 UNL     1      25.159   0.600  52.406  1.00  0.00     0.040 C 
BRANCH  17  18
HETATM   18  C18 UNL     1      25.753  -0.571  53.096  1.00  0.00     0.118 C 
BRANCH  18  19
HETATM   19  N5  UNL     1      27.151  -0.359  53.308  1.00  0.00    -0.412 N 
HETATM   20  C19 UNL     1      27.543   0.167  54.566  1.00  0.00     0.117 C 
HETATM   21  C20 UNL     1      28.853   0.932  54.331  1.00  0.00     0.019 C 
HETATM   22  C21 UNL     1      29.840   0.072  53.595  1.00  0.00     0.003 C 
HETATM   23  C22 UNL     1      29.353  -1.364  53.508  1.00  0.00     0.019 C 
HETATM   24  C23 UNL     1      28.000  -1.419  52.829  1.00  0.00     0.117 C 
ENDBRANCH  18  19
ENDBRANCH  17  18
ENDBRANCH  16  17
ENDBRANCH  15  16
BRANCH  11  25
HETATM   25  N3  UNL     1      24.824   6.022  50.986  1.00  0.00    -0.339 N 
HETATM   26  H5  UNL     1      25.388   6.266  51.817  1.00  0.00     0.167 HD
BRANCH  25  27
HETATM   27  C8  UNL     1      25.695   5.667  49.917  1.00  0.00     0.044 C 
HETATM   28  C9  UNL     1      25.986   4.472  49.425  1.00  0.00     0.003 C 
HETATM   29  C10 UNL     1      27.222   4.371  48.964  1.00  0.00     0.014 C 
HETATM   30  C11 UNL     1      27.447   5.750  48.478  1.00  0.00     0.003 C 
HETATM   31  C12 UNL     1      26.521   6.538  49.055  1.00  0.00     0.030 C 
ENDBRANCH  25  27
ENDBRANCH  11  25
TORSDOF 6
ENDMDL
MODEL 5
REMARK VINA RESULT:      -8.6      1.952      4.803
REMARK  6 active torsions:
REMARK  status: ('A' for Active; 'I' for Inactive)
REMARK    1  A    between atoms: C7_11  and  N3_12 
REMARK    2  A    between atoms: N3_12  and  C8_13 
REMARK    3  A    between atoms: N4_21  and  C16_22 
REMARK    4  A    between atoms: C16_22  and  C17_23 
REMARK    5  A    between atoms: C17_23  and  C18_24 
REMARK    6  A    between atoms: C18_24  and  N5_25 
ROOT
HETATM    1  O1  UNL     1      20.899  -1.940  53.950  1.00  0.00    -0.271 OA
HETATM    2  C1  UNL     1      22.006  -1.351  54.081  1.00  0.00     0.248 C 
HETATM    3  C2  UNL     1      22.596  -1.716  55.407  1.00  0.00     0.279 C 
HETATM    4  O2  UNL     1      23.956  -1.327  55.474  1.00  0.00    -0.340 OA
HETATM    5  C3  UNL     1      24.570  -0.489  54.576  1.00  0.00     0.098 A 
HETATM    6  C4  UNL     1      25.866  -0.010  54.750  1.00  0.00     0.071 A 
HETATM    7  C5  UNL     1      26.461   0.829  53.830  1.00  0.00     0.075 A 
HETATM    8  N1  UNL     1      27.707   1.272  54.023  1.00  0.00    -0.241 NA
HETATM    9  C6  UNL     1      28.343   2.104  53.147  1.00  0.00     0.236 A 
HETATM   10  N2  UNL     1      27.698   2.514  52.014  1.00  0.00    -0.224 NA
HETATM   11  C7  UNL     1      26.441   2.067  51.819  1.00  0.00     0.142 A 
HETATM   12  C13 UNL     1      25.797   1.230  52.701  1.00  0.00     0.041 A 
HETATM   13  C14 UNL     1      24.516   0.777  52.497  1.00  0.00     0.050 A 
HETATM   14  C15 UNL     1      23.934  -0.060  53.424  1.00  0.00     0.071 A 
HETATM   15  N4  UNL     1      22.610  -0.466  53.110  1.00  0.00    -0.314 N 
ENDROOT
BRANCH  15  16
HETATM   16  C16 UNL     1      21.783  -0.153  51.998  1.00  0.00     0.134 C 
BRANCH  16  17
HETATM   17  C17 UNL     1      20.707   0.867  52.227  1.00  0.00     0.040 C 
BRANCH  17  18
HETATM   18  C18 UNL     1      21.034   2.268  51.864  1.00  0.00     0.118 C 
BRANCH  18  19
HETATM   19  N5  UNL     1      21.560   2.321  50.536  1.00  0.00    -0.412 N 
HETATM   20  C19 UNL     1      20.721   1.866  49.487  1.00  0.00     0.117 C 
HETATM   21  C20 UNL     1      21.648   1.364  48.371  1.00  0.00     0.019 C 
HETATM   22  C21 UNL     1      22.681   2.402  48.038  1.00  0.00     0.003 C 
HETATM   23  C22 UNL     1      22.367   3.722  48.722  1.00  0.00     0.019 C 
HETATM   24  C23 UNL     1      22.282   3.527  50.223  1.00  0.00     0.117 C 
ENDBRANCH  18  19
ENDBRANCH  17  18
ENDBRANCH  16  17
ENDBRANCH  15  16
BRANCH  11  25
HETATM   25  N3  UNL     1      25.803   2.513  50.630  1.00  0.00    -0.339 N 
HETATM   26  H5  UNL     1      25.130   2.040  50.004  1.00  0.00     0.167 HD
BRANCH  25  27
HETATM   27  C8  UNL     1      26.069   3.820  50.132  1.00  0.00     0.044 C 
HETATM   28  C9  UNL     1      25.464   4.967  50.402  1.00  0.00     0.003 C 
HETATM   29  C10 UNL     1      25.441   5.811  49.383  1.00  0.00     0.014 C 
HETATM   30  C11 UNL     1      26.716   5.470  48.716  1.00  0.00     0.003 C 
HETATM   31  C12 UNL     1      27.100   4.262  49.169  1.00  0.00     0.030 C 
ENDBRANCH  25  27
ENDBRANCH  11  25
TORSDOF 6
ENDMDL
MODEL 6
REMARK VINA RESULT:      -8.5      1.900      2.935
REMARK  6 active torsions:
REMARK  status: ('A' for Active; 'I' for Inactive)
REMARK    1  A    between atoms: C7_11  and  N3_12 
REMARK    2  A    between atoms: N3_12  and  C8_13 
REMARK    3  A    between atoms: N4_21  and  C16_22 
REMARK    4  A    between atoms: C16_22  and  C17_23 
REMARK    5  A    between atoms: C17_23  and  C18_24 
REMARK    6  A    between atoms: C18_24  and  N5_25 
ROOT
HETATM    1  O1  UNL     1      22.604   2.956  48.522  1.00  0.00    -0.271 OA
HETATM    2  C1  UNL     1      22.622   2.341  49.624  1.00  0.00     0.248 C 
HETATM    3  C2  UNL     1      21.251   1.810  49.904  1.00  0.00     0.279 C 
HETATM    4  O2  UNL     1      21.287   0.870  50.963  1.00  0.00    -0.340 OA
HETATM    5  C3  UNL     1      22.360   0.680  51.799  1.00  0.00     0.098 A 
HETATM    6  C4  UNL     1      22.311  -0.148  52.918  1.00  0.00     0.071 A 
HETATM    7  C5  UNL     1      23.406  -0.323  53.741  1.00  0.00     0.075 A 
HETATM    8  N1  UNL     1      23.330  -1.124  54.808  1.00  0.00    -0.241 NA
HETATM    9  C6  UNL     1      24.381  -1.333  55.655  1.00  0.00     0.236 A 
HETATM   10  N2  UNL     1      25.573  -0.709  55.420  1.00  0.00    -0.224 NA
HETATM   11  C7  UNL     1      25.649   0.099  54.343  1.00  0.00     0.142 A 
HETATM   12  C13 UNL     1      24.592   0.313  53.489  1.00  0.00     0.041 A 
HETATM   13  C14 UNL     1      24.676   1.137  52.393  1.00  0.00     0.050 A 
HETATM   14  C15 UNL     1      23.575   1.304  51.581  1.00  0.00     0.071 A 
HETATM   15  N4  UNL     1      23.777   2.176  50.478  1.00  0.00    -0.314 N 
ENDROOT
BRANCH  15  16
HETATM   16  C16 UNL     1      24.925   2.906  50.070  1.00  0.00     0.134 C 
BRANCH  16  17
HETATM   17  C17 UNL     1      25.149   4.233  50.735  1.00  0.00     0.040 C 
BRANCH  17  18
HETATM   18  C18 UNL     1      25.101   5.429  49.859  1.00  0.00     0.118 C 
BRANCH  18  19
HETATM   19  N5  UNL     1      23.883   6.146  50.072  1.00  0.00    -0.412 N 
HETATM   20  C19 UNL     1      23.073   6.400  48.936  1.00  0.00     0.117 C 
HETATM   21  C20 UNL     1      22.285   7.682  49.238  1.00  0.00     0.019 C 
HETATM   22  C21 UNL     1      21.603   7.578  50.572  1.00  0.00     0.003 C 
HETATM   23  C22 UNL     1      21.691   6.165  51.121  1.00  0.00     0.019 C 
HETATM   24  C23 UNL     1      23.140   5.737  51.237  1.00  0.00     0.117 C 
ENDBRANCH  18  19
ENDBRANCH  17  18
ENDBRANCH  16  17
ENDBRANCH  15  16
BRANCH  11  25
HETATM   25  N3  UNL     1      26.905   0.730  54.131  1.00  0.00    -0.339 N 
HETATM   26  H5  UNL     1      27.199   1.713  54.253  1.00  0.00     0.167 HD
BRANCH  25  27
HETATM   27  C8  UNL     1      28.013  -0.037  53.670  1.00  0.00     0.044 C 
HETATM   28  C9  UNL     1      28.031  -1.182  53.004  1.00  0.00     0.003 C 
HETATM   29  C10 UNL     1      29.067  -1.952  53.294  1.00  0.00     0.014 C 
HETATM   30  C11 UNL     1      30.097  -0.929  53.579  1.00  0.00     0.003 C 
HETATM   31  C12 UNL     1      29.460   0.234  53.807  1.00  0.00     0.030 C 
ENDBRANCH  25  27
ENDBRANCH  11  25
TORSDOF 6
ENDMDL
MODEL 7
REMARK VINA RESULT:      -8.4      1.629      5.838
REMARK  6 active torsions:
REMARK  status: ('A' for Active; 'I' for Inactive)
REMARK    1  A    between atoms: C7_11  and  N3_12 
REMARK    2  A    between atoms: N3_12  and  C8_13 
REMARK    3  A    between atoms: N4_21  and  C16_22 
REMARK    4  A    between atoms: C16_22  and  C17_23 
REMARK    5  A    between atoms: C17_23  and  C18_24 
REMARK    6  A    between atoms: C18_24  and  N5_25 
ROOT
HETATM    1  O1  UNL     1      22.550  -1.288  55.528  1.00  0.00    -0.271 OA
HETATM    2  C1  UNL     1      22.151  -0.869  54.407  1.00  0.00     0.248 C 
HETATM    3  C2  UNL     1      20.774  -1.399  54.155  1.00  0.00     0.279 C 
HETATM    4  O2  UNL     1      20.171  -0.724  53.066  1.00  0.00    -0.340 OA
HETATM    5  C3  UNL     1      20.841   0.094  52.190  1.00  0.00     0.098 A 
HETATM    6  C4  UNL     1      20.249   0.626  51.047  1.00  0.00     0.071 A 
HETATM    7  C5  UNL     1      20.945   1.449  50.184  1.00  0.00     0.075 A 
HETATM    8  N1  UNL     1      20.352   1.946  49.094  1.00  0.00    -0.241 NA
HETATM    9  C6  UNL     1      20.992   2.763  48.208  1.00  0.00     0.236 A 
HETATM   10  N2  UNL     1      22.298   3.103  48.423  1.00  0.00    -0.224 NA
HETATM   11  C7  UNL     1      22.897   2.602  49.522  1.00  0.00     0.142 A 
HETATM   12  C13 UNL     1      22.254   1.778  50.417  1.00  0.00     0.041 A 
HETATM   13  C14 UNL     1      22.869   1.270  51.535  1.00  0.00     0.050 A 
HETATM   14  C15 UNL     1      22.163   0.449  52.387  1.00  0.00     0.071 A 
HETATM   15  N4  UNL     1      22.898  -0.015  53.511  1.00  0.00    -0.314 N 
ENDROOT
BRANCH  15  16
HETATM   16  C16 UNL     1      24.242   0.224  53.904  1.00  0.00     0.134 C 
BRANCH  16  17
HETATM   17  C17 UNL     1      25.280  -0.710  53.355  1.00  0.00     0.040 C 
BRANCH  17  18
HETATM   18  C18 UNL     1      26.204  -0.151  52.338  1.00  0.00     0.118 C 
BRANCH  18  19
HETATM   19  N5  UNL     1      27.558  -0.293  52.774  1.00  0.00    -0.412 N 
HETATM   20  C19 UNL     1      27.925   0.367  53.974  1.00  0.00     0.117 C 
HETATM   21  C20 UNL     1      29.427   0.667  53.867  1.00  0.00     0.019 C 
HETATM   22  C21 UNL     1      30.186  -0.573  53.491  1.00  0.00     0.003 C 
HETATM   23  C22 UNL     1      29.294  -1.801  53.560  1.00  0.00     0.019 C 
HETATM   24  C23 UNL     1      28.091  -1.626  52.655  1.00  0.00     0.117 C 
ENDBRANCH  18  19
ENDBRANCH  17  18
ENDBRANCH  16  17
ENDBRANCH  15  16
BRANCH  11  25
HETATM   25  N3  UNL     1      24.253   2.979  49.714  1.00  0.00    -0.339 N 
HETATM   26  H5  UNL     1      25.131   2.454  49.564  1.00  0.00     0.167 HD
BRANCH  25  27
HETATM   27  C8  UNL     1      24.565   4.284  50.192  1.00  0.00     0.044 C 
HETATM   28  C9  UNL     1      24.008   4.981  51.171  1.00  0.00     0.003 C 
HETATM   29  C10 UNL     1      24.007   6.288  50.963  1.00  0.00     0.014 C 
HETATM   30  C11 UNL     1      25.262   6.442  50.194  1.00  0.00     0.003 C 
HETATM   31  C12 UNL     1      25.602   5.228  49.725  1.00  0.00     0.030 C 
ENDBRANCH  25  27
ENDBRANCH  11  25
TORSDOF 6
ENDMDL
MODEL 8
REMARK VINA RESULT:      -8.4      1.795      4.429
REMARK  6 active torsions:
REMARK  status: ('A' for Active; 'I' for Inactive)
REMARK    1  A    between atoms: C7_11  and  N3_12 
REMARK    2  A    between atoms: N3_12  and  C8_13 
REMARK    3  A    between atoms: N4_21  and  C16_22 
REMARK    4  A    between atoms: C16_22  and  C17_23 
REMARK    5  A    between atoms: C17_23  and  C18_24 
REMARK    6  A    between atoms: C18_24  and  N5_25 
ROOT
HETATM    1  O1  UNL     1      19.326  -0.604  53.608  1.00  0.00    -0.271 OA
HETATM    2  C1  UNL     1      20.577  -0.459  53.683  1.00  0.00     0.248 C 
HETATM    3  C2  UNL     1      21.151  -1.601  54.461  1.00  0.00     0.279 C 
HETATM    4  O2  UNL     1      22.559  -1.645  54.318  1.00  0.00    -0.340 OA
HETATM    5  C3  UNL     1      23.318  -0.634  53.783  1.00  0.00     0.098 A 
HETATM    6  C4  UNL     1      24.711  -0.647  53.790  1.00  0.00     0.071 A 
HETATM    7  C5  UNL     1      25.451   0.382  53.243  1.00  0.00     0.075 A 
HETATM    8  N1  UNL     1      26.787   0.342  53.263  1.00  0.00    -0.241 NA
HETATM    9  C6  UNL     1      27.567   1.331  52.737  1.00  0.00     0.236 A 
HETATM   10  N2  UNL     1      26.979   2.421  52.158  1.00  0.00    -0.224 NA
HETATM   11  C7  UNL     1      25.632   2.461  52.138  1.00  0.00     0.142 A 
HETATM   12  C13 UNL     1      24.843   1.466  52.668  1.00  0.00     0.041 A 
HETATM   13  C14 UNL     1      23.470   1.513  52.644  1.00  0.00     0.050 A 
HETATM   14  C15 UNL     1      22.744   0.479  53.195  1.00  0.00     0.071 A 
HETATM   15  N4  UNL     1      21.334   0.632  53.112  1.00  0.00    -0.314 N 
ENDROOT
BRANCH  15  16
HETATM   16  C16 UNL     1      20.545   1.675  52.556  1.00  0.00     0.134 C 
BRANCH  16  17
HETATM   17  C17 UNL     1      20.000   1.444  51.177  1.00  0.00     0.040 C 
BRANCH  17  18
HETATM   18  C18 UNL     1      19.575   2.649  50.423  1.00  0.00     0.118 C 
BRANCH  18  19
HETATM   19  N5  UNL     1      20.625   3.078  49.552  1.00  0.00    -0.412 N 
HETATM   20  C19 UNL     1      21.321   2.075  48.831  1.00  0.00     0.117 C 
HETATM   21  C20 UNL     1      22.730   2.623  48.568  1.00  0.00     0.019 C 
HETATM   22  C21 UNL     1      22.657   3.994  47.962  1.00  0.00     0.003 C 
HETATM   23  C22 UNL     1      21.232   4.341  47.567  1.00  0.00     0.019 C 
HETATM   24  C23 UNL     1      20.317   4.249  48.772  1.00  0.00     0.117 C 
ENDBRANCH  18  19
ENDBRANCH  17  18
ENDBRANCH  16  17
ENDBRANCH  15  16
BRANCH  11  25
HETATM   25  N3  UNL     1      25.056   3.608  51.527  1.00  0.00    -0.339 N 
HETATM   26  H5  UNL     1      24.233   4.176  51.790  1.00  0.00     0.167 HD
BRANCH  25  27
HETATM   27  C8  UNL     1      25.637   4.146  50.343  1.00  0.00     0.044 C 
HETATM   28  C9  UNL     1      26.430   3.569  49.453  1.00  0.00     0.003 C 
HETATM   29  C10 UNL     1      27.304   4.395  48.902  1.00  0.00     0.014 C 
HETATM   30  C11 UNL     1      26.529   5.655  48.903  1.00  0.00     0.003 C 
HETATM   31  C12 UNL     1      25.516   5.506  49.776  1.00  0.00     0.030 C 
ENDBRANCH  25  27
ENDBRANCH  11  25
TORSDOF 6
ENDMDL
MODEL 9
REMARK VINA RESULT:      -8.2      2.561      6.196
REMARK  6 active torsions:
REMARK  status: ('A' for Active; 'I' for Inactive)
REMARK    1  A    between atoms: C7_11  and  N3_12 
REMARK    2  A    between atoms: N3_12  and  C8_13 
REMARK    3  A    between atoms: N4_21  and  C16_22 
REMARK    4  A    between atoms: C16_22  and  C17_23 
REMARK    5  A    between atoms: C17_23  and  C18_24 
REMARK    6  A    between atoms: C18_24  and  N5_25 
ROOT
HETATM    1  O1  UNL     1      26.635   5.516  48.804  1.00  0.00    -0.271 OA
HETATM    2  C1  UNL     1      25.483   5.387  49.301  1.00  0.00     0.248 C 
HETATM    3  C2  UNL     1      24.826   6.731  49.354  1.00  0.00     0.279 C 
HETATM    4  O2  UNL     1      23.440   6.599  49.618  1.00  0.00    -0.340 OA
HETATM    5  C3  UNL     1      22.836   5.442  50.043  1.00  0.00     0.098 A 
HETATM    6  C4  UNL     1      21.500   5.384  50.433  1.00  0.00     0.071 A 
HETATM    7  C5  UNL     1      20.916   4.206  50.853  1.00  0.00     0.075 A 
HETATM    8  N1  UNL     1      19.631   4.180  51.221  1.00  0.00    -0.241 NA
HETATM    9  C6  UNL     1      19.004   3.044  51.645  1.00  0.00     0.236 A 
HETATM   10  N2  UNL     1      19.699   1.869  51.704  1.00  0.00    -0.224 NA
HETATM   11  C7  UNL     1      20.995   1.896  51.334  1.00  0.00     0.142 A 
HETATM   12  C13 UNL     1      21.630   3.038  50.907  1.00  0.00     0.041 A 
HETATM   13  C14 UNL     1      22.951   3.060  50.530  1.00  0.00     0.050 A 
HETATM   14  C15 UNL     1      23.522   4.242  50.113  1.00  0.00     0.071 A 
HETATM   15  N4  UNL     1      24.891   4.146  49.746  1.00  0.00    -0.314 N 
ENDROOT
BRANCH  15  16
HETATM   16  C16 UNL     1      25.772   3.032  49.737  1.00  0.00     0.134 C 
BRANCH  16  17
HETATM   17  C17 UNL     1      26.642   2.854  50.947  1.00  0.00     0.040 C 
BRANCH  17  18
HETATM   18  C18 UNL     1      26.010   2.221  52.131  1.00  0.00     0.118 C 
BRANCH  18  19
HETATM   19  N5  UNL     1      26.839   1.168  52.626  1.00  0.00    -0.412 N 
HETATM   20  C19 UNL     1      26.981   1.062  54.034  1.00  0.00     0.117 C 
HETATM   21  C20 UNL     1      28.349   0.414  54.288  1.00  0.00     0.019 C 
HETATM   22  C21 UNL     1      28.496  -0.840  53.476  1.00  0.00     0.003 C 
HETATM   23  C22 UNL     1      27.178  -1.230  52.829  1.00  0.00     0.019 C 
HETATM   24  C23 UNL     1      26.665  -0.098  51.961  1.00  0.00     0.117 C 
ENDBRANCH  18  19
ENDBRANCH  17  18
ENDBRANCH  16  17
ENDBRANCH  15  16
BRANCH  11  25
HETATM   25  N3  UNL     1      21.685   0.655  51.407  1.00  0.00    -0.339 N 
HETATM   26  H5  UNL     1      21.994   0.007  50.664  1.00  0.00     0.167 HD
BRANCH  25  27
HETATM   27  C8  UNL     1      22.060   0.127  52.675  1.00  0.00     0.044 C 
HETATM   28  C9  UNL     1      23.176   0.301  53.367  1.00  0.00     0.003 C 
HETATM   29  C10 UNL     1      23.524  -0.750  54.092  1.00  0.00     0.014 C 
HETATM   30  C11 UNL     1      22.194  -1.297  54.435  1.00  0.00     0.003 C 
HETATM   31  C12 UNL     1      21.304  -0.767  53.577  1.00  0.00     0.030 C 
ENDBRANCH  25  27
ENDBRANCH  11  25
TORSDOF 6
ENDMDL
