MODEL 1
REMARK VINA RESULT:      -7.6      0.000      0.000
REMARK  4 active torsions:
REMARK  status: ('A' for Active; 'I' for Inactive)
REMARK    1  A    between atoms: C1_2  and  C2_3 
REMARK    2  A    between atoms: C2_3  and  C3_4 
REMARK    3  A    between atoms: C4_5  and  C5_6 
REMARK    4  A    between atoms: C5_6  and  C6_7 
ROOT
HETATM    1  C6  UNL     1      26.101  -0.785  53.093  1.00  0.00     0.029 C 
HETATM    2  C7  UNL     1      25.836   0.317  52.417  1.00  0.00     0.026 C 
HETATM    3  C8  UNL     1      24.902   1.488  52.382  1.00  0.00     0.197 C 
HETATM    4  O1  UNL     1      24.235   1.432  51.166  1.00  0.00    -0.379 OA
HETATM    5  C9  UNL     1      22.863   1.675  51.011  1.00  0.00     0.074 C 
HETATM    6  C10 UNL     1      22.199   1.154  52.117  1.00  0.00     0.159 C 
HETATM    7  C11 UNL     1      20.747   1.367  52.025  1.00  0.00     0.052 C 
HETATM    8  N1  UNL     1      20.658   0.743  53.205  1.00  0.00    -0.217 NA
HETATM    9  S1  UNL     1      21.939   0.108  54.115  1.00  0.00     0.020 SA
HETATM   10  C12 UNL     1      23.023  -1.013  53.290  1.00  0.00     0.208 C 
HETATM   11  N2  UNL     1      23.909  -0.601  54.183  1.00  0.00    -0.179 NA
HETATM   12  N3  UNL     1      25.221  -1.109  54.189  1.00  0.00    -0.282 N 
HETATM   13  C13 UNL     1      19.245   1.580  51.947  1.00  0.00     0.223 C 
HETATM   14  O2  UNL     1      18.965   2.267  50.813  1.00  0.00    -0.383 OA
HETATM   15  C14 UNL     1      19.238   1.810  49.578  1.00  0.00     0.194 C 
HETATM   16  C15 UNL     1      20.705   1.520  49.328  1.00  0.00     0.193 C 
HETATM   17  O3  UNL     1      21.466   2.655  49.510  1.00  0.00    -0.386 OA
HETATM   18  C16 UNL     1      22.828   2.425  49.634  1.00  0.00     0.200 C 
HETATM   19  H14 UNL     1      25.685  -1.730  54.909  1.00  0.00     0.189 HD
ENDROOT
BRANCH   1  20
HETATM   20  C5  UNL     1      27.230  -1.734  52.743  1.00  0.00     0.085 C 
BRANCH  20  21
HETATM   21  C4  UNL     1      28.518  -1.175  53.187  1.00  0.00    -0.025 C 
HETATM   22  C3  UNL     1      29.195  -0.260  53.828  1.00  0.00    -0.028 C 
BRANCH  22  23
HETATM   23  C2  UNL     1      28.945   0.979  54.628  1.00  0.00     0.058 C 
BRANCH  23  24
HETATM   24  C1  UNL     1      28.839   2.202  53.741  1.00  0.00     0.225 C 
HETATM   25  F1  UNL     1      27.586   2.759  53.859  1.00  0.00    -0.255 F 
ENDBRANCH  23  24
ENDBRANCH  22  23
ENDBRANCH  20  21
ENDBRANCH   1  20
TORSDOF 4
ENDMDL
MODEL 2
REMARK VINA RESULT:      -7.5      1.702      2.325
REMARK  4 active torsions:
REMARK  status: ('A' for Active; 'I' for Inactive)
REMARK    1  A    between atoms: C1_2  and  C2_3 
REMARK    2  A    between atoms: C2_3  and  C3_4 
REMARK    3  A    between atoms: C4_5  and  C5_6 
REMARK    4  A    between atoms: C5_6  and  C6_7 
ROOT
HETATM    1  C6  UNL     1      24.971   0.486  52.759  1.00  0.00     0.029 C 
HETATM    2  C7  UNL     1      24.074   1.404  52.452  1.00  0.00     0.026 C 
HETATM    3  C8  UNL     1      22.712   1.900  52.829  1.00  0.00     0.197 C 
HETATM    4  O1  UNL     1      21.909   1.761  51.705  1.00  0.00    -0.379 OA
HETATM    5  C9  UNL     1      20.591   1.285  51.734  1.00  0.00     0.074 C 
HETATM    6  C10 UNL     1      20.511   0.279  52.692  1.00  0.00     0.159 C 
HETATM    7  C11 UNL     1      19.152  -0.276  52.779  1.00  0.00     0.052 C 
HETATM    8  N1  UNL     1      19.627  -1.086  53.733  1.00  0.00    -0.217 NA
HETATM    9  S1  UNL     1      21.216  -1.139  54.318  1.00  0.00     0.020 SA
HETATM   10  C12 UNL     1      22.498  -1.337  53.122  1.00  0.00     0.208 C 
HETATM   11  N2  UNL     1      23.249  -0.723  54.024  1.00  0.00    -0.179 NA
HETATM   12  N3  UNL     1      24.610  -0.467  53.781  1.00  0.00    -0.282 N 
HETATM   13  C13 UNL     1      17.754  -0.859  52.884  1.00  0.00     0.223 C 
HETATM   14  O2  UNL     1      16.945  -0.198  52.022  1.00  0.00    -0.383 OA
HETATM   15  C14 UNL     1      17.130  -0.179  50.690  1.00  0.00     0.194 C 
HETATM   16  C15 UNL     1      18.466   0.391  50.253  1.00  0.00     0.193 C 
HETATM   17  O3  UNL     1      18.611   1.689  50.694  1.00  0.00    -0.386 OA
HETATM   18  C16 UNL     1      19.909   2.176  50.639  1.00  0.00     0.200 C 
HETATM   19  H14 UNL     1      25.456  -0.893  54.253  1.00  0.00     0.189 HD
ENDROOT
BRANCH   1  20
HETATM   20  C5  UNL     1      26.311   0.354  52.063  1.00  0.00     0.085 C 
BRANCH  20  21
HETATM   21  C4  UNL     1      27.018  -0.844  52.548  1.00  0.00    -0.025 C 
HETATM   22  C3  UNL     1      28.089  -1.405  53.041  1.00  0.00    -0.028 C 
BRANCH  22  23
HETATM   23  C2  UNL     1      29.474  -1.025  53.462  1.00  0.00     0.058 C 
BRANCH  23  24
HETATM   24  C1  UNL     1      29.513   0.370  54.049  1.00  0.00     0.225 C 
HETATM   25  F1  UNL     1      28.749   0.419  55.192  1.00  0.00    -0.255 F 
ENDBRANCH  23  24
ENDBRANCH  22  23
ENDBRANCH  20  21
ENDBRANCH   1  20
TORSDOF 4
ENDMDL
MODEL 3
REMARK VINA RESULT:      -7.4      4.433      8.058
REMARK  4 active torsions:
REMARK  status: ('A' for Active; 'I' for Inactive)
REMARK    1  A    between atoms: C1_2  and  C2_3 
REMARK    2  A    between atoms: C2_3  and  C3_4 
REMARK    3  A    between atoms: C4_5  and  C5_6 
REMARK    4  A    between atoms: C5_6  and  C6_7 
ROOT
HETATM    1  C6  UNL     1      19.175  -0.050  52.523  1.00  0.00     0.029 C 
HETATM    2  C7  UNL     1      20.024  -0.148  53.529  1.00  0.00     0.026 C 
HETATM    3  C8  UNL     1      21.238   0.500  54.118  1.00  0.00     0.197 C 
HETATM    4  O1  UNL     1      22.247  -0.454  54.107  1.00  0.00    -0.379 OA
HETATM    5  C9  UNL     1      23.575  -0.189  53.744  1.00  0.00     0.074 C 
HETATM    6  C10 UNL     1      23.567   0.731  52.700  1.00  0.00     0.159 C 
HETATM    7  C11 UNL     1      24.932   1.058  52.258  1.00  0.00     0.052 C 
HETATM    8  N1  UNL     1      24.364   1.874  51.363  1.00  0.00    -0.217 NA
HETATM    9  S1  UNL     1      22.705   2.141  51.144  1.00  0.00     0.020 SA
HETATM   10  C12 UNL     1      21.694   0.716  50.900  1.00  0.00     0.208 C 
HETATM   11  N2  UNL     1      20.734   1.478  51.401  1.00  0.00    -0.179 NA
HETATM   12  N3  UNL     1      19.425   0.988  51.552  1.00  0.00    -0.282 N 
HETATM   13  C13 UNL     1      26.333   1.408  51.791  1.00  0.00     0.223 C 
HETATM   14  O2  UNL     1      27.225   0.740  52.562  1.00  0.00    -0.383 OA
HETATM   15  C14 UNL     1      27.292  -0.601  52.634  1.00  0.00     0.194 C 
HETATM   16  C15 UNL     1      26.015  -1.265  53.111  1.00  0.00     0.193 C 
HETATM   17  O3  UNL     1      25.668  -0.816  54.368  1.00  0.00    -0.386 OA
HETATM   18  C16 UNL     1      24.364  -1.101  54.745  1.00  0.00     0.200 C 
HETATM   19  H14 UNL     1      18.549   1.274  51.033  1.00  0.00     0.189 HD
ENDROOT
BRANCH   1  20
HETATM   20  C5  UNL     1      18.007  -0.995  52.314  1.00  0.00     0.085 C 
BRANCH  20  21
HETATM   21  C4  UNL     1      17.954  -1.982  53.406  1.00  0.00    -0.025 C 
HETATM   22  C3  UNL     1      17.632  -3.169  53.845  1.00  0.00    -0.028 C 
BRANCH  22  23
HETATM   23  C2  UNL     1      17.005  -4.430  53.341  1.00  0.00     0.058 C 
BRANCH  23  24
HETATM   24  C1  UNL     1      15.578  -4.200  52.890  1.00  0.00     0.225 C 
HETATM   25  F1  UNL     1      15.200  -5.184  52.007  1.00  0.00    -0.255 F 
ENDBRANCH  23  24
ENDBRANCH  22  23
ENDBRANCH  20  21
ENDBRANCH   1  20
TORSDOF 4
ENDMDL
MODEL 4
REMARK VINA RESULT:      -7.3      3.820      4.857
REMARK  4 active torsions:
REMARK  status: ('A' for Active; 'I' for Inactive)
REMARK    1  A    between atoms: C1_2  and  C2_3 
REMARK    2  A    between atoms: C2_3  and  C3_4 
REMARK    3  A    between atoms: C4_5  and  C5_6 
REMARK    4  A    between atoms: C5_6  and  C6_7 
ROOT
HETATM    1  C6  UNL     1      25.445   0.315  52.941  1.00  0.00     0.029 C 
HETATM    2  C7  UNL     1      24.331   0.963  52.657  1.00  0.00     0.026 C 
HETATM    3  C8  UNL     1      23.665   1.751  51.571  1.00  0.00     0.197 C 
HETATM    4  O1  UNL     1      23.430   3.020  52.083  1.00  0.00    -0.379 OA
HETATM    5  C9  UNL     1      23.642   4.207  51.368  1.00  0.00     0.074 C 
HETATM    6  C10 UNL     1      24.778   4.046  50.582  1.00  0.00     0.159 C 
HETATM    7  C11 UNL     1      25.069   5.258  49.800  1.00  0.00     0.052 C 
HETATM    8  N1  UNL     1      26.122   4.594  49.307  1.00  0.00    -0.217 NA
HETATM    9  S1  UNL     1      26.588   3.010  49.686  1.00  0.00     0.020 SA
HETATM   10  C12 UNL     1      26.797   2.629  51.396  1.00  0.00     0.208 C 
HETATM   11  N2  UNL     1      26.521   1.391  51.015  1.00  0.00    -0.179 NA
HETATM   12  N3  UNL     1      26.488   0.337  51.945  1.00  0.00    -0.282 N 
HETATM   13  C13 UNL     1      25.384   6.499  48.985  1.00  0.00     0.223 C 
HETATM   14  O2  UNL     1      24.428   7.429  49.227  1.00  0.00    -0.383 OA
HETATM   15  C14 UNL     1      24.192   7.956  50.442  1.00  0.00     0.194 C 
HETATM   16  C15 UNL     1      23.815   6.939  51.502  1.00  0.00     0.193 C 
HETATM   17  O3  UNL     1      22.676   6.251  51.138  1.00  0.00    -0.386 OA
HETATM   18  C16 UNL     1      22.445   5.091  51.862  1.00  0.00     0.200 C 
HETATM   19  H14 UNL     1      27.149  -0.484  52.035  1.00  0.00     0.189 HD
ENDROOT
BRANCH   1  20
HETATM   20  C5  UNL     1      25.695  -0.388  54.262  1.00  0.00     0.085 C 
BRANCH  20  21
HETATM   21  C4  UNL     1      26.903   0.159  54.904  1.00  0.00    -0.025 C 
HETATM   22  C3  UNL     1      28.171   0.467  54.856  1.00  0.00    -0.028 C 
BRANCH  22  23
HETATM   23  C2  UNL     1      29.314   0.406  53.892  1.00  0.00     0.058 C 
BRANCH  23  24
HETATM   24  C1  UNL     1      29.573  -1.012  53.427  1.00  0.00     0.225 C 
HETATM   25  F1  UNL     1      30.632  -1.548  54.122  1.00  0.00    -0.255 F 
ENDBRANCH  23  24
ENDBRANCH  22  23
ENDBRANCH  20  21
ENDBRANCH   1  20
TORSDOF 4
ENDMDL
MODEL 5
REMARK VINA RESULT:      -7.1      4.054      5.141
REMARK  4 active torsions:
REMARK  status: ('A' for Active; 'I' for Inactive)
REMARK    1  A    between atoms: C1_2  and  C2_3 
REMARK    2  A    between atoms: C2_3  and  C3_4 
REMARK    3  A    between atoms: C4_5  and  C5_6 
REMARK    4  A    between atoms: C5_6  and  C6_7 
ROOT
HETATM    1  C6  UNL     1      25.427   4.722  50.304  1.00  0.00     0.029 C 
HETATM    2  C7  UNL     1      24.272   5.018  50.870  1.00  0.00     0.026 C 
HETATM    3  C8  UNL     1      23.419   4.694  52.057  1.00  0.00     0.197 C 
HETATM    4  O1  UNL     1      22.231   4.168  51.566  1.00  0.00    -0.379 OA
HETATM    5  C9  UNL     1      21.578   3.056  52.116  1.00  0.00     0.074 C 
HETATM    6  C10 UNL     1      22.543   2.146  52.537  1.00  0.00     0.159 C 
HETATM    7  C11 UNL     1      21.932   0.945  53.125  1.00  0.00     0.052 C 
HETATM    8  N1  UNL     1      23.179   0.500  53.320  1.00  0.00    -0.217 NA
HETATM    9  S1  UNL     1      24.615   1.299  52.911  1.00  0.00     0.020 SA
HETATM   10  C12 UNL     1      24.775   1.847  51.241  1.00  0.00     0.208 C 
HETATM   11  N2  UNL     1      25.593   2.751  51.758  1.00  0.00    -0.179 NA
HETATM   12  N3  UNL     1      26.227   3.704  50.942  1.00  0.00    -0.282 N 
HETATM   13  C13 UNL     1      21.318  -0.302  53.737  1.00  0.00     0.223 C 
HETATM   14  O2  UNL     1      19.970  -0.164  53.737  1.00  0.00    -0.383 OA
HETATM   15  C14 UNL     1      19.235  -0.022  52.620  1.00  0.00     0.194 C 
HETATM   16  C15 UNL     1      19.602   1.187  51.780  1.00  0.00     0.193 C 
HETATM   17  O3  UNL     1      19.453   2.350  52.506  1.00  0.00    -0.386 OA
HETATM   18  C16 UNL     1      20.073   3.461  51.951  1.00  0.00     0.200 C 
HETATM   19  H14 UNL     1      27.254   3.793  50.706  1.00  0.00     0.189 HD
ENDROOT
BRANCH   1  20
HETATM   20  C5  UNL     1      25.915   5.347  49.012  1.00  0.00     0.085 C 
BRANCH  20  21
HETATM   21  C4  UNL     1      27.298   4.920  48.734  1.00  0.00    -0.025 C 
HETATM   22  C3  UNL     1      28.516   5.202  48.357  1.00  0.00    -0.028 C 
BRANCH  22  23
HETATM   23  C2  UNL     1      29.317   6.384  47.909  1.00  0.00     0.058 C 
BRANCH  23  24
HETATM   24  C1  UNL     1      28.478   7.644  47.878  1.00  0.00     0.225 C 
HETATM   25  F1  UNL     1      28.401   8.187  49.140  1.00  0.00    -0.255 F 
ENDBRANCH  23  24
ENDBRANCH  22  23
ENDBRANCH  20  21
ENDBRANCH   1  20
TORSDOF 4
ENDMDL
MODEL 6
REMARK VINA RESULT:      -7.1      4.540      6.665
REMARK  4 active torsions:
REMARK  status: ('A' for Active; 'I' for Inactive)
REMARK    1  A    between atoms: C1_2  and  C2_3 
REMARK    2  A    between atoms: C2_3  and  C3_4 
REMARK    3  A    between atoms: C4_5  and  C5_6 
REMARK    4  A    between atoms: C5_6  and  C6_7 
ROOT
HETATM    1  C6  UNL     1      25.629   5.407  49.271  1.00  0.00     0.029 C 
HETATM    2  C7  UNL     1      26.499   4.451  49.543  1.00  0.00     0.026 C 
HETATM    3  C8  UNL     1      26.603   2.972  49.753  1.00  0.00     0.197 C 
HETATM    4  O1  UNL     1      27.069   2.782  51.047  1.00  0.00    -0.379 OA
HETATM    5  C9  UNL     1      26.573   1.810  51.926  1.00  0.00     0.074 C 
HETATM    6  C10 UNL     1      25.199   1.705  51.731  1.00  0.00     0.159 C 
HETATM    7  C11 UNL     1      24.602   0.702  52.626  1.00  0.00     0.052 C 
HETATM    8  N1  UNL     1      23.430   1.004  52.056  1.00  0.00    -0.217 NA
HETATM    9  S1  UNL     1      23.162   2.144  50.831  1.00  0.00     0.020 SA
HETATM   10  C12 UNL     1      23.759   3.779  51.120  1.00  0.00     0.208 C 
HETATM   11  N2  UNL     1      23.806   3.850  49.799  1.00  0.00    -0.179 NA
HETATM   12  N3  UNL     1      24.245   5.018  49.152  1.00  0.00    -0.282 N 
HETATM   13  C13 UNL     1      23.969  -0.331  53.541  1.00  0.00     0.223 C 
HETATM   14  O2  UNL     1      24.945  -0.904  54.286  1.00  0.00    -0.383 OA
HETATM   15  C14 UNL     1      25.724  -0.223  55.145  1.00  0.00     0.194 C 
HETATM   16  C15 UNL     1      26.529   0.893  54.508  1.00  0.00     0.193 C 
HETATM   17  O3  UNL     1      27.360   0.399  53.525  1.00  0.00    -0.386 OA
HETATM   18  C16 UNL     1      27.878   1.360  52.669  1.00  0.00     0.200 C 
HETATM   19  H14 UNL     1      23.686   5.697  48.564  1.00  0.00     0.189 HD
ENDROOT
BRANCH   1  20
HETATM   20  C5  UNL     1      26.004   6.870  49.139  1.00  0.00     0.085 C 
BRANCH  20  21
HETATM   21  C4  UNL     1      27.040   7.036  48.106  1.00  0.00    -0.025 C 
HETATM   22  C3  UNL     1      28.298   7.054  47.757  1.00  0.00    -0.028 C 
BRANCH  22  23
HETATM   23  C2  UNL     1      29.648   6.875  48.378  1.00  0.00     0.058 C 
BRANCH  23  24
HETATM   24  C1  UNL     1      30.521   5.952  47.554  1.00  0.00     0.225 C 
HETATM   25  F1  UNL     1      30.089   4.653  47.690  1.00  0.00    -0.255 F 
ENDBRANCH  23  24
ENDBRANCH  22  23
ENDBRANCH  20  21
ENDBRANCH   1  20
TORSDOF 4
ENDMDL
MODEL 7
REMARK VINA RESULT:      -7.1      4.327      5.684
REMARK  4 active torsions:
REMARK  status: ('A' for Active; 'I' for Inactive)
REMARK    1  A    between atoms: C1_2  and  C2_3 
REMARK    2  A    between atoms: C2_3  and  C3_4 
REMARK    3  A    between atoms: C4_5  and  C5_6 
REMARK    4  A    between atoms: C5_6  and  C6_7 
ROOT
HETATM    1  C6  UNL     1      25.884   3.645  50.459  1.00  0.00     0.029 C 
HETATM    2  C7  UNL     1      24.736   3.753  51.102  1.00  0.00     0.026 C 
HETATM    3  C8  UNL     1      24.092   3.477  52.426  1.00  0.00     0.197 C 
HETATM    4  O1  UNL     1      23.057   2.581  52.189  1.00  0.00    -0.379 OA
HETATM    5  C9  UNL     1      22.770   1.478  53.006  1.00  0.00     0.074 C 
HETATM    6  C10 UNL     1      23.973   0.945  53.458  1.00  0.00     0.159 C 
HETATM    7  C11 UNL     1      23.753  -0.224  54.323  1.00  0.00     0.052 C 
HETATM    8  N1  UNL     1      25.085  -0.294  54.436  1.00  0.00    -0.217 NA
HETATM    9  S1  UNL     1      26.218   0.737  53.715  1.00  0.00     0.020 SA
HETATM   10  C12 UNL     1      26.100   0.954  51.968  1.00  0.00     0.208 C 
HETATM   11  N2  UNL     1      26.681   2.119  52.209  1.00  0.00    -0.179 NA
HETATM   12  N3  UNL     1      26.973   3.013  51.163  1.00  0.00    -0.282 N 
HETATM   13  C13 UNL     1      23.545  -1.432  55.219  1.00  0.00     0.223 C 
HETATM   14  O2  UNL     1      22.213  -1.639  55.363  1.00  0.00    -0.383 OA
HETATM   15  C14 UNL     1      21.387  -1.916  54.339  1.00  0.00     0.194 C 
HETATM   16  C15 UNL     1      21.351  -0.853  53.258  1.00  0.00     0.193 C 
HETATM   17  O3  UNL     1      20.949   0.360  53.777  1.00  0.00    -0.386 OA
HETATM   18  C16 UNL     1      21.203   1.452  52.961  1.00  0.00     0.200 C 
HETATM   19  H14 UNL     1      27.918   3.305  50.789  1.00  0.00     0.189 HD
ENDROOT
BRANCH   1  20
HETATM   20  C5  UNL     1      26.088   4.094  49.025  1.00  0.00     0.085 C 
BRANCH  20  21
HETATM   21  C4  UNL     1      27.451   4.627  48.852  1.00  0.00    -0.025 C 
HETATM   22  C3  UNL     1      28.253   5.575  48.448  1.00  0.00    -0.028 C 
BRANCH  22  23
HETATM   23  C2  UNL     1      28.178   6.922  47.800  1.00  0.00     0.058 C 
BRANCH  23  24
HETATM   24  C1  UNL     1      29.433   7.231  47.012  1.00  0.00     0.225 C 
HETATM   25  F1  UNL     1      29.418   8.543  46.601  1.00  0.00    -0.255 F 
ENDBRANCH  23  24
ENDBRANCH  22  23
ENDBRANCH  20  21
ENDBRANCH   1  20
TORSDOF 4
ENDMDL
MODEL 8
REMARK VINA RESULT:      -6.8      3.456      5.107
REMARK  4 active torsions:
REMARK  status: ('A' for Active; 'I' for Inactive)
REMARK    1  A    between atoms: C1_2  and  C2_3 
REMARK    2  A    between atoms: C2_3  and  C3_4 
REMARK    3  A    between atoms: C4_5  and  C5_6 
REMARK    4  A    between atoms: C5_6  and  C6_7 
ROOT
HETATM    1  C6  UNL     1      26.187   3.197  50.806  1.00  0.00     0.029 C 
HETATM    2  C7  UNL     1      25.023   3.502  51.349  1.00  0.00     0.026 C 
HETATM    3  C8  UNL     1      24.202   3.290  52.583  1.00  0.00     0.197 C 
HETATM    4  O1  UNL     1      23.040   2.641  52.185  1.00  0.00    -0.379 OA
HETATM    5  C9  UNL     1      22.455   1.577  52.886  1.00  0.00     0.074 C 
HETATM    6  C10 UNL     1      23.474   0.783  53.403  1.00  0.00     0.159 C 
HETATM    7  C11 UNL     1      22.937  -0.363  54.152  1.00  0.00     0.052 C 
HETATM    8  N1  UNL     1      24.208  -0.712  54.380  1.00  0.00    -0.217 NA
HETATM    9  S1  UNL     1      25.594   0.103  53.846  1.00  0.00     0.020 SA
HETATM   10  C12 UNL     1      25.704   0.437  52.117  1.00  0.00     0.208 C 
HETATM   11  N2  UNL     1      26.477   1.443  52.498  1.00  0.00    -0.179 NA
HETATM   12  N3  UNL     1      27.048   2.315  51.555  1.00  0.00    -0.282 N 
HETATM   13  C13 UNL     1      22.399  -1.552  54.930  1.00  0.00     0.223 C 
HETATM   14  O2  UNL     1      21.046  -1.487  54.937  1.00  0.00    -0.383 OA
HETATM   15  C14 UNL     1      20.292  -1.530  53.824  1.00  0.00     0.194 C 
HETATM   16  C15 UNL     1      20.583  -0.423  52.829  1.00  0.00     0.193 C 
HETATM   17  O3  UNL     1      20.377   0.815  53.401  1.00  0.00    -0.386 OA
HETATM   18  C16 UNL     1      20.928   1.876  52.697  1.00  0.00     0.200 C 
HETATM   19  H14 UNL     1      28.067   2.427  51.292  1.00  0.00     0.189 HD
ENDROOT
BRANCH   1  20
HETATM   20  C5  UNL     1      26.626   3.674  49.435  1.00  0.00     0.085 C 
BRANCH  20  21
HETATM   21  C4  UNL     1      25.776   4.794  48.994  1.00  0.00    -0.025 C 
HETATM   22  C3  UNL     1      25.314   6.002  49.170  1.00  0.00    -0.028 C 
BRANCH  22  23
HETATM   23  C2  UNL     1      25.442   7.133  50.142  1.00  0.00     0.058 C 
BRANCH  23  24
HETATM   24  C1  UNL     1      24.384   7.060  51.223  1.00  0.00     0.225 C 
HETATM   25  F1  UNL     1      23.132   7.149  50.660  1.00  0.00    -0.255 F 
ENDBRANCH  23  24
ENDBRANCH  22  23
ENDBRANCH  20  21
ENDBRANCH   1  20
TORSDOF 4
ENDMDL
MODEL 9
REMARK VINA RESULT:      -6.6      2.843      3.576
REMARK  4 active torsions:
REMARK  status: ('A' for Active; 'I' for Inactive)
REMARK    1  A    between atoms: C1_2  and  C2_3 
REMARK    2  A    between atoms: C2_3  and  C3_4 
REMARK    3  A    between atoms: C4_5  and  C5_6 
REMARK    4  A    between atoms: C5_6  and  C6_7 
ROOT
HETATM    1  C6  UNL     1      23.990   0.508  53.275  1.00  0.00     0.029 C 
HETATM    2  C7  UNL     1      24.565   1.679  53.073  1.00  0.00     0.026 C 
HETATM    3  C8  UNL     1      24.270   3.146  53.009  1.00  0.00     0.197 C 
HETATM    4  O1  UNL     1      24.598   3.565  51.726  1.00  0.00    -0.379 OA
HETATM    5  C9  UNL     1      23.818   4.446  50.964  1.00  0.00     0.074 C 
HETATM    6  C10 UNL     1      22.478   4.167  51.211  1.00  0.00     0.159 C 
HETATM    7  C11 UNL     1      21.592   5.052  50.440  1.00  0.00     0.052 C 
HETATM    8  N1  UNL     1      20.571   4.403  51.013  1.00  0.00    -0.217 NA
HETATM    9  S1  UNL     1      20.678   3.130  52.126  1.00  0.00     0.020 SA
HETATM   10  C12 UNL     1      21.660   1.742  51.657  1.00  0.00     0.208 C 
HETATM   11  N2  UNL     1      21.799   1.570  52.963  1.00  0.00    -0.179 NA
HETATM   12  N3  UNL     1      22.561   0.505  53.476  1.00  0.00    -0.282 N 
HETATM   13  C13 UNL     1      20.662   5.959  49.653  1.00  0.00     0.223 C 
HETATM   14  O2  UNL     1      21.413   6.832  48.939  1.00  0.00    -0.383 OA
HETATM   15  C14 UNL     1      22.292   6.458  47.992  1.00  0.00     0.194 C 
HETATM   16  C15 UNL     1      23.394   5.542  48.489  1.00  0.00     0.193 C 
HETATM   17  O3  UNL     1      24.122   6.149  49.491  1.00  0.00    -0.386 OA
HETATM   18  C16 UNL     1      24.918   5.287  50.230  1.00  0.00     0.200 C 
HETATM   19  H14 UNL     1      22.230  -0.345  54.010  1.00  0.00     0.189 HD
ENDROOT
BRANCH   1  20
HETATM   20  C5  UNL     1      24.737  -0.811  53.249  1.00  0.00     0.085 C 
BRANCH  20  21
HETATM   21  C4  UNL     1      26.122  -0.599  52.795  1.00  0.00    -0.025 C 
HETATM   22  C3  UNL     1      27.377  -0.357  53.062  1.00  0.00    -0.028 C 
BRANCH  22  23
HETATM   23  C2  UNL     1      28.255  -0.116  54.250  1.00  0.00     0.058 C 
BRANCH  23  24
HETATM   24  C1  UNL     1      29.563   0.534  53.851  1.00  0.00     0.225 C 
HETATM   25  F1  UNL     1      30.358  -0.377  53.194  1.00  0.00    -0.255 F 
ENDBRANCH  23  24
ENDBRANCH  22  23
ENDBRANCH  20  21
ENDBRANCH   1  20
TORSDOF 4
ENDMDL
