MODEL 1
REMARK VINA RESULT:      -9.0      0.000      0.000
REMARK  9 active torsions:
REMARK  status: ('A' for Active; 'I' for Inactive)
REMARK    1  A    between atoms: C2_2  and  C3_3 
REMARK    2  A    between atoms: C2_2  and  N6_32 
REMARK    3  A    between atoms: C3_3  and  O1_4 
REMARK    4  A    between atoms: O1_4  and  C4_5 
REMARK    5  A    between atoms: N1_8  and  C7_9 
REMARK    6  A    between atoms: C10_14  and  N3_15 
REMARK    7  A    between atoms: N3_15  and  C11_16 
REMARK    8  A    between atoms: C15_21  and  N4_22 
REMARK       I    between atoms: N4_22  and  C16_23 
REMARK    9  A    between atoms: C16_23  and  C17_25 
ROOT
HETATM    1  C7  UNL     1      24.131   4.177  50.655  1.00  0.00     0.734 A 
HETATM    2  N2  UNL     1      23.147   4.976  51.148  1.00  0.00    -0.071 NA
HETATM    3  C8  UNL     1      22.125   4.459  51.893  1.00  0.00     0.182 A 
HETATM    4  C9  UNL     1      22.142   3.082  52.122  1.00  0.00     0.180 A 
HETATM    5  F1  UNL     1      21.141   2.516  52.866  1.00  0.00    -0.200 F 
HETATM    6  C10 UNL     1      23.116   2.266  51.639  1.00  0.00     0.187 A 
HETATM    7  N5  UNL     1      24.062   2.882  50.925  1.00  0.00    -0.041 NA
ENDROOT
BRANCH   6   8
HETATM    8  N3  UNL     1      23.165   0.862  51.850  1.00  0.00    -0.338 N 
HETATM    9  H9  UNL     1      22.926   0.221  51.062  1.00  0.00     0.167 HD
BRANCH   8  10
HETATM   10  C11 UNL     1      23.520   0.267  53.068  1.00  0.00     0.037 C 
HETATM   11  C12 UNL     1      22.618  -0.449  53.762  1.00  0.00     0.031 C 
HETATM   12  C13 UNL     1      22.787  -1.144  55.041  1.00  0.00     0.027 C 
HETATM   13  C14 UNL     1      23.908  -1.443  55.679  1.00  0.00     0.144 C 
HETATM   14  O2  UNL     1      25.181  -1.139  55.235  1.00  0.00    -0.306 OA
HETATM   15  C15 UNL     1      25.637  -0.095  54.411  1.00  0.00     0.151 C 
HETATM   16  C18 UNL     1      24.908   0.500  53.482  1.00  0.00     0.086 C 
BRANCH  15  17
HETATM   17  N4  UNL     1      26.985   0.294  54.651  1.00  0.00    -0.303 N 
HETATM   18  C16 UNL     1      27.869  -0.570  53.978  1.00  0.00     0.288 C 
HETATM   19  O3  UNL     1      27.842  -1.590  53.225  1.00  0.00    -0.267 OA
HETATM   20  H13 UNL     1      27.485   1.055  55.198  1.00  0.00     0.171 HD
BRANCH  18  21
HETATM   21  C17 UNL     1      29.352  -0.563  53.933  1.00  0.00     0.444 C 
HETATM   22  F2  UNL     1      29.847   0.503  53.252  1.00  0.00    -0.204 F 
HETATM   23  F3  UNL     1      29.862  -1.721  53.370  1.00  0.00    -0.204 F 
ENDBRANCH  18  21
ENDBRANCH  15  17
ENDBRANCH   8  10
ENDBRANCH   6   8
BRANCH   1  24
HETATM   24  N1  UNL     1      25.189   4.749  49.869  1.00  0.00    -0.165 N 
HETATM   25  C6  UNL     1      25.000   6.048  49.327  1.00  0.00     0.113 A 
HETATM   26  C5  UNL     1      26.032   6.471  48.618  1.00  0.00     0.027 A 
HETATM   27  C4  UNL     1      27.321   5.802  48.314  1.00  0.00     0.170 A 
HETATM   28  C20 UNL     1      27.306   4.485  48.966  1.00  0.00     0.027 A 
HETATM   29  C19 UNL     1      26.362   3.941  49.692  1.00  0.00     0.113 A 
BRANCH  27  30
HETATM   30  O1  UNL     1      28.426   6.566  48.616  1.00  0.00    -0.372 OA
BRANCH  30  31
HETATM   31  C3  UNL     1      29.541   5.766  48.244  1.00  0.00     0.229 C 
BRANCH  31  32
HETATM   32  C2  UNL     1      30.797   6.423  48.527  1.00  0.00     0.079 C 
HETATM   33  C1  UNL     1      31.679   7.348  48.544  1.00  0.00     0.045 C 
BRANCH  32  34
HETATM   34  N6  UNL     1      31.579   5.448  49.234  1.00  0.00    -0.101 NA
HETATM   35  O4  UNL     1      31.628   5.491  50.483  1.00  0.00    -0.061 OA
ENDBRANCH  32  34
ENDBRANCH  31  32
ENDBRANCH  30  31
ENDBRANCH  27  30
ENDBRANCH   1  24
TORSDOF 9
ENDMDL
MODEL 2
REMARK VINA RESULT:      -8.8      3.660      5.510
REMARK  9 active torsions:
REMARK  status: ('A' for Active; 'I' for Inactive)
REMARK    1  A    between atoms: C2_2  and  C3_3 
REMARK    2  A    between atoms: C2_2  and  N6_32 
REMARK    3  A    between atoms: C3_3  and  O1_4 
REMARK    4  A    between atoms: O1_4  and  C4_5 
REMARK    5  A    between atoms: N1_8  and  C7_9 
REMARK    6  A    between atoms: C10_14  and  N3_15 
REMARK    7  A    between atoms: N3_15  and  C11_16 
REMARK    8  A    between atoms: C15_21  and  N4_22 
REMARK       I    between atoms: N4_22  and  C16_23 
REMARK    9  A    between atoms: C16_23  and  C17_25 
ROOT
HETATM    1  C7  UNL     1      23.123   3.325  51.570  1.00  0.00     0.734 A 
HETATM    2  N2  UNL     1      22.834   4.642  51.753  1.00  0.00    -0.071 NA
HETATM    3  C8  UNL     1      21.575   5.125  51.534  1.00  0.00     0.182 A 
HETATM    4  C9  UNL     1      20.609   4.207  51.119  1.00  0.00     0.180 A 
HETATM    5  F1  UNL     1      19.330   4.641  50.890  1.00  0.00    -0.200 F 
HETATM    6  C10 UNL     1      20.876   2.888  50.931  1.00  0.00     0.187 A 
HETATM    7  N5  UNL     1      22.140   2.531  51.174  1.00  0.00    -0.041 NA
ENDROOT
BRANCH   6   8
HETATM    8  N3  UNL     1      19.920   1.927  50.508  1.00  0.00    -0.338 N 
HETATM    9  H9  UNL     1      19.650   1.888  49.500  1.00  0.00     0.167 HD
BRANCH   8  10
HETATM   10  C11 UNL     1      19.301   1.010  51.368  1.00  0.00     0.037 C 
HETATM   11  C12 UNL     1      18.117   0.462  51.038  1.00  0.00     0.031 C 
HETATM   12  C13 UNL     1      17.314  -0.506  51.789  1.00  0.00     0.027 C 
HETATM   13  C14 UNL     1      17.670  -1.250  52.824  1.00  0.00     0.144 C 
HETATM   14  O2  UNL     1      18.921  -1.250  53.412  1.00  0.00    -0.306 OA
HETATM   15  C15 UNL     1      19.894  -0.239  53.490  1.00  0.00     0.151 C 
HETATM   16  C18 UNL     1      20.044   0.728  52.600  1.00  0.00     0.086 C 
BRANCH  15  17
HETATM   17  N4  UNL     1      20.739  -0.325  54.633  1.00  0.00    -0.303 N 
HETATM   18  C16 UNL     1      22.023  -0.758  54.257  1.00  0.00     0.288 C 
HETATM   19  O3  UNL     1      22.667  -1.097  53.218  1.00  0.00    -0.267 OA
HETATM   20  H13 UNL     1      20.649  -0.151  55.677  1.00  0.00     0.171 HD
BRANCH  18  21
HETATM   21  C17 UNL     1      23.227  -0.998  55.092  1.00  0.00     0.444 C 
HETATM   22  F2  UNL     1      24.370  -1.037  54.359  1.00  0.00    -0.204 F 
HETATM   23  F3  UNL     1      23.130  -2.170  55.822  1.00  0.00    -0.204 F 
ENDBRANCH  18  21
ENDBRANCH  15  17
ENDBRANCH   8  10
ENDBRANCH   6   8
BRANCH   1  24
HETATM   24  N1  UNL     1      24.459   2.848  51.801  1.00  0.00    -0.165 N 
HETATM   25  C6  UNL     1      25.349   2.770  50.697  1.00  0.00     0.113 A 
HETATM   26  C5  UNL     1      26.544   2.313  51.023  1.00  0.00     0.027 A 
HETATM   27  C4  UNL     1      27.075   1.880  52.340  1.00  0.00     0.170 A 
HETATM   28  C20 UNL     1      26.001   2.042  53.330  1.00  0.00     0.027 A 
HETATM   29  C19 UNL     1      24.781   2.479  53.150  1.00  0.00     0.113 A 
BRANCH  27  30
HETATM   30  O1  UNL     1      28.258   2.492  52.689  1.00  0.00    -0.372 OA
BRANCH  30  31
HETATM   31  C3  UNL     1      28.576   1.977  53.975  1.00  0.00     0.229 C 
BRANCH  31  32
HETATM   32  C2  UNL     1      29.202   0.676  53.898  1.00  0.00     0.079 C 
HETATM   33  C1  UNL     1      29.967  -0.253  53.467  1.00  0.00     0.045 C 
BRANCH  32  34
HETATM   34  N6  UNL     1      28.616  -0.086  54.965  1.00  0.00    -0.101 NA
HETATM   35  O4  UNL     1      27.501  -0.626  54.791  1.00  0.00    -0.061 OA
ENDBRANCH  32  34
ENDBRANCH  31  32
ENDBRANCH  30  31
ENDBRANCH  27  30
ENDBRANCH   1  24
TORSDOF 9
ENDMDL
MODEL 3
REMARK VINA RESULT:      -8.8      1.360      1.555
REMARK  9 active torsions:
REMARK  status: ('A' for Active; 'I' for Inactive)
REMARK    1  A    between atoms: C2_2  and  C3_3 
REMARK    2  A    between atoms: C2_2  and  N6_32 
REMARK    3  A    between atoms: C3_3  and  O1_4 
REMARK    4  A    between atoms: O1_4  and  C4_5 
REMARK    5  A    between atoms: N1_8  and  C7_9 
REMARK    6  A    between atoms: C10_14  and  N3_15 
REMARK    7  A    between atoms: N3_15  and  C11_16 
REMARK    8  A    between atoms: C15_21  and  N4_22 
REMARK       I    between atoms: N4_22  and  C16_23 
REMARK    9  A    between atoms: C16_23  and  C17_25 
ROOT
HETATM    1  C7  UNL     1      24.672   4.494  50.614  1.00  0.00     0.734 A 
HETATM    2  N2  UNL     1      23.741   5.321  51.162  1.00  0.00    -0.071 NA
HETATM    3  C8  UNL     1      22.702   4.824  51.898  1.00  0.00     0.182 A 
HETATM    4  C9  UNL     1      22.647   3.438  52.058  1.00  0.00     0.180 A 
HETATM    5  F1  UNL     1      21.626   2.891  52.790  1.00  0.00    -0.200 F 
HETATM    6  C10 UNL     1      23.567   2.596  51.520  1.00  0.00     0.187 A 
HETATM    7  N5  UNL     1      24.535   3.193  50.822  1.00  0.00    -0.041 NA
ENDROOT
BRANCH   6   8
HETATM    8  N3  UNL     1      23.541   1.182  51.662  1.00  0.00    -0.338 N 
HETATM    9  H9  UNL     1      23.331   0.592  50.827  1.00  0.00     0.167 HD
BRANCH   8  10
HETATM   10  C11 UNL     1      23.783   0.513  52.869  1.00  0.00     0.037 C 
HETATM   11  C12 UNL     1      22.808  -0.205  53.455  1.00  0.00     0.031 C 
HETATM   12  C13 UNL     1      22.856  -0.969  54.703  1.00  0.00     0.027 C 
HETATM   13  C14 UNL     1      23.915  -1.340  55.406  1.00  0.00     0.144 C 
HETATM   14  O2  UNL     1      25.228  -1.061  55.075  1.00  0.00    -0.306 OA
HETATM   15  C15 UNL     1      25.779   0.006  54.344  1.00  0.00     0.151 C 
HETATM   16  C18 UNL     1      25.142   0.674  53.396  1.00  0.00     0.086 C 
BRANCH  15  17
HETATM   17  N4  UNL     1      27.117   0.334  54.704  1.00  0.00    -0.303 N 
HETATM   18  C16 UNL     1      28.023  -0.488  54.009  1.00  0.00     0.288 C 
HETATM   19  O3  UNL     1      28.023  -1.432  53.162  1.00  0.00    -0.267 OA
HETATM   20  H13 UNL     1      27.597   1.026  55.351  1.00  0.00     0.171 HD
BRANCH  18  21
HETATM   21  C17 UNL     1      29.506  -0.519  54.058  1.00  0.00     0.444 C 
HETATM   22  F2  UNL     1      30.074   0.341  53.173  1.00  0.00    -0.204 F 
HETATM   23  F3  UNL     1      30.010  -1.787  53.825  1.00  0.00    -0.204 F 
ENDBRANCH  18  21
ENDBRANCH  15  17
ENDBRANCH   8  10
ENDBRANCH   6   8
BRANCH   1  24
HETATM   24  N1  UNL     1      25.749   5.046  49.840  1.00  0.00    -0.165 N 
HETATM   25  C6  UNL     1      25.777   6.451  49.626  1.00  0.00     0.113 A 
HETATM   26  C5  UNL     1      26.805   6.846  48.897  1.00  0.00     0.027 A 
HETATM   27  C4  UNL     1      27.902   6.056  48.284  1.00  0.00     0.170 A 
HETATM   28  C20 UNL     1      27.681   4.645  48.627  1.00  0.00     0.027 A 
HETATM   29  C19 UNL     1      26.716   4.114  49.334  1.00  0.00     0.113 A 
BRANCH  27  30
HETATM   30  O1  UNL     1      29.160   6.521  48.597  1.00  0.00    -0.372 OA
BRANCH  30  31
HETATM   31  C3  UNL     1      29.049   7.938  48.564  1.00  0.00     0.229 C 
BRANCH  31  32
HETATM   32  C2  UNL     1      30.247   8.586  49.047  1.00  0.00     0.079 C 
HETATM   33  C1  UNL     1      31.469   8.720  49.397  1.00  0.00     0.045 C 
BRANCH  32  34
HETATM   34  N6  UNL     1      29.856   9.940  49.323  1.00  0.00    -0.101 NA
HETATM   35  O4  UNL     1      29.574  10.702  48.372  1.00  0.00    -0.061 OA
ENDBRANCH  32  34
ENDBRANCH  31  32
ENDBRANCH  30  31
ENDBRANCH  27  30
ENDBRANCH   1  24
TORSDOF 9
ENDMDL
MODEL 4
REMARK VINA RESULT:      -8.5      3.462      8.100
REMARK  9 active torsions:
REMARK  status: ('A' for Active; 'I' for Inactive)
REMARK    1  A    between atoms: C2_2  and  C3_3 
REMARK    2  A    between atoms: C2_2  and  N6_32 
REMARK    3  A    between atoms: C3_3  and  O1_4 
REMARK    4  A    between atoms: O1_4  and  C4_5 
REMARK    5  A    between atoms: N1_8  and  C7_9 
REMARK    6  A    between atoms: C10_14  and  N3_15 
REMARK    7  A    between atoms: N3_15  and  C11_16 
REMARK    8  A    between atoms: C15_21  and  N4_22 
REMARK       I    between atoms: N4_22  and  C16_23 
REMARK    9  A    between atoms: C16_23  and  C17_25 
ROOT
HETATM    1  C7  UNL     1      23.597   3.182  52.138  1.00  0.00     0.734 A 
HETATM    2  N2  UNL     1      22.239   3.161  52.050  1.00  0.00    -0.071 NA
HETATM    3  C8  UNL     1      21.529   4.305  51.819  1.00  0.00     0.182 A 
HETATM    4  C9  UNL     1      22.262   5.486  51.677  1.00  0.00     0.180 A 
HETATM    5  F1  UNL     1      21.597   6.660  51.441  1.00  0.00    -0.200 F 
HETATM    6  C10 UNL     1      23.617   5.528  51.761  1.00  0.00     0.187 A 
HETATM    7  N5  UNL     1      24.203   4.350  51.990  1.00  0.00    -0.041 NA
ENDROOT
BRANCH   6   8
HETATM    8  N3  UNL     1      24.394   6.709  51.623  1.00  0.00    -0.338 N 
HETATM    9  H9  UNL     1      24.576   7.299  52.466  1.00  0.00     0.167 HD
BRANCH   8  10
HETATM   10  C11 UNL     1      24.944   7.147  50.411  1.00  0.00     0.037 C 
HETATM   11  C12 UNL     1      24.428   6.728  49.241  1.00  0.00     0.031 C 
HETATM   12  C13 UNL     1      24.852   7.063  47.880  1.00  0.00     0.027 C 
HETATM   13  C14 UNL     1      25.657   8.034  47.479  1.00  0.00     0.144 C 
HETATM   14  O2  UNL     1      26.275   8.950  48.311  1.00  0.00    -0.306 OA
HETATM   15  C15 UNL     1      26.667   8.843  49.657  1.00  0.00     0.151 C 
HETATM   16  C18 UNL     1      26.082   8.061  50.549  1.00  0.00     0.086 C 
BRANCH  15  17
HETATM   17  N4  UNL     1      27.776   9.662  50.010  1.00  0.00    -0.303 N 
HETATM   18  C16 UNL     1      28.960   9.144  49.456  1.00  0.00     0.288 C 
HETATM   19  O3  UNL     1      29.352   8.174  48.739  1.00  0.00    -0.267 OA
HETATM   20  H13 UNL     1      27.935  10.548  50.575  1.00  0.00     0.171 HD
BRANCH  18  21
HETATM   21  C17 UNL     1      30.353   9.648  49.551  1.00  0.00     0.444 C 
HETATM   22  F2  UNL     1      30.709  10.400  48.478  1.00  0.00    -0.204 F 
HETATM   23  F3  UNL     1      31.271   8.621  49.695  1.00  0.00    -0.204 F 
ENDBRANCH  18  21
ENDBRANCH  15  17
ENDBRANCH   8  10
ENDBRANCH   6   8
BRANCH   1  24
HETATM   24  N1  UNL     1      24.315   1.962  52.389  1.00  0.00    -0.165 N 
HETATM   25  C6  UNL     1      25.598   1.801  51.800  1.00  0.00     0.113 A 
HETATM   26  C5  UNL     1      26.161   0.642  52.092  1.00  0.00     0.027 A 
HETATM   27  C4  UNL     1      25.660  -0.483  52.920  1.00  0.00     0.170 A 
HETATM   28  C20 UNL     1      24.332  -0.109  53.425  1.00  0.00     0.027 A 
HETATM   29  C19 UNL     1      23.658   0.994  53.220  1.00  0.00     0.113 A 
BRANCH  27  30
HETATM   30  O1  UNL     1      26.541  -0.886  53.898  1.00  0.00    -0.372 OA
BRANCH  30  31
HETATM   31  C3  UNL     1      27.163   0.310  54.351  1.00  0.00     0.229 C 
BRANCH  31  32
HETATM   32  C2  UNL     1      28.595   0.283  54.156  1.00  0.00     0.079 C 
HETATM   33  C1  UNL     1      29.745  -0.181  53.846  1.00  0.00     0.045 C 
BRANCH  32  34
HETATM   34  N6  UNL     1      29.053   1.583  54.559  1.00  0.00    -0.101 NA
HETATM   35  O4  UNL     1      28.370   2.590  54.269  1.00  0.00    -0.061 OA
ENDBRANCH  32  34
ENDBRANCH  31  32
ENDBRANCH  30  31
ENDBRANCH  27  30
ENDBRANCH   1  24
TORSDOF 9
ENDMDL
MODEL 5
REMARK VINA RESULT:      -8.3      3.060      7.683
REMARK  9 active torsions:
REMARK  status: ('A' for Active; 'I' for Inactive)
REMARK    1  A    between atoms: C2_2  and  C3_3 
REMARK    2  A    between atoms: C2_2  and  N6_32 
REMARK    3  A    between atoms: C3_3  and  O1_4 
REMARK    4  A    between atoms: O1_4  and  C4_5 
REMARK    5  A    between atoms: N1_8  and  C7_9 
REMARK    6  A    between atoms: C10_14  and  N3_15 
REMARK    7  A    between atoms: N3_15  and  C11_16 
REMARK    8  A    between atoms: C15_21  and  N4_22 
REMARK       I    between atoms: N4_22  and  C16_23 
REMARK    9  A    between atoms: C16_23  and  C17_25 
ROOT
HETATM    1  C7  UNL     1      22.515   3.222  51.925  1.00  0.00     0.734 A 
HETATM    2  N2  UNL     1      21.380   2.749  51.343  1.00  0.00    -0.071 NA
HETATM    3  C8  UNL     1      20.462   3.598  50.791  1.00  0.00     0.182 A 
HETATM    4  C9  UNL     1      20.747   4.964  50.854  1.00  0.00     0.180 A 
HETATM    5  F1  UNL     1      19.860   5.856  50.312  1.00  0.00    -0.200 F 
HETATM    6  C10 UNL     1      21.874   5.457  51.431  1.00  0.00     0.187 A 
HETATM    7  N5  UNL     1      22.696   4.534  51.936  1.00  0.00    -0.041 NA
ENDROOT
BRANCH   6   8
HETATM    8  N3  UNL     1      22.195   6.838  51.514  1.00  0.00    -0.338 N 
HETATM    9  H9  UNL     1      21.889   7.381  52.352  1.00  0.00     0.167 HD
BRANCH   8  10
HETATM   10  C11 UNL     1      22.909   7.536  50.530  1.00  0.00     0.037 C 
HETATM   11  C12 UNL     1      22.274   8.392  49.710  1.00  0.00     0.031 C 
HETATM   12  C13 UNL     1      22.831   9.209  48.629  1.00  0.00     0.027 C 
HETATM   13  C14 UNL     1      24.099   9.489  48.372  1.00  0.00     0.144 C 
HETATM   14  O2  UNL     1      25.178   9.041  49.110  1.00  0.00    -0.306 OA
HETATM   15  C15 UNL     1      25.335   7.880  49.888  1.00  0.00     0.151 C 
HETATM   16  C18 UNL     1      24.345   7.244  50.493  1.00  0.00     0.086 C 
BRANCH  15  17
HETATM   17  N4  UNL     1      26.677   7.417  49.986  1.00  0.00    -0.303 N 
HETATM   18  C16 UNL     1      27.162   7.059  48.715  1.00  0.00     0.288 C 
HETATM   19  O3  UNL     1      26.778   7.017  47.506  1.00  0.00    -0.267 OA
HETATM   20  H13 UNL     1      27.393   7.275  50.758  1.00  0.00     0.171 HD
BRANCH  18  21
HETATM   21  C17 UNL     1      28.490   6.526  48.320  1.00  0.00     0.444 C 
HETATM   22  F2  UNL     1      28.825   6.854  47.045  1.00  0.00    -0.204 F 
HETATM   23  F3  UNL     1      28.562   5.151  48.456  1.00  0.00    -0.204 F 
ENDBRANCH  18  21
ENDBRANCH  15  17
ENDBRANCH   8  10
ENDBRANCH   6   8
BRANCH   1  24
HETATM   24  N1  UNL     1      23.457   2.304  52.503  1.00  0.00    -0.165 N 
HETATM   25  C6  UNL     1      23.134   0.921  52.510  1.00  0.00     0.113 A 
HETATM   26  C5  UNL     1      24.067   0.172  53.070  1.00  0.00     0.027 A 
HETATM   27  C4  UNL     1      25.365   0.558  53.678  1.00  0.00     0.170 A 
HETATM   28  C20 UNL     1      25.496   2.016  53.563  1.00  0.00     0.027 A 
HETATM   29  C19 UNL     1      24.660   2.876  53.038  1.00  0.00     0.113 A 
BRANCH  27  30
HETATM   30  O1  UNL     1      26.440  -0.144  53.179  1.00  0.00    -0.372 OA
BRANCH  30  31
HETATM   31  C3  UNL     1      27.485   0.813  53.064  1.00  0.00     0.229 C 
BRANCH  31  32
HETATM   32  C2  UNL     1      28.732   0.320  53.603  1.00  0.00     0.079 C 
HETATM   33  C1  UNL     1      29.749  -0.441  53.745  1.00  0.00     0.045 C 
BRANCH  32  34
HETATM   34  N6  UNL     1      29.080   1.243  54.647  1.00  0.00    -0.101 NA
HETATM   35  O4  UNL     1      28.898   2.467  54.469  1.00  0.00    -0.061 OA
ENDBRANCH  32  34
ENDBRANCH  31  32
ENDBRANCH  30  31
ENDBRANCH  27  30
ENDBRANCH   1  24
TORSDOF 9
ENDMDL
MODEL 6
REMARK VINA RESULT:      -8.3      3.537      7.079
REMARK  9 active torsions:
REMARK  status: ('A' for Active; 'I' for Inactive)
REMARK    1  A    between atoms: C2_2  and  C3_3 
REMARK    2  A    between atoms: C2_2  and  N6_32 
REMARK    3  A    between atoms: C3_3  and  O1_4 
REMARK    4  A    between atoms: O1_4  and  C4_5 
REMARK    5  A    between atoms: N1_8  and  C7_9 
REMARK    6  A    between atoms: C10_14  and  N3_15 
REMARK    7  A    between atoms: N3_15  and  C11_16 
REMARK    8  A    between atoms: C15_21  and  N4_22 
REMARK       I    between atoms: N4_22  and  C16_23 
REMARK    9  A    between atoms: C16_23  and  C17_25 
ROOT
HETATM    1  C7  UNL     1      21.322  -0.260  53.010  1.00  0.00     0.734 A 
HETATM    2  N2  UNL     1      20.299  -0.840  53.693  1.00  0.00    -0.071 NA
HETATM    3  C8  UNL     1      19.021  -0.810  53.210  1.00  0.00     0.182 A 
HETATM    4  C9  UNL     1      18.821  -0.161  51.990  1.00  0.00     0.180 A 
HETATM    5  F1  UNL     1      17.559  -0.106  51.462  1.00  0.00    -0.200 F 
HETATM    6  C10 UNL     1      19.830   0.424  51.292  1.00  0.00     0.187 A 
HETATM    7  N5  UNL     1      21.034   0.332  51.861  1.00  0.00    -0.041 NA
ENDROOT
BRANCH   6   8
HETATM    8  N3  UNL     1      19.664   1.094  50.050  1.00  0.00    -0.338 N 
HETATM    9  H9  UNL     1      19.103   0.637  49.297  1.00  0.00     0.167 HD
BRANCH   8  10
HETATM   10  C11 UNL     1      20.211   2.350  49.761  1.00  0.00     0.037 C 
HETATM   11  C12 UNL     1      19.438   3.451  49.790  1.00  0.00     0.031 C 
HETATM   12  C13 UNL     1      19.812   4.842  49.523  1.00  0.00     0.027 C 
HETATM   13  C14 UNL     1      21.022   5.372  49.441  1.00  0.00     0.144 C 
HETATM   14  O2  UNL     1      22.208   4.679  49.600  1.00  0.00    -0.306 OA
HETATM   15  C15 UNL     1      22.515   3.327  49.365  1.00  0.00     0.151 C 
HETATM   16  C18 UNL     1      21.641   2.336  49.438  1.00  0.00     0.086 C 
BRANCH  15  17
HETATM   17  N4  UNL     1      23.877   3.085  49.029  1.00  0.00    -0.303 N 
HETATM   18  C16 UNL     1      24.696   3.273  50.157  1.00  0.00     0.288 C 
HETATM   19  O3  UNL     1      24.604   3.590  51.381  1.00  0.00    -0.267 OA
HETATM   20  H13 UNL     1      24.422   2.806  48.162  1.00  0.00     0.171 HD
BRANCH  18  21
HETATM   21  C17 UNL     1      26.169   3.139  50.294  1.00  0.00     0.444 C 
HETATM   22  F2  UNL     1      26.824   3.395  49.132  1.00  0.00    -0.204 F 
HETATM   23  F3  UNL     1      26.539   1.883  50.742  1.00  0.00    -0.204 F 
ENDBRANCH  18  21
ENDBRANCH  15  17
ENDBRANCH   8  10
ENDBRANCH   6   8
BRANCH   1  24
HETATM   24  N1  UNL     1      22.654  -0.303  53.547  1.00  0.00    -0.165 N 
HETATM   25  C6  UNL     1      22.903  -1.137  54.671  1.00  0.00     0.113 A 
HETATM   26  C5  UNL     1      24.156  -1.093  55.084  1.00  0.00     0.027 A 
HETATM   27  C4  UNL     1      25.309  -0.318  54.559  1.00  0.00     0.170 A 
HETATM   28  C20 UNL     1      24.835   0.465  53.411  1.00  0.00     0.027 A 
HETATM   29  C19 UNL     1      23.633   0.519  52.895  1.00  0.00     0.113 A 
BRANCH  27  30
HETATM   30  O1  UNL     1      26.419  -1.089  54.295  1.00  0.00    -0.372 OA
BRANCH  30  31
HETATM   31  C3  UNL     1      27.212  -0.305  53.412  1.00  0.00     0.229 C 
BRANCH  31  32
HETATM   32  C2  UNL     1      28.602  -0.286  53.806  1.00  0.00     0.079 C 
HETATM   33  C1  UNL     1      29.850  -0.562  53.781  1.00  0.00     0.045 C 
BRANCH  32  34
HETATM   34  N6  UNL     1      28.656   0.579  54.951  1.00  0.00    -0.101 NA
HETATM   35  O4  UNL     1      29.218   1.692  54.853  1.00  0.00    -0.061 OA
ENDBRANCH  32  34
ENDBRANCH  31  32
ENDBRANCH  30  31
ENDBRANCH  27  30
ENDBRANCH   1  24
TORSDOF 9
ENDMDL
MODEL 7
REMARK VINA RESULT:      -8.1      3.309      8.392
REMARK  9 active torsions:
REMARK  status: ('A' for Active; 'I' for Inactive)
REMARK    1  A    between atoms: C2_2  and  C3_3 
REMARK    2  A    between atoms: C2_2  and  N6_32 
REMARK    3  A    between atoms: C3_3  and  O1_4 
REMARK    4  A    between atoms: O1_4  and  C4_5 
REMARK    5  A    between atoms: N1_8  and  C7_9 
REMARK    6  A    between atoms: C10_14  and  N3_15 
REMARK    7  A    between atoms: N3_15  and  C11_16 
REMARK    8  A    between atoms: C15_21  and  N4_22 
REMARK       I    between atoms: N4_22  and  C16_23 
REMARK    9  A    between atoms: C16_23  and  C17_25 
ROOT
HETATM    1  C7  UNL     1      25.634   4.820  50.055  1.00  0.00     0.734 A 
HETATM    2  N2  UNL     1      24.603   5.706  50.116  1.00  0.00    -0.071 NA
HETATM    3  C8  UNL     1      24.625   6.866  49.394  1.00  0.00     0.182 A 
HETATM    4  C9  UNL     1      25.749   7.092  48.597  1.00  0.00     0.180 A 
HETATM    5  F1  UNL     1      25.818   8.239  47.852  1.00  0.00    -0.200 F 
HETATM    6  C10 UNL     1      26.788   6.221  48.522  1.00  0.00     0.187 A 
HETATM    7  N5  UNL     1      26.657   5.123  49.271  1.00  0.00    -0.041 NA
ENDROOT
BRANCH   6   8
HETATM    8  N3  UNL     1      27.947   6.419  47.724  1.00  0.00    -0.338 N 
HETATM    9  H9  UNL     1      27.899   6.221  46.700  1.00  0.00     0.167 HD
BRANCH   8  10
HETATM   10  C11 UNL     1      29.174   6.873  48.227  1.00  0.00     0.037 C 
HETATM   11  C12 UNL     1      29.323   8.158  48.594  1.00  0.00     0.031 C 
HETATM   12  C13 UNL     1      30.510   8.824  49.137  1.00  0.00     0.027 C 
HETATM   13  C14 UNL     1      31.613   8.281  49.626  1.00  0.00     0.144 C 
HETATM   14  O2  UNL     1      31.859   6.923  49.716  1.00  0.00    -0.306 OA
HETATM   15  C15 UNL     1      31.380   5.854  48.940  1.00  0.00     0.151 C 
HETATM   16  C18 UNL     1      30.220   5.849  48.304  1.00  0.00     0.086 C 
BRANCH  15  17
HETATM   17  N4  UNL     1      32.258   4.735  48.879  1.00  0.00    -0.303 N 
HETATM   18  C16 UNL     1      33.219   4.925  47.869  1.00  0.00     0.288 C 
HETATM   19  O3  UNL     1      33.550   5.780  46.993  1.00  0.00    -0.267 OA
HETATM   20  H13 UNL     1      32.372   3.811  49.391  1.00  0.00     0.171 HD
BRANCH  18  21
HETATM   21  C17 UNL     1      34.329   4.039  47.436  1.00  0.00     0.444 C 
HETATM   22  F2  UNL     1      35.141   3.681  48.464  1.00  0.00    -0.204 F 
HETATM   23  F3  UNL     1      35.103   4.619  46.445  1.00  0.00    -0.204 F 
ENDBRANCH  18  21
ENDBRANCH  15  17
ENDBRANCH   8  10
ENDBRANCH   6   8
BRANCH   1  24
HETATM   24  N1  UNL     1      25.584   3.612  50.832  1.00  0.00    -0.165 N 
HETATM   25  C6  UNL     1      26.609   2.646  50.646  1.00  0.00     0.113 A 
HETATM   26  C5  UNL     1      26.459   1.575  51.404  1.00  0.00     0.027 A 
HETATM   27  C4  UNL     1      25.402   1.244  52.392  1.00  0.00     0.170 A 
HETATM   28  C20 UNL     1      24.455   2.367  52.426  1.00  0.00     0.027 A 
HETATM   29  C19 UNL     1      24.479   3.480  51.738  1.00  0.00     0.113 A 
BRANCH  27  30
HETATM   30  O1  UNL     1      25.893   0.885  53.628  1.00  0.00    -0.372 OA
BRANCH  30  31
HETATM   31  C3  UNL     1      26.688  -0.269  53.388  1.00  0.00     0.229 C 
BRANCH  31  32
HETATM   32  C2  UNL     1      28.020  -0.131  53.932  1.00  0.00     0.079 C 
HETATM   33  C1  UNL     1      29.247  -0.408  54.160  1.00  0.00     0.045 C 
BRANCH  32  34
HETATM   34  N6  UNL     1      27.977   1.060  54.733  1.00  0.00    -0.101 NA
HETATM   35  O4  UNL     1      28.749   2.007  54.464  1.00  0.00    -0.061 OA
ENDBRANCH  32  34
ENDBRANCH  31  32
ENDBRANCH  30  31
ENDBRANCH  27  30
ENDBRANCH   1  24
TORSDOF 9
ENDMDL
MODEL 8
REMARK VINA RESULT:      -8.1      1.685      2.138
REMARK  9 active torsions:
REMARK  status: ('A' for Active; 'I' for Inactive)
REMARK    1  A    between atoms: C2_2  and  C3_3 
REMARK    2  A    between atoms: C2_2  and  N6_32 
REMARK    3  A    between atoms: C3_3  and  O1_4 
REMARK    4  A    between atoms: O1_4  and  C4_5 
REMARK    5  A    between atoms: N1_8  and  C7_9 
REMARK    6  A    between atoms: C10_14  and  N3_15 
REMARK    7  A    between atoms: N3_15  and  C11_16 
REMARK    8  A    between atoms: C15_21  and  N4_22 
REMARK       I    between atoms: N4_22  and  C16_23 
REMARK    9  A    between atoms: C16_23  and  C17_25 
ROOT
HETATM    1  C7  UNL     1      23.557   3.154  49.378  1.00  0.00     0.734 A 
HETATM    2  N2  UNL     1      23.016   2.550  48.285  1.00  0.00    -0.071 NA
HETATM    3  C8  UNL     1      21.959   1.692  48.403  1.00  0.00     0.182 A 
HETATM    4  C9  UNL     1      21.467   1.469  49.691  1.00  0.00     0.180 A 
HETATM    5  F1  UNL     1      20.407   0.619  49.862  1.00  0.00    -0.200 F 
HETATM    6  C10 UNL     1      21.992   2.061  50.795  1.00  0.00     0.187 A 
HETATM    7  N5  UNL     1      23.021   2.879  50.558  1.00  0.00    -0.041 NA
ENDROOT
BRANCH   6   8
HETATM    8  N3  UNL     1      21.519   1.857  52.118  1.00  0.00    -0.338 N 
HETATM    9  H9  UNL     1      20.699   2.407  52.456  1.00  0.00     0.167 HD
BRANCH   8  10
HETATM   10  C11 UNL     1      22.088   0.948  53.020  1.00  0.00     0.037 C 
HETATM   11  C12 UNL     1      21.335   0.379  53.978  1.00  0.00     0.031 C 
HETATM   12  C13 UNL     1      21.733  -0.584  55.007  1.00  0.00     0.027 C 
HETATM   13  C14 UNL     1      22.840  -1.306  55.081  1.00  0.00     0.144 C 
HETATM   14  O2  UNL     1      23.870  -1.279  54.159  1.00  0.00    -0.306 OA
HETATM   15  C15 UNL     1      24.300  -0.254  53.298  1.00  0.00     0.151 C 
HETATM   16  C18 UNL     1      23.519   0.698  52.817  1.00  0.00     0.086 C 
BRANCH  15  17
HETATM   17  N4  UNL     1      25.683  -0.310  52.967  1.00  0.00    -0.303 N 
HETATM   18  C16 UNL     1      26.456   0.240  54.006  1.00  0.00     0.288 C 
HETATM   19  O3  UNL     1      26.307   0.771  55.148  1.00  0.00    -0.267 OA
HETATM   20  H13 UNL     1      26.271  -0.653  52.151  1.00  0.00     0.171 HD
BRANCH  18  21
HETATM   21  C17 UNL     1      27.928   0.401  54.113  1.00  0.00     0.444 C 
HETATM   22  F2  UNL     1      28.590  -0.174  53.076  1.00  0.00    -0.204 F 
HETATM   23  F3  UNL     1      28.425  -0.118  55.296  1.00  0.00    -0.204 F 
ENDBRANCH  18  21
ENDBRANCH  15  17
ENDBRANCH   8  10
ENDBRANCH   6   8
BRANCH   1  24
HETATM   24  N1  UNL     1      24.672   4.047  49.222  1.00  0.00    -0.165 N 
HETATM   25  C6  UNL     1      25.975   3.555  49.501  1.00  0.00     0.113 A 
HETATM   26  C5  UNL     1      26.921   4.461  49.331  1.00  0.00     0.027 A 
HETATM   27  C4  UNL     1      26.819   5.879  48.905  1.00  0.00     0.170 A 
HETATM   28  C20 UNL     1      25.400   6.175  48.671  1.00  0.00     0.027 A 
HETATM   29  C19 UNL     1      24.365   5.383  48.798  1.00  0.00     0.113 A 
BRANCH  27  30
HETATM   30  O1  UNL     1      27.642   6.200  47.849  1.00  0.00    -0.372 OA
BRANCH  30  31
HETATM   31  C3  UNL     1      28.936   5.761  48.242  1.00  0.00     0.229 C 
BRANCH  31  32
HETATM   32  C2  UNL     1      29.870   6.858  48.351  1.00  0.00     0.079 C 
HETATM   33  C1  UNL     1      30.290   8.066  48.382  1.00  0.00     0.045 C 
BRANCH  32  34
HETATM   34  N6  UNL     1      31.152   6.242  48.548  1.00  0.00    -0.101 NA
HETATM   35  O4  UNL     1      31.236   5.216  49.260  1.00  0.00    -0.061 OA
ENDBRANCH  32  34
ENDBRANCH  31  32
ENDBRANCH  30  31
ENDBRANCH  27  30
ENDBRANCH   1  24
TORSDOF 9
ENDMDL
MODEL 9
REMARK VINA RESULT:      -8.1      2.558      3.581
REMARK  9 active torsions:
REMARK  status: ('A' for Active; 'I' for Inactive)
REMARK    1  A    between atoms: C2_2  and  C3_3 
REMARK    2  A    between atoms: C2_2  and  N6_32 
REMARK    3  A    between atoms: C3_3  and  O1_4 
REMARK    4  A    between atoms: O1_4  and  C4_5 
REMARK    5  A    between atoms: N1_8  and  C7_9 
REMARK    6  A    between atoms: C10_14  and  N3_15 
REMARK    7  A    between atoms: N3_15  and  C11_16 
REMARK    8  A    between atoms: C15_21  and  N4_22 
REMARK       I    between atoms: N4_22  and  C16_23 
REMARK    9  A    between atoms: C16_23  and  C17_25 
ROOT
HETATM    1  C7  UNL     1      25.548   7.008  49.627  1.00  0.00     0.734 A 
HETATM    2  N2  UNL     1      24.723   7.942  49.082  1.00  0.00    -0.071 NA
HETATM    3  C8  UNL     1      23.471   8.158  49.585  1.00  0.00     0.182 A 
HETATM    4  C9  UNL     1      23.086   7.380  50.679  1.00  0.00     0.180 A 
HETATM    5  F1  UNL     1      21.842   7.561  51.222  1.00  0.00    -0.200 F 
HETATM    6  C10 UNL     1      23.895   6.443  51.238  1.00  0.00     0.187 A 
HETATM    7  N5  UNL     1      25.094   6.319  50.663  1.00  0.00    -0.041 NA
ENDROOT
BRANCH   6   8
HETATM    8  N3  UNL     1      23.537   5.633  52.349  1.00  0.00    -0.338 N 
HETATM    9  H9  UNL     1      23.326   6.089  53.264  1.00  0.00     0.167 HD
BRANCH   8  10
HETATM   10  C11 UNL     1      23.444   4.235  52.299  1.00  0.00     0.037 C 
HETATM   11  C12 UNL     1      22.461   3.645  51.597  1.00  0.00     0.031 C 
HETATM   12  C13 UNL     1      22.192   2.216  51.420  1.00  0.00     0.027 C 
HETATM   13  C14 UNL     1      22.979   1.186  51.688  1.00  0.00     0.144 C 
HETATM   14  O2  UNL     1      24.256   1.275  52.209  1.00  0.00    -0.306 OA
HETATM   15  C15 UNL     1      24.842   2.254  53.031  1.00  0.00     0.151 C 
HETATM   16  C18 UNL     1      24.480   3.526  53.057  1.00  0.00     0.086 C 
BRANCH  15  17
HETATM   17  N4  UNL     1      25.889   1.769  53.864  1.00  0.00    -0.303 N 
HETATM   18  C16 UNL     1      27.136   1.958  53.240  1.00  0.00     0.288 C 
HETATM   19  O3  UNL     1      27.621   2.425  52.165  1.00  0.00    -0.267 OA
HETATM   20  H13 UNL     1      25.969   1.309  54.818  1.00  0.00     0.171 HD
BRANCH  18  21
HETATM   21  C17 UNL     1      28.498   1.613  53.716  1.00  0.00     0.444 C 
HETATM   22  F2  UNL     1      28.479   0.798  54.802  1.00  0.00    -0.204 F 
HETATM   23  F3  UNL     1      29.245   2.738  54.022  1.00  0.00    -0.204 F 
ENDBRANCH  18  21
ENDBRANCH  15  17
ENDBRANCH   8  10
ENDBRANCH   6   8
BRANCH   1  24
HETATM   24  N1  UNL     1      26.857   6.799  49.071  1.00  0.00    -0.165 N 
HETATM   25  C6  UNL     1      27.664   7.936  48.798  1.00  0.00     0.113 A 
HETATM   26  C5  UNL     1      28.840   7.627  48.283  1.00  0.00     0.027 A 
HETATM   27  C4  UNL     1      29.422   6.302  47.957  1.00  0.00     0.170 A 
HETATM   28  C20 UNL     1      28.431   5.278  48.315  1.00  0.00     0.027 A 
HETATM   29  C19 UNL     1      27.238   5.437  48.829  1.00  0.00     0.113 A 
BRANCH  27  30
HETATM   30  O1  UNL     1      30.669   6.094  48.505  1.00  0.00    -0.372 OA
BRANCH  30  31
HETATM   31  C3  UNL     1      31.551   6.004  47.393  1.00  0.00     0.229 C 
BRANCH  31  32
HETATM   32  C2  UNL     1      32.223   4.726  47.337  1.00  0.00     0.079 C 
HETATM   33  C1  UNL     1      32.365   3.455  47.324  1.00  0.00     0.045 C 
BRANCH  32  34
HETATM   34  N6  UNL     1      33.620   5.041  47.236  1.00  0.00    -0.101 NA
HETATM   35  O4  UNL     1      34.208   5.542  48.219  1.00  0.00    -0.061 OA
ENDBRANCH  32  34
ENDBRANCH  31  32
ENDBRANCH  30  31
ENDBRANCH  27  30
ENDBRANCH   1  24
TORSDOF 9
ENDMDL
