MODEL 1
REMARK VINA RESULT:      -9.5      0.000      0.000
REMARK  5 active torsions:
REMARK  status: ('A' for Active; 'I' for Inactive)
REMARK    1  A    between atoms: C4_5  and  N1_6 
REMARK    2  A    between atoms: N1_6  and  C5_7 
REMARK    3  A    between atoms: C8_10  and  C9_11 
REMARK    4  A    between atoms: C9_11  and  C10_12 
REMARK    5  A    between atoms: N3_24  and  C21_25 
ROOT
HETATM    1  C5  UNL     1      27.023   5.189  48.808  1.00  0.00     0.103 C 
HETATM    2  C6  UNL     1      26.405   4.455  49.720  1.00  0.00     0.027 A 
HETATM    3  C7  UNL     1      26.760   3.148  50.287  1.00  0.00     0.042 A 
HETATM    4  C8  UNL     1      25.811   2.856  51.162  1.00  0.00     0.016 A 
HETATM    5  N2  UNL     1      24.806   3.861  51.258  1.00  0.00    -0.343 N 
HETATM    6  C20 UNL     1      25.164   4.911  50.334  1.00  0.00     0.143 A 
HETATM    7  N3  UNL     1      24.444   5.948  50.192  1.00  0.00    -0.192 NA
HETATM    8  H15 UNL     1      23.965   3.848  51.878  1.00  0.00     0.167 HD
ENDROOT
BRANCH   4   9
HETATM    9  C9  UNL     1      25.734   1.621  51.998  1.00  0.00     0.096 C 
BRANCH   9  10
HETATM   10  C10 UNL     1      26.982   1.284  52.683  1.00  0.00    -0.042 A 
HETATM   11  C11 UNL     1      27.747   2.305  53.262  1.00  0.00     0.008 A 
HETATM   12  C12 UNL     1      28.919   1.976  53.901  1.00  0.00     0.001 A 
HETATM   13  C13 UNL     1      29.333   0.673  53.971  1.00  0.00     0.012 A 
HETATM   14  C14 UNL     1      28.624  -0.373  53.421  1.00  0.00    -0.025 A 
HETATM   15  C15 UNL     1      29.015  -1.690  53.474  1.00  0.00     0.012 A 
HETATM   16  C19 UNL     1      27.443  -0.012  52.781  1.00  0.00    -0.019 A 
HETATM   17  C16 UNL     1      28.182  -2.604  52.868  1.00  0.00     0.001 A 
HETATM   18  C17 UNL     1      26.992  -2.319  52.212  1.00  0.00     0.001 A 
HETATM   19  C18 UNL     1      26.649  -0.960  52.193  1.00  0.00     0.013 A 
ENDBRANCH   9  10
ENDBRANCH   4   9
BRANCH   1  20
HETATM   20  N1  UNL     1      26.699   6.435  48.256  1.00  0.00    -0.368 N 
HETATM   21  H3  UNL     1      25.953   6.565  47.541  1.00  0.00     0.165 HD
BRANCH  20  22
HETATM   22  C4  UNL     1      27.392   7.609  48.658  1.00  0.00     0.014 A 
HETATM   23  C3  UNL     1      26.889   8.372  49.646  1.00  0.00     0.026 A 
HETATM   24  C2  UNL     1      27.821   9.504  49.831  1.00  0.00     0.021 A 
HETATM   25  C1  UNL     1      28.842   9.431  48.994  1.00  0.00     0.017 A 
HETATM   26 CL1  UNL     1      30.133  10.588  48.925  1.00  0.00    -0.089 Cl
HETATM   27  C22 UNL     1      28.668   8.227  48.173  1.00  0.00     0.108 A 
ENDBRANCH  20  22
ENDBRANCH   1  20
BRANCH   7  28
HETATM   28  C21 UNL     1      23.241   6.215  50.902  1.00  0.00     0.264 A 
HETATM   29  N4  UNL     1      21.984   5.499  50.805  1.00  0.00    -0.131 NA
HETATM   30  N5  UNL     1      22.112   6.580  51.663  1.00  0.00    -0.240 N 
HETATM   31  H16 UNL     1      22.101   7.380  52.341  1.00  0.00     0.192 HD
ENDBRANCH   7  28
TORSDOF 5
ENDMDL
MODEL 2
REMARK VINA RESULT:      -9.3      4.388      8.839
REMARK  5 active torsions:
REMARK  status: ('A' for Active; 'I' for Inactive)
REMARK    1  A    between atoms: C4_5  and  N1_6 
REMARK    2  A    between atoms: N1_6  and  C5_7 
REMARK    3  A    between atoms: C8_10  and  C9_11 
REMARK    4  A    between atoms: C9_11  and  C10_12 
REMARK    5  A    between atoms: N3_24  and  C21_25 
ROOT
HETATM    1  C5  UNL     1      23.749   1.890  51.965  1.00  0.00     0.103 C 
HETATM    2  C6  UNL     1      24.832   2.402  51.403  1.00  0.00     0.027 A 
HETATM    3  C7  UNL     1      25.017   3.019  50.084  1.00  0.00     0.042 A 
HETATM    4  C8  UNL     1      26.292   3.367  50.014  1.00  0.00     0.016 A 
HETATM    5  N2  UNL     1      27.028   3.041  51.189  1.00  0.00    -0.343 N 
HETATM    6  C20 UNL     1      26.108   2.414  52.108  1.00  0.00     0.143 A 
HETATM    7  N3  UNL     1      26.483   2.004  53.251  1.00  0.00    -0.192 NA
HETATM    8  H15 UNL     1      28.044   3.220  51.361  1.00  0.00     0.167 HD
ENDROOT
BRANCH   4   9
HETATM    9  C9  UNL     1      26.961   4.035  48.857  1.00  0.00     0.096 C 
BRANCH   9  10
HETATM   10  C10 UNL     1      26.907   5.496  48.898  1.00  0.00    -0.042 A 
HETATM   11  C11 UNL     1      25.735   6.130  49.330  1.00  0.00     0.008 A 
HETATM   12  C12 UNL     1      25.696   7.504  49.361  1.00  0.00     0.001 A 
HETATM   13  C13 UNL     1      26.783   8.242  48.977  1.00  0.00     0.012 A 
HETATM   14  C14 UNL     1      27.962   7.675  48.544  1.00  0.00    -0.025 A 
HETATM   15  C15 UNL     1      29.069   8.389  48.150  1.00  0.00     0.012 A 
HETATM   16  C19 UNL     1      27.974   6.284  48.522  1.00  0.00    -0.019 A 
HETATM   17  C16 UNL     1      30.162   7.656  47.744  1.00  0.00     0.001 A 
HETATM   18  C17 UNL     1      30.247   6.271  47.695  1.00  0.00     0.001 A 
HETATM   19  C18 UNL     1      29.087   5.601  48.109  1.00  0.00     0.013 A 
ENDBRANCH   9  10
ENDBRANCH   4   9
BRANCH   1  20
HETATM   20  N1  UNL     1      23.556   1.299  53.220  1.00  0.00    -0.368 N 
HETATM   21  H3  UNL     1      24.197   1.450  54.026  1.00  0.00     0.165 HD
BRANCH  20  22
HETATM   22  C4  UNL     1      22.446   0.443  53.456  1.00  0.00     0.014 A 
HETATM   23  C3  UNL     1      22.599  -0.644  54.235  1.00  0.00     0.026 A 
HETATM   24  C2  UNL     1      21.287  -1.322  54.289  1.00  0.00     0.021 A 
HETATM   25  C1  UNL     1      20.380  -0.676  53.575  1.00  0.00     0.017 A 
HETATM   26 CL1  UNL     1      18.728  -1.180  53.408  1.00  0.00    -0.089 Cl
HETATM   27  C22 UNL     1      21.026   0.500  52.981  1.00  0.00     0.108 A 
ENDBRANCH  20  22
ENDBRANCH   1  20
BRANCH   7  28
HETATM   28  C21 UNL     1      27.803   2.112  53.769  1.00  0.00     0.264 A 
HETATM   29  N4  UNL     1      28.465   1.207  54.689  1.00  0.00    -0.131 NA
HETATM   30  N5  UNL     1      29.124   2.329  54.212  1.00  0.00    -0.240 N 
HETATM   31  H16 UNL     1      29.712   3.145  53.913  1.00  0.00     0.192 HD
ENDBRANCH   7  28
TORSDOF 5
ENDMDL
MODEL 3
REMARK VINA RESULT:      -9.0      2.860      4.168
REMARK  5 active torsions:
REMARK  status: ('A' for Active; 'I' for Inactive)
REMARK    1  A    between atoms: C4_5  and  N1_6 
REMARK    2  A    between atoms: N1_6  and  C5_7 
REMARK    3  A    between atoms: C8_10  and  C9_11 
REMARK    4  A    between atoms: C9_11  and  C10_12 
REMARK    5  A    between atoms: N3_24  and  C21_25 
ROOT
HETATM    1  C5  UNL     1      27.316   4.377  48.947  1.00  0.00     0.103 C 
HETATM    2  C6  UNL     1      26.466   3.910  49.847  1.00  0.00     0.027 A 
HETATM    3  C7  UNL     1      26.387   2.590  50.484  1.00  0.00     0.042 A 
HETATM    4  C8  UNL     1      25.355   2.640  51.310  1.00  0.00     0.016 A 
HETATM    5  N2  UNL     1      24.693   3.901  51.306  1.00  0.00    -0.343 N 
HETATM    6  C20 UNL     1      25.391   4.746  50.366  1.00  0.00     0.143 A 
HETATM    7  N3  UNL     1      25.021   5.940  50.141  1.00  0.00    -0.192 NA
HETATM    8  H15 UNL     1      23.858   4.172  51.875  1.00  0.00     0.167 HD
ENDROOT
BRANCH   4   9
HETATM    9  C9  UNL     1      24.873   1.531  52.187  1.00  0.00     0.096 C 
BRANCH   9  10
HETATM   10  C10 UNL     1      23.498   1.111  51.920  1.00  0.00    -0.042 A 
HETATM   11  C11 UNL     1      22.853   1.563  50.761  1.00  0.00     0.008 A 
HETATM   12  C12 UNL     1      21.559   1.164  50.523  1.00  0.00     0.001 A 
HETATM   13  C13 UNL     1      20.911   0.337  51.401  1.00  0.00     0.012 A 
HETATM   14  C14 UNL     1      21.493  -0.139  52.555  1.00  0.00    -0.025 A 
HETATM   15  C15 UNL     1      20.868  -0.969  53.456  1.00  0.00     0.012 A 
HETATM   16  C19 UNL     1      22.802   0.280  52.772  1.00  0.00    -0.019 A 
HETATM   17  C16 UNL     1      21.602  -1.347  54.558  1.00  0.00     0.001 A 
HETATM   18  C17 UNL     1      22.908  -0.969  54.841  1.00  0.00     0.001 A 
HETATM   19  C18 UNL     1      23.490  -0.124  53.885  1.00  0.00     0.013 A 
ENDBRANCH   9  10
ENDBRANCH   4   9
BRANCH   1  20
HETATM   20  N1  UNL     1      27.406   5.631  48.329  1.00  0.00    -0.368 N 
HETATM   21  H3  UNL     1      26.579   6.144  47.958  1.00  0.00     0.165 HD
BRANCH  20  22
HETATM   22  C4  UNL     1      28.662   6.278  48.178  1.00  0.00     0.014 A 
HETATM   23  C3  UNL     1      29.777   5.539  48.029  1.00  0.00     0.026 A 
HETATM   24  C2  UNL     1      30.905   6.485  47.897  1.00  0.00     0.021 A 
HETATM   25  C1  UNL     1      30.493   7.739  47.963  1.00  0.00     0.017 A 
HETATM   26 CL1  UNL     1      31.540   9.119  47.846  1.00  0.00    -0.089 Cl
HETATM   27  C22 UNL     1      29.037   7.729  48.147  1.00  0.00     0.108 A 
ENDBRANCH  20  22
ENDBRANCH   1  20
BRANCH   7  28
HETATM   28  C21 UNL     1      23.921   6.590  50.766  1.00  0.00     0.264 A 
HETATM   29  N4  UNL     1      23.689   8.018  50.876  1.00  0.00    -0.131 NA
HETATM   30  N5  UNL     1      22.785   7.115  51.415  1.00  0.00    -0.240 N 
HETATM   31  H16 UNL     1      22.039   6.522  51.854  1.00  0.00     0.192 HD
ENDBRANCH   7  28
TORSDOF 5
ENDMDL
MODEL 4
REMARK VINA RESULT:      -8.9      2.379      3.104
REMARK  5 active torsions:
REMARK  status: ('A' for Active; 'I' for Inactive)
REMARK    1  A    between atoms: C4_5  and  N1_6 
REMARK    2  A    between atoms: N1_6  and  C5_7 
REMARK    3  A    between atoms: C8_10  and  C9_11 
REMARK    4  A    between atoms: C9_11  and  C10_12 
REMARK    5  A    between atoms: N3_24  and  C21_25 
ROOT
HETATM    1  C5  UNL     1      27.758   4.683  48.585  1.00  0.00     0.103 C 
HETATM    2  C6  UNL     1      26.747   4.265  49.329  1.00  0.00     0.027 A 
HETATM    3  C7  UNL     1      26.324   2.903  49.680  1.00  0.00     0.042 A 
HETATM    4  C8  UNL     1      25.256   3.035  50.448  1.00  0.00     0.016 A 
HETATM    5  N2  UNL     1      24.887   4.393  50.670  1.00  0.00    -0.343 N 
HETATM    6  C20 UNL     1      25.836   5.214  49.956  1.00  0.00     0.143 A 
HETATM    7  N3  UNL     1      25.757   6.482  49.962  1.00  0.00    -0.192 NA
HETATM    8  H15 UNL     1      24.081   4.738  51.241  1.00  0.00     0.167 HD
ENDROOT
BRANCH   4   9
HETATM    9  C9  UNL     1      24.465   1.922  51.056  1.00  0.00     0.096 C 
BRANCH   9  10
HETATM   10  C10 UNL     1      25.171   1.196  52.112  1.00  0.00    -0.042 A 
HETATM   11  C11 UNL     1      26.567   1.280  52.191  1.00  0.00     0.008 A 
HETATM   12  C12 UNL     1      27.218   0.591  53.186  1.00  0.00     0.001 A 
HETATM   13  C13 UNL     1      26.516  -0.165  54.086  1.00  0.00     0.012 A 
HETATM   14  C14 UNL     1      25.144  -0.286  54.058  1.00  0.00    -0.025 A 
HETATM   15  C15 UNL     1      24.412  -1.038  54.947  1.00  0.00     0.012 A 
HETATM   16  C19 UNL     1      24.511   0.422  53.042  1.00  0.00    -0.019 A 
HETATM   17  C16 UNL     1      23.046  -1.045  54.769  1.00  0.00     0.001 A 
HETATM   18  C17 UNL     1      22.346  -0.367  53.780  1.00  0.00     0.001 A 
HETATM   19  C18 UNL     1      23.148   0.382  52.907  1.00  0.00     0.013 A 
ENDBRANCH   9  10
ENDBRANCH   4   9
BRANCH   1  20
HETATM   20  N1  UNL     1      28.175   5.975  48.241  1.00  0.00    -0.368 N 
HETATM   21  H3  UNL     1      27.513   6.749  48.025  1.00  0.00     0.165 HD
BRANCH  20  22
HETATM   22  C4  UNL     1      29.557   6.298  48.170  1.00  0.00     0.014 A 
HETATM   23  C3  UNL     1      30.450   5.336  47.875  1.00  0.00     0.026 A 
HETATM   24  C2  UNL     1      31.784   5.972  47.877  1.00  0.00     0.021 A 
HETATM   25  C1  UNL     1      31.703   7.261  48.160  1.00  0.00     0.017 A 
HETATM   26 CL1  UNL     1      33.068   8.329  48.249  1.00  0.00    -0.089 Cl
HETATM   27  C22 UNL     1      30.289   7.590  48.372  1.00  0.00     0.108 A 
ENDBRANCH  20  22
ENDBRANCH   1  20
BRANCH   7  28
HETATM   28  C21 UNL     1      24.771   7.240  50.652  1.00  0.00     0.264 A 
HETATM   29  N4  UNL     1      24.292   8.569  50.324  1.00  0.00    -0.131 NA
HETATM   30  N5  UNL     1      23.784   7.890  51.421  1.00  0.00    -0.240 N 
HETATM   31  H16 UNL     1      23.333   7.466  52.268  1.00  0.00     0.192 HD
ENDBRANCH   7  28
TORSDOF 5
ENDMDL
MODEL 5
REMARK VINA RESULT:      -8.9      2.747      3.583
REMARK  5 active torsions:
REMARK  status: ('A' for Active; 'I' for Inactive)
REMARK    1  A    between atoms: C4_5  and  N1_6 
REMARK    2  A    between atoms: N1_6  and  C5_7 
REMARK    3  A    between atoms: C8_10  and  C9_11 
REMARK    4  A    between atoms: C9_11  and  C10_12 
REMARK    5  A    between atoms: N3_24  and  C21_25 
ROOT
HETATM    1  C5  UNL     1      22.931   5.004  52.453  1.00  0.00     0.103 C 
HETATM    2  C6  UNL     1      23.406   3.796  52.194  1.00  0.00     0.027 A 
HETATM    3  C7  UNL     1      24.150   2.864  53.050  1.00  0.00     0.042 A 
HETATM    4  C8  UNL     1      24.387   1.792  52.311  1.00  0.00     0.016 A 
HETATM    5  N2  UNL     1      23.863   1.894  50.990  1.00  0.00    -0.343 N 
HETATM    6  C20 UNL     1      23.221   3.183  50.884  1.00  0.00     0.143 A 
HETATM    7  N3  UNL     1      22.664   3.564  49.808  1.00  0.00    -0.192 NA
HETATM    8  H15 UNL     1      23.928   1.175  50.234  1.00  0.00     0.167 HD
ENDROOT
BRANCH   4   9
HETATM    9  C9  UNL     1      25.119   0.565  52.747  1.00  0.00     0.096 C 
BRANCH   9  10
HETATM   10  C10 UNL     1      26.529   0.791  53.063  1.00  0.00    -0.042 A 
HETATM   11  C11 UNL     1      26.974   2.091  53.336  1.00  0.00     0.008 A 
HETATM   12  C12 UNL     1      28.303   2.290  53.628  1.00  0.00     0.001 A 
HETATM   13  C13 UNL     1      29.177   1.237  53.653  1.00  0.00     0.012 A 
HETATM   14  C14 UNL     1      28.798  -0.062  53.393  1.00  0.00    -0.025 A 
HETATM   15  C15 UNL     1      29.653  -1.139  53.409  1.00  0.00     0.012 A 
HETATM   16  C19 UNL     1      27.449  -0.235  53.100  1.00  0.00    -0.019 A 
HETATM   17  C16 UNL     1      29.100  -2.368  53.123  1.00  0.00     0.001 A 
HETATM   18  C17 UNL     1      27.768  -2.617  52.822  1.00  0.00     0.001 A 
HETATM   19  C18 UNL     1      26.949  -1.479  52.822  1.00  0.00     0.013 A 
ENDBRANCH   9  10
ENDBRANCH   4   9
BRANCH   1  20
HETATM   20  N1  UNL     1      22.220   5.904  51.650  1.00  0.00    -0.368 N 
HETATM   21  H3  UNL     1      21.181   5.903  51.575  1.00  0.00     0.165 HD
BRANCH  20  22
HETATM   22  C4  UNL     1      22.900   6.886  50.880  1.00  0.00     0.014 A 
HETATM   23  C3  UNL     1      24.181   7.184  51.166  1.00  0.00     0.026 A 
HETATM   24  C2  UNL     1      24.604   8.226  50.206  1.00  0.00     0.021 A 
HETATM   25  C1  UNL     1      23.625   8.544  49.377  1.00  0.00     0.017 A 
HETATM   26 CL1  UNL     1      23.759   9.729  48.116  1.00  0.00    -0.089 Cl
HETATM   27  C22 UNL     1      22.455   7.729  49.724  1.00  0.00     0.108 A 
ENDBRANCH  20  22
ENDBRANCH   1  20
BRANCH   7  28
HETATM   28  C21 UNL     1      22.586   2.801  48.610  1.00  0.00     0.264 A 
HETATM   29  N4  UNL     1      22.119   3.247  47.311  1.00  0.00    -0.131 NA
HETATM   30  N5  UNL     1      22.557   1.944  47.491  1.00  0.00    -0.240 N 
HETATM   31  H16 UNL     1      22.866   0.941  47.517  1.00  0.00     0.192 HD
ENDBRANCH   7  28
TORSDOF 5
ENDMDL
MODEL 6
REMARK VINA RESULT:      -8.4      3.034      7.562
REMARK  5 active torsions:
REMARK  status: ('A' for Active; 'I' for Inactive)
REMARK    1  A    between atoms: C4_5  and  N1_6 
REMARK    2  A    between atoms: N1_6  and  C5_7 
REMARK    3  A    between atoms: C8_10  and  C9_11 
REMARK    4  A    between atoms: C9_11  and  C10_12 
REMARK    5  A    between atoms: N3_24  and  C21_25 
ROOT
HETATM    1  C5  UNL     1      26.448   3.025  50.056  1.00  0.00     0.103 C 
HETATM    2  C6  UNL     1      26.587   4.237  49.543  1.00  0.00     0.027 A 
HETATM    3  C7  UNL     1      27.594   4.766  48.616  1.00  0.00     0.042 A 
HETATM    4  C8  UNL     1      27.283   6.037  48.418  1.00  0.00     0.016 A 
HETATM    5  N2  UNL     1      26.125   6.450  49.138  1.00  0.00    -0.343 N 
HETATM    6  C20 UNL     1      25.652   5.304  49.878  1.00  0.00     0.143 A 
HETATM    7  N3  UNL     1      24.627   5.370  50.626  1.00  0.00    -0.192 NA
HETATM    8  H15 UNL     1      25.693   7.402  49.137  1.00  0.00     0.167 HD
ENDROOT
BRANCH   4   9
HETATM    9  C9  UNL     1      28.019   6.999  47.545  1.00  0.00     0.096 C 
BRANCH   9  10
HETATM   10  C10 UNL     1      29.069   7.749  48.234  1.00  0.00    -0.042 A 
HETATM   11  C11 UNL     1      28.744   8.942  48.892  1.00  0.00     0.008 A 
HETATM   12  C12 UNL     1      29.741   9.639  49.534  1.00  0.00     0.001 A 
HETATM   13  C13 UNL     1      31.029   9.175  49.532  1.00  0.00     0.012 A 
HETATM   14  C14 UNL     1      31.408   8.009  48.903  1.00  0.00    -0.025 A 
HETATM   15  C15 UNL     1      32.692   7.520  48.883  1.00  0.00     0.012 A 
HETATM   16  C19 UNL     1      30.381   7.325  48.262  1.00  0.00    -0.019 A 
HETATM   17  C16 UNL     1      32.890   6.338  48.203  1.00  0.00     0.001 A 
HETATM   18  C17 UNL     1      31.918   5.601  47.541  1.00  0.00     0.001 A 
HETATM   19  C18 UNL     1      30.630   6.152  47.599  1.00  0.00     0.013 A 
ENDBRANCH   9  10
ENDBRANCH   4   9
BRANCH   1  20
HETATM   20  N1  UNL     1      25.495   2.504  50.940  1.00  0.00    -0.368 N 
HETATM   21  H3  UNL     1      24.470   2.645  50.821  1.00  0.00     0.165 HD
BRANCH  20  22
HETATM   22  C4  UNL     1      25.893   1.737  52.068  1.00  0.00     0.014 A 
HETATM   23  C3  UNL     1      25.004   0.924  52.667  1.00  0.00     0.026 A 
HETATM   24  C2  UNL     1      25.707   0.273  53.792  1.00  0.00     0.021 A 
HETATM   25  C1  UNL     1      26.964   0.674  53.873  1.00  0.00     0.017 A 
HETATM   26 CL1  UNL     1      28.091   0.120  55.071  1.00  0.00    -0.089 Cl
HETATM   27  C22 UNL     1      27.202   1.637  52.792  1.00  0.00     0.108 A 
ENDBRANCH  20  22
ENDBRANCH   1  20
BRANCH   7  28
HETATM   28  C21 UNL     1      23.829   6.530  50.823  1.00  0.00     0.264 A 
HETATM   29  N4  UNL     1      22.993   7.201  49.846  1.00  0.00    -0.131 NA
HETATM   30  N5  UNL     1      23.081   7.682  51.143  1.00  0.00    -0.240 N 
HETATM   31  H16 UNL     1      23.074   8.127  52.093  1.00  0.00     0.192 HD
ENDBRANCH   7  28
TORSDOF 5
ENDMDL
MODEL 7
REMARK VINA RESULT:      -8.4      1.011      2.175
REMARK  5 active torsions:
REMARK  status: ('A' for Active; 'I' for Inactive)
REMARK    1  A    between atoms: C4_5  and  N1_6 
REMARK    2  A    between atoms: N1_6  and  C5_7 
REMARK    3  A    between atoms: C8_10  and  C9_11 
REMARK    4  A    between atoms: C9_11  and  C10_12 
REMARK    5  A    between atoms: N3_24  and  C21_25 
ROOT
HETATM    1  C5  UNL     1      26.899   4.030  49.309  1.00  0.00     0.103 C 
HETATM    2  C6  UNL     1      26.261   3.561  50.369  1.00  0.00     0.027 A 
HETATM    3  C7  UNL     1      26.559   2.404  51.222  1.00  0.00     0.042 A 
HETATM    4  C8  UNL     1      25.612   2.372  52.145  1.00  0.00     0.016 A 
HETATM    5  N2  UNL     1      24.661   3.424  52.010  1.00  0.00    -0.343 N 
HETATM    6  C20 UNL     1      25.055   4.211  50.866  1.00  0.00     0.143 A 
HETATM    7  N3  UNL     1      24.386   5.224  50.491  1.00  0.00    -0.192 NA
HETATM    8  H15 UNL     1      23.830   3.599  52.621  1.00  0.00     0.167 HD
ENDROOT
BRANCH   4   9
HETATM    9  C9  UNL     1      25.488   1.370  53.246  1.00  0.00     0.096 C 
BRANCH   9  10
HETATM   10  C10 UNL     1      26.261   0.146  53.030  1.00  0.00    -0.042 A 
HETATM   11  C11 UNL     1      25.632  -0.976  52.476  1.00  0.00     0.008 A 
HETATM   12  C12 UNL     1      26.368  -2.121  52.281  1.00  0.00     0.001 A 
HETATM   13  C13 UNL     1      27.694  -2.164  52.621  1.00  0.00     0.012 A 
HETATM   14  C14 UNL     1      28.365  -1.093  53.168  1.00  0.00    -0.025 A 
HETATM   15  C15 UNL     1      29.694  -1.107  53.520  1.00  0.00     0.012 A 
HETATM   16  C19 UNL     1      27.597   0.052  53.355  1.00  0.00    -0.019 A 
HETATM   17  C16 UNL     1      30.202   0.056  54.057  1.00  0.00     0.001 A 
HETATM   18  C17 UNL     1      29.498   1.233  54.273  1.00  0.00     0.001 A 
HETATM   19  C18 UNL     1      28.149   1.184  53.893  1.00  0.00     0.013 A 
ENDBRANCH   9  10
ENDBRANCH   4   9
BRANCH   1  20
HETATM   20  N1  UNL     1      26.629   5.130  48.485  1.00  0.00    -0.368 N 
HETATM   21  H3  UNL     1      25.805   5.178  47.849  1.00  0.00     0.165 HD
BRANCH  20  22
HETATM   22  C4  UNL     1      27.488   6.262  48.479  1.00  0.00     0.014 A 
HETATM   23  C3  UNL     1      27.052   7.431  48.982  1.00  0.00     0.026 A 
HETATM   24  C2  UNL     1      28.157   8.402  48.835  1.00  0.00     0.021 A 
HETATM   25  C1  UNL     1      29.215   7.846  48.268  1.00  0.00     0.017 A 
HETATM   26 CL1  UNL     1      30.698   8.684  47.938  1.00  0.00    -0.089 Cl
HETATM   27  C22 UNL     1      28.894   6.442  47.989  1.00  0.00     0.108 A 
ENDBRANCH  20  22
ENDBRANCH   1  20
BRANCH   7  28
HETATM   28  C21 UNL     1      23.210   5.711  51.125  1.00  0.00     0.264 A 
HETATM   29  N4  UNL     1      21.950   6.058  50.497  1.00  0.00    -0.131 NA
HETATM   30  N5  UNL     1      22.110   6.187  51.868  1.00  0.00    -0.240 N 
HETATM   31  H16 UNL     1      22.123   6.320  52.909  1.00  0.00     0.192 HD
ENDBRANCH   7  28
TORSDOF 5
ENDMDL
MODEL 8
REMARK VINA RESULT:      -8.4      4.900      8.266
REMARK  5 active torsions:
REMARK  status: ('A' for Active; 'I' for Inactive)
REMARK    1  A    between atoms: C4_5  and  N1_6 
REMARK    2  A    between atoms: N1_6  and  C5_7 
REMARK    3  A    between atoms: C8_10  and  C9_11 
REMARK    4  A    between atoms: C9_11  and  C10_12 
REMARK    5  A    between atoms: N3_24  and  C21_25 
ROOT
HETATM    1  C5  UNL     1      27.862   4.869  48.524  1.00  0.00     0.103 C 
HETATM    2  C6  UNL     1      28.820   5.761  48.332  1.00  0.00     0.027 A 
HETATM    3  C7  UNL     1      30.228   5.577  47.958  1.00  0.00     0.042 A 
HETATM    4  C8  UNL     1      30.755   6.789  47.895  1.00  0.00     0.016 A 
HETATM    5  N2  UNL     1      29.822   7.823  48.196  1.00  0.00    -0.343 N 
HETATM    6  C20 UNL     1      28.559   7.187  48.484  1.00  0.00     0.143 A 
HETATM    7  N3  UNL     1      27.529   7.861  48.797  1.00  0.00    -0.192 NA
HETATM    8  H15 UNL     1      30.011   8.851  48.209  1.00  0.00     0.167 HD
ENDROOT
BRANCH   4   9
HETATM    9  C9  UNL     1      32.171   7.117  47.550  1.00  0.00     0.096 C 
BRANCH   9  10
HETATM   10  C10 UNL     1      32.659   6.459  46.338  1.00  0.00    -0.042 A 
HETATM   11  C11 UNL     1      32.231   6.918  45.086  1.00  0.00     0.008 A 
HETATM   12  C12 UNL     1      32.695   6.289  43.954  1.00  0.00     0.001 A 
HETATM   13  C13 UNL     1      33.561   5.232  44.049  1.00  0.00     0.012 A 
HETATM   14  C14 UNL     1      34.015   4.738  45.251  1.00  0.00    -0.025 A 
HETATM   15  C15 UNL     1      34.883   3.678  45.377  1.00  0.00     0.012 A 
HETATM   16  C19 UNL     1      33.531   5.392  46.379  1.00  0.00    -0.019 A 
HETATM   17  C16 UNL     1      35.231   3.317  46.661  1.00  0.00     0.001 A 
HETATM   18  C17 UNL     1      34.789   3.920  47.830  1.00  0.00     0.001 A 
HETATM   19  C18 UNL     1      33.908   4.993  47.634  1.00  0.00     0.013 A 
ENDBRANCH   9  10
ENDBRANCH   4   9
BRANCH   1  20
HETATM   20  N1  UNL     1      26.516   5.027  48.880  1.00  0.00    -0.368 N 
HETATM   21  H3  UNL     1      25.943   5.847  48.590  1.00  0.00     0.165 HD
BRANCH  20  22
HETATM   22  C4  UNL     1      25.854   4.050  49.671  1.00  0.00     0.014 A 
HETATM   23  C3  UNL     1      24.517   3.926  49.594  1.00  0.00     0.026 A 
HETATM   24  C2  UNL     1      24.131   2.842  50.521  1.00  0.00     0.021 A 
HETATM   25  C1  UNL     1      25.186   2.332  51.133  1.00  0.00     0.017 A 
HETATM   26 CL1  UNL     1      25.115   1.042  52.292  1.00  0.00    -0.089 Cl
HETATM   27  C22 UNL     1      26.375   3.046  50.655  1.00  0.00     0.108 A 
ENDBRANCH  20  22
ENDBRANCH   1  20
BRANCH   7  28
HETATM   28  C21 UNL     1      27.475   9.279  48.892  1.00  0.00     0.264 A 
HETATM   29  N4  UNL     1      26.792  10.069  49.900  1.00  0.00    -0.131 NA
HETATM   30  N5  UNL     1      27.494  10.689  48.878  1.00  0.00    -0.240 N 
HETATM   31  H16 UNL     1      27.996  11.257  48.152  1.00  0.00     0.192 HD
ENDBRANCH   7  28
TORSDOF 5
ENDMDL
MODEL 9
REMARK VINA RESULT:      -8.4      2.884      8.183
REMARK  5 active torsions:
REMARK  status: ('A' for Active; 'I' for Inactive)
REMARK    1  A    between atoms: C4_5  and  N1_6 
REMARK    2  A    between atoms: N1_6  and  C5_7 
REMARK    3  A    between atoms: C8_10  and  C9_11 
REMARK    4  A    between atoms: C9_11  and  C10_12 
REMARK    5  A    between atoms: N3_24  and  C21_25 
ROOT
HETATM    1  C5  UNL     1      26.480   3.024  49.979  1.00  0.00     0.103 C 
HETATM    2  C6  UNL     1      26.632   4.250  49.504  1.00  0.00     0.027 A 
HETATM    3  C7  UNL     1      27.636   4.795  48.584  1.00  0.00     0.042 A 
HETATM    4  C8  UNL     1      27.341   6.076  48.430  1.00  0.00     0.016 A 
HETATM    5  N2  UNL     1      26.197   6.482  49.177  1.00  0.00    -0.343 N 
HETATM    6  C20 UNL     1      25.715   5.319  49.883  1.00  0.00     0.143 A 
HETATM    7  N3  UNL     1      24.700   5.375  50.645  1.00  0.00    -0.192 NA
HETATM    8  H15 UNL     1      25.779   7.440  49.211  1.00  0.00     0.167 HD
ENDROOT
BRANCH   4   9
HETATM    9  C9  UNL     1      28.082   7.056  47.581  1.00  0.00     0.096 C 
BRANCH   9  10
HETATM   10  C10 UNL     1      29.286   7.600  48.208  1.00  0.00    -0.042 A 
HETATM   11  C11 UNL     1      30.325   6.733  48.572  1.00  0.00     0.008 A 
HETATM   12  C12 UNL     1      31.450   7.257  49.163  1.00  0.00     0.001 A 
HETATM   13  C13 UNL     1      31.556   8.602  49.392  1.00  0.00     0.012 A 
HETATM   14  C14 UNL     1      30.569   9.502  49.056  1.00  0.00    -0.025 A 
HETATM   15  C15 UNL     1      30.647  10.858  49.274  1.00  0.00     0.012 A 
HETATM   16  C19 UNL     1      29.442   8.946  48.460  1.00  0.00    -0.019 A 
HETATM   17  C16 UNL     1      29.563  11.609  48.874  1.00  0.00     0.001 A 
HETATM   18  C17 UNL     1      28.408  11.125  48.276  1.00  0.00     0.001 A 
HETATM   19  C18 UNL     1      28.390   9.737  48.080  1.00  0.00     0.013 A 
ENDBRANCH   9  10
ENDBRANCH   4   9
BRANCH   1  20
HETATM   20  N1  UNL     1      25.529   2.488  50.856  1.00  0.00    -0.368 N 
HETATM   21  H3  UNL     1      24.502   2.572  50.704  1.00  0.00     0.165 HD
BRANCH  20  22
HETATM   22  C4  UNL     1      25.932   1.786  52.024  1.00  0.00     0.014 A 
HETATM   23  C3  UNL     1      25.000   1.246  52.830  1.00  0.00     0.026 A 
HETATM   24  C2  UNL     1      25.721   0.593  53.943  1.00  0.00     0.021 A 
HETATM   25  C1  UNL     1      27.029   0.732  53.818  1.00  0.00     0.017 A 
HETATM   26 CL1  UNL     1      28.191   0.094  54.939  1.00  0.00    -0.089 Cl
HETATM   27  C22 UNL     1      27.288   1.499  52.594  1.00  0.00     0.108 A 
ENDBRANCH  20  22
ENDBRANCH   1  20
BRANCH   7  28
HETATM   28  C21 UNL     1      23.920   6.539  50.889  1.00  0.00     0.264 A 
HETATM   29  N4  UNL     1      22.500   6.713  50.654  1.00  0.00    -0.131 NA
HETATM   30  N5  UNL     1      23.258   7.751  51.172  1.00  0.00    -0.240 N 
HETATM   31  H16 UNL     1      23.737   8.598  51.567  1.00  0.00     0.192 HD
ENDBRANCH   7  28
TORSDOF 5
ENDMDL
