MODEL 1
REMARK VINA RESULT:      -7.2      0.000      0.000
REMARK  10 active torsions:
REMARK  status: ('A' for Active; 'I' for Inactive)
REMARK    1  A    between atoms: O1_2  and  C2_3 
REMARK    2  A    between atoms: C6_9  and  N3_10 
REMARK    3  A    between atoms: N3_10  and  C7_11 
REMARK    4  A    between atoms: C7_11  and  C8_12 
REMARK    5  A    between atoms: C9_13  and  C10_14 
REMARK    6  A    between atoms: C10_14  and  C11_15 
REMARK    7  A    between atoms: C14_19  and  O2_20 
REMARK    8  A    between atoms: O2_20  and  C15_21 
REMARK    9  A    between atoms: C15_21  and  C16_22 
REMARK   10  A    between atoms: C16_22  and  N4_23 
ROOT
HETATM    1  C2  UNL     1      22.654   0.021  52.739  1.00  0.00     0.103 A 
HETATM    2  C3  UNL     1      21.858   0.580  51.731  1.00  0.00     0.072 A 
HETATM    3  C4  UNL     1      22.353   1.648  50.981  1.00  0.00     0.075 A 
HETATM    4  N1  UNL     1      21.583   2.180  50.016  1.00  0.00    -0.241 NA
HETATM    5  C5  UNL     1      22.092   3.220  49.299  1.00  0.00     0.235 A 
HETATM    6  N2  UNL     1      23.337   3.732  49.524  1.00  0.00    -0.224 NA
HETATM    7  C6  UNL     1      24.134   3.227  50.481  1.00  0.00     0.137 A 
HETATM    8  C12 UNL     1      23.606   2.175  51.198  1.00  0.00     0.041 A 
HETATM    9  C13 UNL     1      24.329   1.589  52.188  1.00  0.00     0.057 A 
HETATM   10  C14 UNL     1      23.938   0.533  52.987  1.00  0.00     0.103 A 
ENDROOT
BRANCH   7  11
HETATM   11  N3  UNL     1      25.428   3.773  50.697  1.00  0.00    -0.371 N 
HETATM   12  H6  UNL     1      25.708   4.417  51.460  1.00  0.00     0.161 HD
BRANCH  11  13
HETATM   13  C7  UNL     1      26.498   3.428  49.782  1.00  0.00     0.148 C 
BRANCH  13  14
HETATM   14  C8  UNL     1      26.855   4.671  49.030  1.00  0.00    -0.011 C 
HETATM   15  C9  UNL     1      28.059   5.067  48.622  1.00  0.00    -0.027 C 
BRANCH  15  16
HETATM   16  C10 UNL     1      28.773   6.135  47.914  1.00  0.00     0.058 C 
BRANCH  16  17
HETATM   17  C11 UNL     1      30.262   6.062  48.012  1.00  0.00     0.225 C 
HETATM   18  F1  UNL     1      30.699   4.853  47.515  1.00  0.00    -0.255 F 
ENDBRANCH  16  17
ENDBRANCH  15  16
ENDBRANCH  13  14
ENDBRANCH  11  13
ENDBRANCH   7  11
BRANCH  10  19
HETATM   19  O2  UNL     1      24.555  -0.121  53.982  1.00  0.00    -0.347 OA
BRANCH  19  20
HETATM   20  C15 UNL     1      25.786  -0.686  54.171  1.00  0.00     0.206 C 
BRANCH  20  21
HETATM   21  C16 UNL     1      26.813   0.143  54.895  1.00  0.00     0.301 C 
BRANCH  21  22
HETATM   22  N4  UNL     1      28.076   0.248  54.169  1.00  0.00     0.115 N 
HETATM   23  C17 UNL     1      27.849   0.854  52.856  1.00  0.00     0.301 C 
HETATM   24  C18 UNL     1      27.962   2.312  53.167  1.00  0.00     0.200 C 
HETATM   25  O3  UNL     1      28.676   2.434  54.341  1.00  0.00    -0.361 OA
HETATM   26  C19 UNL     1      29.016   1.149  54.749  1.00  0.00     0.440 C 
ENDBRANCH  21  22
ENDBRANCH  20  21
ENDBRANCH  19  20
ENDBRANCH  10  19
BRANCH   1  27
HETATM   27  O1  UNL     1      22.107  -1.043  53.455  1.00  0.00    -0.353 OA
HETATM   28  C1  UNL     1      20.784  -0.888  53.925  1.00  0.00     0.210 C 
ENDBRANCH   1  27
TORSDOF 10
ENDMDL
MODEL 2
REMARK VINA RESULT:      -7.1      3.421      7.630
REMARK  10 active torsions:
REMARK  status: ('A' for Active; 'I' for Inactive)
REMARK    1  A    between atoms: O1_2  and  C2_3 
REMARK    2  A    between atoms: C6_9  and  N3_10 
REMARK    3  A    between atoms: N3_10  and  C7_11 
REMARK    4  A    between atoms: C7_11  and  C8_12 
REMARK    5  A    between atoms: C9_13  and  C10_14 
REMARK    6  A    between atoms: C10_14  and  C11_15 
REMARK    7  A    between atoms: C14_19  and  O2_20 
REMARK    8  A    between atoms: O2_20  and  C15_21 
REMARK    9  A    between atoms: C15_21  and  C16_22 
REMARK   10  A    between atoms: C16_22  and  N4_23 
ROOT
HETATM    1  C2  UNL     1      25.815   2.618  51.121  1.00  0.00     0.103 A 
HETATM    2  C3  UNL     1      27.056   2.531  51.764  1.00  0.00     0.072 A 
HETATM    3  C4  UNL     1      27.251   1.564  52.750  1.00  0.00     0.075 A 
HETATM    4  N1  UNL     1      28.445   1.486  53.363  1.00  0.00    -0.241 NA
HETATM    5  C5  UNL     1      28.607   0.532  54.320  1.00  0.00     0.235 A 
HETATM    6  N2  UNL     1      27.614  -0.335  54.674  1.00  0.00    -0.224 NA
HETATM    7  C6  UNL     1      26.407  -0.287  54.084  1.00  0.00     0.137 A 
HETATM    8  C12 UNL     1      26.258   0.684  53.117  1.00  0.00     0.041 A 
HETATM    9  C13 UNL     1      25.077   0.818  52.457  1.00  0.00     0.057 A 
HETATM   10  C14 UNL     1      24.779   1.736  51.470  1.00  0.00     0.103 A 
ENDROOT
BRANCH   7  11
HETATM   11  N3  UNL     1      25.388  -1.201  54.466  1.00  0.00    -0.371 N 
HETATM   12  H6  UNL     1      24.988  -1.960  53.883  1.00  0.00     0.161 HD
BRANCH  11  13
HETATM   13  C7  UNL     1      24.816  -1.100  55.794  1.00  0.00     0.148 C 
BRANCH  13  14
HETATM   14  C8  UNL     1      23.349  -1.362  55.663  1.00  0.00    -0.011 C 
HETATM   15  C9  UNL     1      22.521  -0.936  54.711  1.00  0.00    -0.027 C 
BRANCH  15  16
HETATM   16  C10 UNL     1      21.125  -0.970  54.259  1.00  0.00     0.058 C 
BRANCH  16  17
HETATM   17  C11 UNL     1      20.874  -0.283  52.956  1.00  0.00     0.225 C 
HETATM   18  F1  UNL     1      21.909  -0.548  52.086  1.00  0.00    -0.255 F 
ENDBRANCH  16  17
ENDBRANCH  15  16
ENDBRANCH  13  14
ENDBRANCH  11  13
ENDBRANCH   7  11
BRANCH  10  19
HETATM   19  O2  UNL     1      23.666   1.962  50.756  1.00  0.00    -0.347 OA
BRANCH  19  20
HETATM   20  C15 UNL     1      22.445   2.529  50.997  1.00  0.00     0.206 C 
BRANCH  20  21
HETATM   21  C16 UNL     1      22.229   3.927  50.484  1.00  0.00     0.301 C 
BRANCH  21  22
HETATM   22  N4  UNL     1      22.036   4.903  51.554  1.00  0.00     0.115 N 
HETATM   23  C17 UNL     1      23.306   5.156  52.235  1.00  0.00     0.301 C 
HETATM   24  C18 UNL     1      23.889   6.253  51.404  1.00  0.00     0.200 C 
HETATM   25  O3  UNL     1      22.851   6.857  50.724  1.00  0.00    -0.361 OA
HETATM   26  C19 UNL     1      21.681   6.209  51.104  1.00  0.00     0.440 C 
ENDBRANCH  21  22
ENDBRANCH  20  21
ENDBRANCH  19  20
ENDBRANCH  10  19
BRANCH   1  27
HETATM   27  O1  UNL     1      25.679   3.604  50.145  1.00  0.00    -0.353 OA
HETATM   28  C1  UNL     1      26.808   3.872  49.340  1.00  0.00     0.210 C 
ENDBRANCH   1  27
TORSDOF 10
ENDMDL
MODEL 3
REMARK VINA RESULT:      -7.0      2.889      3.633
REMARK  10 active torsions:
REMARK  status: ('A' for Active; 'I' for Inactive)
REMARK    1  A    between atoms: O1_2  and  C2_3 
REMARK    2  A    between atoms: C6_9  and  N3_10 
REMARK    3  A    between atoms: N3_10  and  C7_11 
REMARK    4  A    between atoms: C7_11  and  C8_12 
REMARK    5  A    between atoms: C9_13  and  C10_14 
REMARK    6  A    between atoms: C10_14  and  C11_15 
REMARK    7  A    between atoms: C14_19  and  O2_20 
REMARK    8  A    between atoms: O2_20  and  C15_21 
REMARK    9  A    between atoms: C15_21  and  C16_22 
REMARK   10  A    between atoms: C16_22  and  N4_23 
ROOT
HETATM    1  C2  UNL     1      22.553  -0.036  53.425  1.00  0.00     0.103 A 
HETATM    2  C3  UNL     1      21.422   0.765  53.225  1.00  0.00     0.072 A 
HETATM    3  C4  UNL     1      21.578   2.057  52.722  1.00  0.00     0.075 A 
HETATM    4  N1  UNL     1      20.489   2.822  52.532  1.00  0.00    -0.241 NA
HETATM    5  C5  UNL     1      20.672   4.077  52.039  1.00  0.00     0.235 A 
HETATM    6  N2  UNL     1      21.904   4.579  51.736  1.00  0.00    -0.224 NA
HETATM    7  C6  UNL     1      23.016   3.845  51.914  1.00  0.00     0.137 A 
HETATM    8  C12 UNL     1      22.816   2.577  52.413  1.00  0.00     0.041 A 
HETATM    9  C13 UNL     1      23.873   1.750  52.629  1.00  0.00     0.057 A 
HETATM   10  C14 UNL     1      23.831   0.461  53.121  1.00  0.00     0.103 A 
ENDROOT
BRANCH   7  11
HETATM   11  N3  UNL     1      24.289   4.387  51.590  1.00  0.00    -0.371 N 
HETATM   12  H6  UNL     1      25.038   4.652  52.258  1.00  0.00     0.161 HD
BRANCH  11  13
HETATM   13  C7  UNL     1      24.623   4.612  50.197  1.00  0.00     0.148 C 
BRANCH  13  14
HETATM   14  C8  UNL     1      24.260   3.368  49.450  1.00  0.00    -0.011 C 
HETATM   15  C9  UNL     1      23.208   3.161  48.661  1.00  0.00    -0.027 C 
BRANCH  15  16
HETATM   16  C10 UNL     1      22.546   2.163  47.814  1.00  0.00     0.058 C 
BRANCH  16  17
HETATM   17  C11 UNL     1      21.523   1.329  48.514  1.00  0.00     0.225 C 
HETATM   18  F1  UNL     1      22.064   0.807  49.669  1.00  0.00    -0.255 F 
ENDBRANCH  16  17
ENDBRANCH  15  16
ENDBRANCH  13  14
ENDBRANCH  11  13
ENDBRANCH   7  11
BRANCH  10  19
HETATM   19  O2  UNL     1      24.792  -0.439  53.374  1.00  0.00    -0.347 OA
BRANCH  19  20
HETATM   20  C15 UNL     1      25.839  -0.980  52.678  1.00  0.00     0.206 C 
BRANCH  20  21
HETATM   21  C16 UNL     1      27.206  -0.847  53.292  1.00  0.00     0.301 C 
BRANCH  21  22
HETATM   22  N4  UNL     1      27.347   0.350  54.118  1.00  0.00     0.115 N 
HETATM   23  C17 UNL     1      28.620   0.314  54.838  1.00  0.00     0.301 C 
HETATM   24  C18 UNL     1      29.550   0.944  53.851  1.00  0.00     0.200 C 
HETATM   25  O3  UNL     1      28.786   1.690  52.976  1.00  0.00    -0.361 OA
HETATM   26  C19 UNL     1      27.462   1.565  53.380  1.00  0.00     0.440 C 
ENDBRANCH  21  22
ENDBRANCH  20  21
ENDBRANCH  19  20
ENDBRANCH  10  19
BRANCH   1  27
HETATM   27  O1  UNL     1      22.335  -1.317  53.930  1.00  0.00    -0.353 OA
HETATM   28  C1  UNL     1      21.021  -1.630  54.345  1.00  0.00     0.210 C 
ENDBRANCH   1  27
TORSDOF 10
ENDMDL
MODEL 4
REMARK VINA RESULT:      -7.0      2.041      4.745
REMARK  10 active torsions:
REMARK  status: ('A' for Active; 'I' for Inactive)
REMARK    1  A    between atoms: O1_2  and  C2_3 
REMARK    2  A    between atoms: C6_9  and  N3_10 
REMARK    3  A    between atoms: N3_10  and  C7_11 
REMARK    4  A    between atoms: C7_11  and  C8_12 
REMARK    5  A    between atoms: C9_13  and  C10_14 
REMARK    6  A    between atoms: C10_14  and  C11_15 
REMARK    7  A    between atoms: C14_19  and  O2_20 
REMARK    8  A    between atoms: O2_20  and  C15_21 
REMARK    9  A    between atoms: C15_21  and  C16_22 
REMARK   10  A    between atoms: C16_22  and  N4_23 
ROOT
HETATM    1  C2  UNL     1      23.525  -0.031  53.297  1.00  0.00     0.103 A 
HETATM    2  C3  UNL     1      24.823  -0.251  53.775  1.00  0.00     0.072 A 
HETATM    3  C4  UNL     1      25.865   0.559  53.323  1.00  0.00     0.075 A 
HETATM    4  N1  UNL     1      27.109   0.342  53.786  1.00  0.00    -0.241 NA
HETATM    5  C5  UNL     1      28.106   1.148  53.329  1.00  0.00     0.235 A 
HETATM    6  N2  UNL     1      27.890   2.153  52.431  1.00  0.00    -0.224 NA
HETATM    7  C6  UNL     1      26.661   2.399  51.945  1.00  0.00     0.137 A 
HETATM    8  C12 UNL     1      25.662   1.575  52.417  1.00  0.00     0.041 A 
HETATM    9  C13 UNL     1      24.381   1.739  51.992  1.00  0.00     0.057 A 
HETATM   10  C14 UNL     1      23.280   0.998  52.372  1.00  0.00     0.103 A 
ENDROOT
BRANCH   7  11
HETATM   11  N3  UNL     1      26.458   3.452  51.013  1.00  0.00    -0.371 N 
HETATM   12  H6  UNL     1      26.221   4.437  51.234  1.00  0.00     0.161 HD
BRANCH  11  13
HETATM   13  C7  UNL     1      26.583   3.170  49.597  1.00  0.00     0.148 C 
BRANCH  13  14
HETATM   14  C8  UNL     1      27.160   4.390  48.953  1.00  0.00    -0.011 C 
HETATM   15  C9  UNL     1      26.649   5.619  48.916  1.00  0.00    -0.027 C 
BRANCH  15  16
HETATM   16  C10 UNL     1      26.885   6.981  48.425  1.00  0.00     0.058 C 
BRANCH  16  17
HETATM   17  C11 UNL     1      28.324   7.332  48.223  1.00  0.00     0.225 C 
HETATM   18  F1  UNL     1      28.821   6.639  47.141  1.00  0.00    -0.255 F 
ENDBRANCH  16  17
ENDBRANCH  15  16
ENDBRANCH  13  14
ENDBRANCH  11  13
ENDBRANCH   7  11
BRANCH  10  19
HETATM   19  O2  UNL     1      21.986   1.063  52.026  1.00  0.00    -0.347 OA
BRANCH  19  20
HETATM   20  C15 UNL     1      21.195   1.950  51.348  1.00  0.00     0.206 C 
BRANCH  20  21
HETATM   21  C16 UNL     1      21.161   3.364  51.862  1.00  0.00     0.301 C 
BRANCH  21  22
HETATM   22  N4  UNL     1      21.307   4.359  50.803  1.00  0.00     0.115 N 
HETATM   23  C17 UNL     1      21.658   5.657  51.380  1.00  0.00     0.301 C 
HETATM   24  C18 UNL     1      23.149   5.575  51.442  1.00  0.00     0.200 C 
HETATM   25  O3  UNL     1      23.551   4.614  50.536  1.00  0.00    -0.361 OA
HETATM   26  C19 UNL     1      22.404   4.126  49.921  1.00  0.00     0.440 C 
ENDBRANCH  21  22
ENDBRANCH  20  21
ENDBRANCH  19  20
ENDBRANCH  10  19
BRANCH   1  27
HETATM   27  O1  UNL     1      22.524  -0.871  53.783  1.00  0.00    -0.353 OA
HETATM   28  C1  UNL     1      22.641  -1.302  55.123  1.00  0.00     0.210 C 
ENDBRANCH   1  27
TORSDOF 10
ENDMDL
MODEL 5
REMARK VINA RESULT:      -6.9      2.025      2.334
REMARK  10 active torsions:
REMARK  status: ('A' for Active; 'I' for Inactive)
REMARK    1  A    between atoms: O1_2  and  C2_3 
REMARK    2  A    between atoms: C6_9  and  N3_10 
REMARK    3  A    between atoms: N3_10  and  C7_11 
REMARK    4  A    between atoms: C7_11  and  C8_12 
REMARK    5  A    between atoms: C9_13  and  C10_14 
REMARK    6  A    between atoms: C10_14  and  C11_15 
REMARK    7  A    between atoms: C14_19  and  O2_20 
REMARK    8  A    between atoms: O2_20  and  C15_21 
REMARK    9  A    between atoms: C15_21  and  C16_22 
REMARK   10  A    between atoms: C16_22  and  N4_23 
ROOT
HETATM    1  C2  UNL     1      23.055   0.571  53.232  1.00  0.00     0.103 A 
HETATM    2  C3  UNL     1      21.853   1.149  52.805  1.00  0.00     0.072 A 
HETATM    3  C4  UNL     1      21.848   2.471  52.360  1.00  0.00     0.075 A 
HETATM    4  N1  UNL     1      20.691   3.020  51.952  1.00  0.00    -0.241 NA
HETATM    5  C5  UNL     1      20.716   4.311  51.523  1.00  0.00     0.235 A 
HETATM    6  N2  UNL     1      21.859   5.057  51.492  1.00  0.00    -0.224 NA
HETATM    7  C6  UNL     1      23.035   4.543  51.894  1.00  0.00     0.137 A 
HETATM    8  C12 UNL     1      22.993   3.235  52.326  1.00  0.00     0.041 A 
HETATM    9  C13 UNL     1      24.127   2.618  52.752  1.00  0.00     0.057 A 
HETATM   10  C14 UNL     1      24.243   1.320  53.209  1.00  0.00     0.103 A 
ENDROOT
BRANCH   7  11
HETATM   11  N3  UNL     1      24.213   5.336  51.851  1.00  0.00    -0.371 N 
HETATM   12  H6  UNL     1      25.064   5.210  52.431  1.00  0.00     0.161 HD
BRANCH  11  13
HETATM   13  C7  UNL     1      24.280   6.445  50.922  1.00  0.00     0.148 C 
BRANCH  13  14
HETATM   14  C8  UNL     1      25.141   6.011  49.778  1.00  0.00    -0.011 C 
HETATM   15  C9  UNL     1      26.069   5.056  49.764  1.00  0.00    -0.027 C 
BRANCH  15  16
HETATM   16  C10 UNL     1      27.053   4.378  48.913  1.00  0.00     0.058 C 
BRANCH  16  17
HETATM   17  C11 UNL     1      28.196   5.235  48.476  1.00  0.00     0.225 C 
HETATM   18  F1  UNL     1      27.725   6.275  47.703  1.00  0.00    -0.255 F 
ENDBRANCH  16  17
ENDBRANCH  15  16
ENDBRANCH  13  14
ENDBRANCH  11  13
ENDBRANCH   7  11
BRANCH  10  19
HETATM   19  O2  UNL     1      25.292   0.610  53.651  1.00  0.00    -0.347 OA
BRANCH  19  20
HETATM   20  C15 UNL     1      25.951   0.471  54.842  1.00  0.00     0.206 C 
BRANCH  20  21
HETATM   21  C16 UNL     1      27.417   0.138  54.774  1.00  0.00     0.301 C 
BRANCH  21  22
HETATM   22  N4  UNL     1      27.893  -0.064  53.409  1.00  0.00     0.115 N 
HETATM   23  C17 UNL     1      29.323   0.234  53.328  1.00  0.00     0.301 C 
HETATM   24  C18 UNL     1      29.934  -1.083  53.685  1.00  0.00     0.200 C 
HETATM   25  O3  UNL     1      28.985  -2.058  53.452  1.00  0.00    -0.361 OA
HETATM   26  C19 UNL     1      27.852  -1.418  52.964  1.00  0.00     0.440 C 
ENDBRANCH  21  22
ENDBRANCH  20  21
ENDBRANCH  19  20
ENDBRANCH  10  19
BRANCH   1  27
HETATM   27  O1  UNL     1      22.998  -0.752  53.666  1.00  0.00    -0.353 OA
HETATM   28  C1  UNL     1      21.729  -1.373  53.674  1.00  0.00     0.210 C 
ENDBRANCH   1  27
TORSDOF 10
ENDMDL
MODEL 6
REMARK VINA RESULT:      -6.8      3.079      6.689
REMARK  10 active torsions:
REMARK  status: ('A' for Active; 'I' for Inactive)
REMARK    1  A    between atoms: O1_2  and  C2_3 
REMARK    2  A    between atoms: C6_9  and  N3_10 
REMARK    3  A    between atoms: N3_10  and  C7_11 
REMARK    4  A    between atoms: C7_11  and  C8_12 
REMARK    5  A    between atoms: C9_13  and  C10_14 
REMARK    6  A    between atoms: C10_14  and  C11_15 
REMARK    7  A    between atoms: C14_19  and  O2_20 
REMARK    8  A    between atoms: O2_20  and  C15_21 
REMARK    9  A    between atoms: C15_21  and  C16_22 
REMARK   10  A    between atoms: C16_22  and  N4_23 
ROOT
HETATM    1  C2  UNL     1      27.142   1.475  52.847  1.00  0.00     0.103 A 
HETATM    2  C3  UNL     1      26.964   0.676  53.983  1.00  0.00     0.072 A 
HETATM    3  C4  UNL     1      25.725   0.076  54.211  1.00  0.00     0.075 A 
HETATM    4  N1  UNL     1      25.560  -0.690  55.304  1.00  0.00    -0.241 NA
HETATM    5  C5  UNL     1      24.342  -1.264  55.499  1.00  0.00     0.235 A 
HETATM    6  N2  UNL     1      23.298  -1.092  54.638  1.00  0.00    -0.224 NA
HETATM    7  C6  UNL     1      23.424  -0.333  53.535  1.00  0.00     0.137 A 
HETATM    8  C12 UNL     1      24.663   0.241  53.350  1.00  0.00     0.041 A 
HETATM    9  C13 UNL     1      24.899   1.026  52.266  1.00  0.00     0.057 A 
HETATM   10  C14 UNL     1      26.081   1.665  51.946  1.00  0.00     0.103 A 
ENDROOT
BRANCH   7  11
HETATM   11  N3  UNL     1      22.325  -0.170  52.649  1.00  0.00    -0.371 N 
HETATM   12  H6  UNL     1      22.338  -0.289  51.619  1.00  0.00     0.161 HD
BRANCH  11  13
HETATM   13  C7  UNL     1      21.034   0.201  53.194  1.00  0.00     0.148 C 
BRANCH  13  14
HETATM   14  C8  UNL     1      20.772   1.616  52.782  1.00  0.00    -0.011 C 
HETATM   15  C9  UNL     1      21.596   2.456  52.158  1.00  0.00    -0.027 C 
BRANCH  15  16
HETATM   16  C10 UNL     1      21.711   3.816  51.622  1.00  0.00     0.058 C 
BRANCH  16  17
HETATM   17  C11 UNL     1      22.505   4.757  52.469  1.00  0.00     0.225 C 
HETATM   18  F1  UNL     1      23.780   4.263  52.637  1.00  0.00    -0.255 F 
ENDBRANCH  16  17
ENDBRANCH  15  16
ENDBRANCH  13  14
ENDBRANCH  11  13
ENDBRANCH   7  11
BRANCH  10  19
HETATM   19  O2  UNL     1      26.430   2.455  50.920  1.00  0.00    -0.347 OA
BRANCH  19  20
HETATM   20  C15 UNL     1      25.784   3.338  50.098  1.00  0.00     0.206 C 
BRANCH  20  21
HETATM   21  C16 UNL     1      26.620   4.423  49.474  1.00  0.00     0.301 C 
BRANCH  21  22
HETATM   22  N4  UNL     1      25.820   5.440  48.796  1.00  0.00     0.115 N 
HETATM   23  C17 UNL     1      24.725   5.875  49.664  1.00  0.00     0.301 C 
HETATM   24  C18 UNL     1      25.369   6.973  50.447  1.00  0.00     0.200 C 
HETATM   25  O3  UNL     1      26.461   7.414  49.726  1.00  0.00    -0.361 OA
HETATM   26  C19 UNL     1      26.506   6.667  48.554  1.00  0.00     0.440 C 
ENDBRANCH  21  22
ENDBRANCH  20  21
ENDBRANCH  19  20
ENDBRANCH  10  19
BRANCH   1  27
HETATM   27  O1  UNL     1      28.400   2.049  52.672  1.00  0.00    -0.353 OA
HETATM   28  C1  UNL     1      29.104   2.423  53.838  1.00  0.00     0.210 C 
ENDBRANCH   1  27
TORSDOF 10
ENDMDL
MODEL 7
REMARK VINA RESULT:      -6.8      3.314      7.967
REMARK  10 active torsions:
REMARK  status: ('A' for Active; 'I' for Inactive)
REMARK    1  A    between atoms: O1_2  and  C2_3 
REMARK    2  A    between atoms: C6_9  and  N3_10 
REMARK    3  A    between atoms: N3_10  and  C7_11 
REMARK    4  A    between atoms: C7_11  and  C8_12 
REMARK    5  A    between atoms: C9_13  and  C10_14 
REMARK    6  A    between atoms: C10_14  and  C11_15 
REMARK    7  A    between atoms: C14_19  and  O2_20 
REMARK    8  A    between atoms: O2_20  and  C15_21 
REMARK    9  A    between atoms: C15_21  and  C16_22 
REMARK   10  A    between atoms: C16_22  and  N4_23 
ROOT
HETATM    1  C2  UNL     1      25.505   2.675  51.211  1.00  0.00     0.103 A 
HETATM    2  C3  UNL     1      26.830   2.514  51.634  1.00  0.00     0.072 A 
HETATM    3  C4  UNL     1      27.143   1.495  52.534  1.00  0.00     0.075 A 
HETATM    4  N1  UNL     1      28.417   1.346  52.936  1.00  0.00    -0.241 NA
HETATM    5  C5  UNL     1      28.693   0.343  53.814  1.00  0.00     0.235 A 
HETATM    6  N2  UNL     1      27.735  -0.503  54.293  1.00  0.00    -0.224 NA
HETATM    7  C6  UNL     1      26.450  -0.384  53.915  1.00  0.00     0.137 A 
HETATM    8  C12 UNL     1      26.186   0.635  53.026  1.00  0.00     0.041 A 
HETATM    9  C13 UNL     1      24.920   0.843  52.578  1.00  0.00     0.057 A 
HETATM   10  C14 UNL     1      24.503   1.816  51.692  1.00  0.00     0.103 A 
ENDROOT
BRANCH   7  11
HETATM   11  N3  UNL     1      25.470  -1.277  54.424  1.00  0.00    -0.371 N 
HETATM   12  H6  UNL     1      25.108  -2.131  53.958  1.00  0.00     0.161 HD
BRANCH  11  13
HETATM   13  C7  UNL     1      24.883  -1.010  55.722  1.00  0.00     0.148 C 
BRANCH  13  14
HETATM   14  C8  UNL     1      23.428  -1.345  55.626  1.00  0.00    -0.011 C 
HETATM   15  C9  UNL     1      22.591  -1.091  54.622  1.00  0.00    -0.027 C 
BRANCH  15  16
HETATM   16  C10 UNL     1      21.202  -1.244  54.175  1.00  0.00     0.058 C 
BRANCH  16  17
HETATM   17  C11 UNL     1      20.601  -0.015  53.573  1.00  0.00     0.225 C 
HETATM   18  F1  UNL     1      21.511   1.018  53.626  1.00  0.00    -0.255 F 
ENDBRANCH  16  17
ENDBRANCH  15  16
ENDBRANCH  13  14
ENDBRANCH  11  13
ENDBRANCH   7  11
BRANCH  10  19
HETATM   19  O2  UNL     1      23.299   2.116  51.183  1.00  0.00    -0.347 OA
BRANCH  19  20
HETATM   20  C15 UNL     1      22.402   1.499  50.354  1.00  0.00     0.206 C 
BRANCH  20  21
HETATM   21  C16 UNL     1      21.043   2.131  50.228  1.00  0.00     0.301 C 
BRANCH  21  22
HETATM   22  N4  UNL     1      20.804   3.171  51.225  1.00  0.00     0.115 N 
HETATM   23  C17 UNL     1      20.779   4.485  50.582  1.00  0.00     0.301 C 
HETATM   24  C18 UNL     1      19.343   4.606  50.183  1.00  0.00     0.200 C 
HETATM   25  O3  UNL     1      18.616   3.740  50.974  1.00  0.00    -0.361 OA
HETATM   26  C19 UNL     1      19.515   3.120  51.835  1.00  0.00     0.440 C 
ENDBRANCH  21  22
ENDBRANCH  20  21
ENDBRANCH  19  20
ENDBRANCH  10  19
BRANCH   1  27
HETATM   27  O1  UNL     1      25.252   3.709  50.311  1.00  0.00    -0.353 OA
HETATM   28  C1  UNL     1      26.328   4.131  49.498  1.00  0.00     0.210 C 
ENDBRANCH   1  27
TORSDOF 10
ENDMDL
MODEL 8
REMARK VINA RESULT:      -6.8      3.553      7.890
REMARK  10 active torsions:
REMARK  status: ('A' for Active; 'I' for Inactive)
REMARK    1  A    between atoms: O1_2  and  C2_3 
REMARK    2  A    between atoms: C6_9  and  N3_10 
REMARK    3  A    between atoms: N3_10  and  C7_11 
REMARK    4  A    between atoms: C7_11  and  C8_12 
REMARK    5  A    between atoms: C9_13  and  C10_14 
REMARK    6  A    between atoms: C10_14  and  C11_15 
REMARK    7  A    between atoms: C14_19  and  O2_20 
REMARK    8  A    between atoms: O2_20  and  C15_21 
REMARK    9  A    between atoms: C15_21  and  C16_22 
REMARK   10  A    between atoms: C16_22  and  N4_23 
ROOT
HETATM    1  C2  UNL     1      25.071   2.558  51.080  1.00  0.00     0.103 A 
HETATM    2  C3  UNL     1      26.418   2.538  51.461  1.00  0.00     0.072 A 
HETATM    3  C4  UNL     1      26.855   1.591  52.388  1.00  0.00     0.075 A 
HETATM    4  N1  UNL     1      28.150   1.579  52.749  1.00  0.00    -0.241 NA
HETATM    5  C5  UNL     1      28.548   0.643  53.653  1.00  0.00     0.235 A 
HETATM    6  N2  UNL     1      27.691  -0.270  54.198  1.00  0.00    -0.224 NA
HETATM    7  C6  UNL     1      26.390  -0.287  53.861  1.00  0.00     0.137 A 
HETATM    8  C12 UNL     1      26.002   0.666  52.945  1.00  0.00     0.041 A 
HETATM    9  C13 UNL     1      24.707   0.735  52.535  1.00  0.00     0.057 A 
HETATM   10  C14 UNL     1      24.172   1.628  51.628  1.00  0.00     0.103 A 
ENDROOT
BRANCH   7  11
HETATM   11  N3  UNL     1      25.515  -1.247  54.438  1.00  0.00    -0.371 N 
HETATM   12  H6  UNL     1      25.264  -2.173  54.043  1.00  0.00     0.161 HD
BRANCH  11  13
HETATM   13  C7  UNL     1      24.883  -0.948  55.708  1.00  0.00     0.148 C 
BRANCH  13  14
HETATM   14  C8  UNL     1      23.473  -1.441  55.626  1.00  0.00    -0.011 C 
HETATM   15  C9  UNL     1      22.515  -1.053  54.786  1.00  0.00    -0.027 C 
BRANCH  15  16
HETATM   16  C10 UNL     1      21.114  -1.273  54.412  1.00  0.00     0.058 C 
BRANCH  16  17
HETATM   17  C11 UNL     1      20.502  -0.172  53.607  1.00  0.00     0.225 C 
HETATM   18  F1  UNL     1      21.273   0.965  53.719  1.00  0.00    -0.255 F 
ENDBRANCH  16  17
ENDBRANCH  15  16
ENDBRANCH  13  14
ENDBRANCH  11  13
ENDBRANCH   7  11
BRANCH  10  19
HETATM   19  O2  UNL     1      22.929   1.792  51.152  1.00  0.00    -0.347 OA
BRANCH  19  20
HETATM   20  C15 UNL     1      22.052   1.043  50.416  1.00  0.00     0.206 C 
BRANCH  20  21
HETATM   21  C16 UNL     1      20.926   1.778  49.741  1.00  0.00     0.301 C 
BRANCH  21  22
HETATM   22  N4  UNL     1      21.024   1.757  48.284  1.00  0.00     0.115 N 
HETATM   23  C17 UNL     1      20.207   2.827  47.712  1.00  0.00     0.301 C 
HETATM   24  C18 UNL     1      21.162   3.977  47.712  1.00  0.00     0.200 C 
HETATM   25  O3  UNL     1      22.440   3.458  47.762  1.00  0.00    -0.361 OA
HETATM   26  C19 UNL     1      22.318   2.073  47.775  1.00  0.00     0.440 C 
ENDBRANCH  21  22
ENDBRANCH  20  21
ENDBRANCH  19  20
ENDBRANCH  10  19
BRANCH   1  27
HETATM   27  O1  UNL     1      24.692   3.526  50.152  1.00  0.00    -0.353 OA
HETATM   28  C1  UNL     1      24.933   4.875  50.497  1.00  0.00     0.210 C 
ENDBRANCH   1  27
TORSDOF 10
ENDMDL
MODEL 9
REMARK VINA RESULT:      -6.7      2.771      4.621
REMARK  10 active torsions:
REMARK  status: ('A' for Active; 'I' for Inactive)
REMARK    1  A    between atoms: O1_2  and  C2_3 
REMARK    2  A    between atoms: C6_9  and  N3_10 
REMARK    3  A    between atoms: N3_10  and  C7_11 
REMARK    4  A    between atoms: C7_11  and  C8_12 
REMARK    5  A    between atoms: C9_13  and  C10_14 
REMARK    6  A    between atoms: C10_14  and  C11_15 
REMARK    7  A    between atoms: C14_19  and  O2_20 
REMARK    8  A    between atoms: O2_20  and  C15_21 
REMARK    9  A    between atoms: C15_21  and  C16_22 
REMARK   10  A    between atoms: C16_22  and  N4_23 
ROOT
HETATM    1  C2  UNL     1      24.581   3.863  49.422  1.00  0.00     0.103 A 
HETATM    2  C3  UNL     1      24.054   5.031  48.857  1.00  0.00     0.072 A 
HETATM    3  C4  UNL     1      24.907   6.096  48.565  1.00  0.00     0.075 A 
HETATM    4  N1  UNL     1      24.395   7.214  48.023  1.00  0.00    -0.241 NA
HETATM    5  C5  UNL     1      25.250   8.236  47.748  1.00  0.00     0.235 A 
HETATM    6  N2  UNL     1      26.590   8.166  48.000  1.00  0.00    -0.224 NA
HETATM    7  C6  UNL     1      27.138   7.065  48.543  1.00  0.00     0.137 A 
HETATM    8  C12 UNL     1      26.260   6.039  48.815  1.00  0.00     0.041 A 
HETATM    9  C13 UNL     1      26.710   4.879  49.364  1.00  0.00     0.057 A 
HETATM   10  C14 UNL     1      25.956   3.769  49.690  1.00  0.00     0.103 A 
ENDROOT
BRANCH   7  11
HETATM   11  N3  UNL     1      28.535   7.012  48.795  1.00  0.00    -0.371 N 
HETATM   12  H6  UNL     1      29.002   7.102  49.717  1.00  0.00     0.161 HD
BRANCH  11  13
HETATM   13  C7  UNL     1      29.443   6.815  47.682  1.00  0.00     0.148 C 
BRANCH  13  14
HETATM   14  C8  UNL     1      30.123   5.500  47.894  1.00  0.00    -0.011 C 
HETATM   15  C9  UNL     1      31.389   5.179  47.636  1.00  0.00    -0.027 C 
BRANCH  15  16
HETATM   16  C10 UNL     1      32.366   4.086  47.696  1.00  0.00     0.058 C 
BRANCH  16  17
HETATM   17  C11 UNL     1      32.322   3.144  46.536  1.00  0.00     0.225 C 
HETATM   18  F1  UNL     1      31.051   2.623  46.412  1.00  0.00    -0.255 F 
ENDBRANCH  16  17
ENDBRANCH  15  16
ENDBRANCH  13  14
ENDBRANCH  11  13
ENDBRANCH   7  11
BRANCH  10  19
HETATM   19  O2  UNL     1      26.283   2.585  50.229  1.00  0.00    -0.347 OA
BRANCH  19  20
HETATM   20  C15 UNL     1      26.731   2.151  51.446  1.00  0.00     0.206 C 
BRANCH  20  21
HETATM   21  C16 UNL     1      26.143   0.869  51.972  1.00  0.00     0.301 C 
BRANCH  21  22
HETATM   22  N4  UNL     1      27.129   0.018  52.632  1.00  0.00     0.115 N 
HETATM   23  C17 UNL     1      27.557   0.630  53.890  1.00  0.00     0.301 C 
HETATM   24  C18 UNL     1      26.536   0.109  54.850  1.00  0.00     0.200 C 
HETATM   25  O3  UNL     1      25.987  -1.030  54.296  1.00  0.00    -0.361 OA
HETATM   26  C19 UNL     1      26.621  -1.238  53.076  1.00  0.00     0.440 C 
ENDBRANCH  21  22
ENDBRANCH  20  21
ENDBRANCH  19  20
ENDBRANCH  10  19
BRANCH   1  27
HETATM   27  O1  UNL     1      23.681   2.833  49.692  1.00  0.00    -0.353 OA
HETATM   28  C1  UNL     1      22.897   2.955  50.861  1.00  0.00     0.210 C 
ENDBRANCH   1  27
TORSDOF 10
ENDMDL
