MODEL 1
REMARK VINA RESULT:      -6.8      0.000      0.000
REMARK  8 active torsions:
REMARK  status: ('A' for Active; 'I' for Inactive)
REMARK    1  A    between atoms: P1_2  and  N1_3 
REMARK    2  A    between atoms: N1_3  and  C2_4 
REMARK    3  A    between atoms: C7_9  and  C8_10 
REMARK    4  A    between atoms: C9_11  and  C10_12 
REMARK    5  A    between atoms: C10_12  and  P2_13 
REMARK    6  A    between atoms: P2_13  and  C11_14 
REMARK    7  A    between atoms: C14_17  and  C15_18 
REMARK    8  A    between atoms: C15_18  and  O1_20 
ROOT
HETATM    1  C8  UNL     1      23.187   1.490  53.119  1.00  0.00     0.010 C 
HETATM    2  C9  UNL     1      23.827   1.851  52.029  1.00  0.00    -0.021 C 
ENDROOT
BRANCH   2   3
HETATM    3  C10 UNL     1      24.793   2.937  51.742  1.00  0.00     0.063 C 
BRANCH   3   4
HETATM    4  P2  UNL     1      26.476   2.328  51.286  1.00  0.00    -0.091 P 
HETATM    5  H12 UNL     1      26.612   2.119  49.856  1.00  0.00     0.062 HD
BRANCH   4   6
HETATM    6  C11 UNL     1      26.792   0.723  52.145  1.00  0.00    -0.025 A 
HETATM    7  C12 UNL     1      26.169  -0.468  52.160  1.00  0.00     0.013 A 
HETATM    8  C13 UNL     1      27.141  -1.031  53.090  1.00  0.00     0.011 A 
HETATM    9  C14 UNL     1      27.752   0.142  53.073  1.00  0.00    -0.019 A 
BRANCH   9  10
HETATM   10  C15 UNL     1      28.955   0.660  53.745  1.00  0.00     0.148 C 
HETATM   11  C16 UNL     1      30.122  -0.288  53.647  1.00  0.00     0.044 C 
BRANCH  10  12
HETATM   12  O1  UNL     1      28.644   0.851  55.085  1.00  0.00    -0.391 OA
HETATM   13  H19 UNL     1      29.421   0.680  55.651  1.00  0.00     0.210 HD
ENDBRANCH  10  12
ENDBRANCH   9  10
ENDBRANCH   4   6
ENDBRANCH   3   4
ENDBRANCH   2   3
BRANCH   1  14
HETATM   14  C7  UNL     1      22.239   0.452  53.466  1.00  0.00    -0.010 A 
HETATM   15  C2  UNL     1      20.898   0.629  53.211  1.00  0.00     0.042 A 
HETATM   16  C3  UNL     1      20.008  -0.373  53.528  1.00  0.00     0.030 A 
HETATM   17  C4  UNL     1      20.516  -1.515  54.092  1.00  0.00     0.002 A 
HETATM   18  C5  UNL     1      21.857  -1.697  54.350  1.00  0.00     0.001 A 
HETATM   19  C6  UNL     1      22.734  -0.689  54.027  1.00  0.00     0.013 A 
BRANCH  15  20
HETATM   20  N1  UNL     1      20.348   1.796  52.634  1.00  0.00    -0.356 N 
HETATM   21  H3  UNL     1      20.220   2.771  52.984  1.00  0.00     0.165 HD
BRANCH  20  22
HETATM   22  P1  UNL     1      19.860   1.222  51.003  1.00  0.00     0.049 P 
HETATM   23  C1  UNL     1      20.962   0.988  49.778  1.00  0.00     0.049 C 
ENDBRANCH  20  22
ENDBRANCH  15  20
ENDBRANCH   1  14
TORSDOF 8
ENDMDL
MODEL 2
REMARK VINA RESULT:      -6.7      3.884      6.016
REMARK  8 active torsions:
REMARK  status: ('A' for Active; 'I' for Inactive)
REMARK    1  A    between atoms: P1_2  and  N1_3 
REMARK    2  A    between atoms: N1_3  and  C2_4 
REMARK    3  A    between atoms: C7_9  and  C8_10 
REMARK    4  A    between atoms: C9_11  and  C10_12 
REMARK    5  A    between atoms: C10_12  and  P2_13 
REMARK    6  A    between atoms: P2_13  and  C11_14 
REMARK    7  A    between atoms: C14_17  and  C15_18 
REMARK    8  A    between atoms: C15_18  and  O1_20 
ROOT
HETATM    1  C8  UNL     1      24.354   3.312  52.601  1.00  0.00     0.010 C 
HETATM    2  C9  UNL     1      23.368   4.002  52.072  1.00  0.00    -0.021 C 
ENDROOT
BRANCH   2   3
HETATM    3  C10 UNL     1      23.259   5.403  51.600  1.00  0.00     0.063 C 
BRANCH   3   4
HETATM    4  P2  UNL     1      23.579   5.601  49.792  1.00  0.00    -0.091 P 
HETATM    5  H12 UNL     1      22.640   4.843  48.986  1.00  0.00     0.062 HD
BRANCH   4   6
HETATM    6  C11 UNL     1      25.288   5.011  49.412  1.00  0.00    -0.025 A 
HETATM    7  C12 UNL     1      25.890   3.810  49.440  1.00  0.00     0.013 A 
HETATM    8  C13 UNL     1      27.161   4.371  48.996  1.00  0.00     0.011 A 
HETATM    9  C14 UNL     1      26.566   5.551  48.968  1.00  0.00    -0.019 A 
BRANCH   9  10
HETATM   10  C15 UNL     1      27.028   6.905  48.618  1.00  0.00     0.148 C 
HETATM   11  C16 UNL     1      28.316   6.888  47.836  1.00  0.00     0.044 C 
BRANCH  10  12
HETATM   12  O1  UNL     1      27.231   7.603  49.801  1.00  0.00    -0.391 OA
HETATM   13  H19 UNL     1      27.741   7.068  50.439  1.00  0.00     0.210 HD
ENDBRANCH  10  12
ENDBRANCH   9  10
ENDBRANCH   4   6
ENDBRANCH   3   4
ENDBRANCH   2   3
BRANCH   1  14
HETATM   14  C7  UNL     1      24.526   1.956  53.080  1.00  0.00    -0.010 A 
HETATM   15  C2  UNL     1      25.665   1.607  53.769  1.00  0.00     0.042 A 
HETATM   16  C3  UNL     1      25.809   0.320  54.236  1.00  0.00     0.030 A 
HETATM   17  C4  UNL     1      24.791  -0.563  53.983  1.00  0.00     0.002 A 
HETATM   18  C5  UNL     1      23.649  -0.219  53.293  1.00  0.00     0.001 A 
HETATM   19  C6  UNL     1      23.518   1.070  52.833  1.00  0.00     0.013 A 
BRANCH  15  20
HETATM   20  N1  UNL     1      26.730   2.496  54.041  1.00  0.00    -0.356 N 
HETATM   21  H3  UNL     1      26.785   3.408  54.545  1.00  0.00     0.165 HD
BRANCH  20  22
HETATM   22  P1  UNL     1      28.126   1.667  53.272  1.00  0.00     0.049 P 
HETATM   23  C1  UNL     1      29.371   1.016  54.164  1.00  0.00     0.049 C 
ENDBRANCH  20  22
ENDBRANCH  15  20
ENDBRANCH   1  14
TORSDOF 8
ENDMDL
MODEL 3
REMARK VINA RESULT:      -6.6      2.987      4.462
REMARK  8 active torsions:
REMARK  status: ('A' for Active; 'I' for Inactive)
REMARK    1  A    between atoms: P1_2  and  N1_3 
REMARK    2  A    between atoms: N1_3  and  C2_4 
REMARK    3  A    between atoms: C7_9  and  C8_10 
REMARK    4  A    between atoms: C9_11  and  C10_12 
REMARK    5  A    between atoms: C10_12  and  P2_13 
REMARK    6  A    between atoms: P2_13  and  C11_14 
REMARK    7  A    between atoms: C14_17  and  C15_18 
REMARK    8  A    between atoms: C15_18  and  O1_20 
ROOT
HETATM    1  C8  UNL     1      24.635   1.293  52.087  1.00  0.00     0.010 C 
HETATM    2  C9  UNL     1      24.479   0.317  52.954  1.00  0.00    -0.021 C 
ENDROOT
BRANCH   2   3
HETATM    3  C10 UNL     1      25.429  -0.426  53.816  1.00  0.00     0.063 C 
BRANCH   3   4
HETATM    4  P2  UNL     1      26.635  -1.457  52.872  1.00  0.00    -0.091 P 
HETATM    5  H12 UNL     1      26.509  -2.868  53.185  1.00  0.00     0.062 HD
BRANCH   4   6
HETATM    6  C11 UNL     1      28.351  -0.916  53.290  1.00  0.00    -0.025 A 
HETATM    7  C12 UNL     1      29.557  -1.508  53.244  1.00  0.00     0.013 A 
HETATM    8  C13 UNL     1      30.228  -0.318  53.751  1.00  0.00     0.011 A 
HETATM    9  C14 UNL     1      29.041   0.264  53.795  1.00  0.00    -0.019 A 
BRANCH   9  10
HETATM   10  C15 UNL     1      28.590   1.605  54.205  1.00  0.00     0.148 C 
HETATM   11  C16 UNL     1      28.027   2.398  53.055  1.00  0.00     0.044 C 
BRANCH  10  12
HETATM   12  O1  UNL     1      29.687   2.282  54.722  1.00  0.00    -0.391 OA
HETATM   13  H19 UNL     1      29.688   2.251  55.697  1.00  0.00     0.210 HD
ENDBRANCH  10  12
ENDBRANCH   9  10
ENDBRANCH   4   6
ENDBRANCH   3   4
ENDBRANCH   2   3
BRANCH   1  14
HETATM   14  C7  UNL     1      23.762   2.055  51.219  1.00  0.00    -0.010 A 
HETATM   15  C2  UNL     1      24.153   3.291  50.759  1.00  0.00     0.042 A 
HETATM   16  C3  UNL     1      23.322   3.998  49.919  1.00  0.00     0.030 A 
HETATM   17  C4  UNL     1      22.125   3.421  49.581  1.00  0.00     0.002 A 
HETATM   18  C5  UNL     1      21.728   2.184  50.040  1.00  0.00     0.001 A 
HETATM   19  C6  UNL     1      22.568   1.489  50.877  1.00  0.00     0.013 A 
BRANCH  15  20
HETATM   20  N1  UNL     1      25.379   3.909  51.094  1.00  0.00    -0.356 N 
HETATM   21  H3  UNL     1      25.709   4.427  51.938  1.00  0.00     0.165 HD
BRANCH  20  22
HETATM   22  P1  UNL     1      26.375   3.600  49.631  1.00  0.00     0.049 P 
HETATM   23  C1  UNL     1      27.226   4.808  48.866  1.00  0.00     0.049 C 
ENDBRANCH  20  22
ENDBRANCH  15  20
ENDBRANCH   1  14
TORSDOF 8
ENDMDL
MODEL 4
REMARK VINA RESULT:      -6.5      3.595      6.735
REMARK  8 active torsions:
REMARK  status: ('A' for Active; 'I' for Inactive)
REMARK    1  A    between atoms: P1_2  and  N1_3 
REMARK    2  A    between atoms: N1_3  and  C2_4 
REMARK    3  A    between atoms: C7_9  and  C8_10 
REMARK    4  A    between atoms: C9_11  and  C10_12 
REMARK    5  A    between atoms: C10_12  and  P2_13 
REMARK    6  A    between atoms: P2_13  and  C11_14 
REMARK    7  A    between atoms: C14_17  and  C15_18 
REMARK    8  A    between atoms: C15_18  and  O1_20 
ROOT
HETATM    1  C8  UNL     1      26.358   3.032  50.108  1.00  0.00     0.010 C 
HETATM    2  C9  UNL     1      26.668   2.398  51.217  1.00  0.00    -0.021 C 
ENDROOT
BRANCH   2   3
HETATM    3  C10 UNL     1      26.502   0.991  51.653  1.00  0.00     0.063 C 
BRANCH   3   4
HETATM    4  P2  UNL     1      25.900   0.822  53.391  1.00  0.00    -0.091 P 
HETATM    5  H12 UNL     1      26.628  -0.197  54.124  1.00  0.00     0.062 HD
BRANCH   4   6
HETATM    6  C11 UNL     1      24.111   0.360  53.368  1.00  0.00    -0.025 A 
HETATM    7  C12 UNL     1      23.401  -0.656  53.887  1.00  0.00     0.013 A 
HETATM    8  C13 UNL     1      22.152  -0.141  53.339  1.00  0.00     0.011 A 
HETATM    9  C14 UNL     1      22.852   0.859  52.830  1.00  0.00    -0.019 A 
BRANCH   9  10
HETATM   10  C15 UNL     1      22.490   2.035  52.022  1.00  0.00     0.148 C 
HETATM   11  C16 UNL     1      22.913   1.894  50.582  1.00  0.00     0.044 C 
BRANCH  10  12
HETATM   12  O1  UNL     1      23.127   3.140  52.570  1.00  0.00    -0.391 OA
HETATM   13  H19 UNL     1      23.098   3.899  51.957  1.00  0.00     0.210 HD
ENDBRANCH  10  12
ENDBRANCH   9  10
ENDBRANCH   4   6
ENDBRANCH   3   4
ENDBRANCH   2   3
BRANCH   1  14
HETATM   14  C7  UNL     1      26.490   4.390  49.622  1.00  0.00    -0.010 A 
HETATM   15  C2  UNL     1      25.626   5.367  50.061  1.00  0.00     0.042 A 
HETATM   16  C3  UNL     1      25.772   6.658  49.607  1.00  0.00     0.030 A 
HETATM   17  C4  UNL     1      26.790   6.906  48.722  1.00  0.00     0.002 A 
HETATM   18  C5  UNL     1      27.658   5.931  48.278  1.00  0.00     0.001 A 
HETATM   19  C6  UNL     1      27.500   4.647  48.742  1.00  0.00     0.013 A 
BRANCH  15  20
HETATM   20  N1  UNL     1      24.567   5.139  50.970  1.00  0.00    -0.356 N 
HETATM   21  H3  UNL     1      24.509   4.638  51.884  1.00  0.00     0.165 HD
BRANCH  20  22
HETATM   22  P1  UNL     1      23.189   5.965  50.167  1.00  0.00     0.049 P 
HETATM   23  C1  UNL     1      21.621   5.789  50.694  1.00  0.00     0.049 C 
ENDBRANCH  20  22
ENDBRANCH  15  20
ENDBRANCH   1  14
TORSDOF 8
ENDMDL
MODEL 5
REMARK VINA RESULT:      -6.5      3.815      5.626
REMARK  8 active torsions:
REMARK  status: ('A' for Active; 'I' for Inactive)
REMARK    1  A    between atoms: P1_2  and  N1_3 
REMARK    2  A    between atoms: N1_3  and  C2_4 
REMARK    3  A    between atoms: C7_9  and  C8_10 
REMARK    4  A    between atoms: C9_11  and  C10_12 
REMARK    5  A    between atoms: C10_12  and  P2_13 
REMARK    6  A    between atoms: P2_13  and  C11_14 
REMARK    7  A    between atoms: C14_17  and  C15_18 
REMARK    8  A    between atoms: C15_18  and  O1_20 
ROOT
HETATM    1  C8  UNL     1      23.372   1.317  51.705  1.00  0.00     0.010 C 
HETATM    2  C9  UNL     1      22.989   2.524  51.352  1.00  0.00    -0.021 C 
ENDROOT
BRANCH   2   3
HETATM    3  C10 UNL     1      23.252   3.354  50.153  1.00  0.00     0.063 C 
BRANCH   3   4
HETATM    4  P2  UNL     1      24.206   4.895  50.514  1.00  0.00    -0.091 P 
HETATM    5  H12 UNL     1      23.504   6.086  50.074  1.00  0.00     0.062 HD
BRANCH   4   6
HETATM    6  C11 UNL     1      25.832   4.817  49.641  1.00  0.00    -0.025 A 
HETATM    7  C12 UNL     1      26.693   3.825  49.353  1.00  0.00     0.013 A 
HETATM    8  C13 UNL     1      27.613   4.737  48.685  1.00  0.00     0.011 A 
HETATM    9  C14 UNL     1      26.765   5.711  48.969  1.00  0.00    -0.019 A 
BRANCH   9  10
HETATM   10  C15 UNL     1      26.768   7.160  48.702  1.00  0.00     0.148 C 
HETATM   11  C16 UNL     1      27.579   7.518  47.484  1.00  0.00     0.044 C 
BRANCH  10  12
HETATM   12  O1  UNL     1      27.316   7.794  49.809  1.00  0.00    -0.391 OA
HETATM   13  H19 UNL     1      26.915   8.673  49.942  1.00  0.00     0.210 HD
ENDBRANCH  10  12
ENDBRANCH   9  10
ENDBRANCH   4   6
ENDBRANCH   3   4
ENDBRANCH   2   3
BRANCH   1  14
HETATM   14  C7  UNL     1      23.156   0.457  52.849  1.00  0.00    -0.010 A 
HETATM   15  C2  UNL     1      24.226  -0.138  53.477  1.00  0.00     0.042 A 
HETATM   16  C3  UNL     1      24.010  -0.940  54.576  1.00  0.00     0.030 A 
HETATM   17  C4  UNL     1      22.714  -1.106  54.992  1.00  0.00     0.002 A 
HETATM   18  C5  UNL     1      21.639  -0.513  54.367  1.00  0.00     0.001 A 
HETATM   19  C6  UNL     1      21.870   0.285  53.272  1.00  0.00     0.013 A 
BRANCH  15  20
HETATM   20  N1  UNL     1      25.570   0.014  53.067  1.00  0.00    -0.356 N 
HETATM   21  H3  UNL     1      26.033   0.022  52.132  1.00  0.00     0.165 HD
BRANCH  20  22
HETATM   22  P1  UNL     1      26.427   0.214  54.633  1.00  0.00     0.049 P 
HETATM   23  C1  UNL     1      28.086   0.160  54.749  1.00  0.00     0.049 C 
ENDBRANCH  20  22
ENDBRANCH  15  20
ENDBRANCH   1  14
TORSDOF 8
ENDMDL
MODEL 6
REMARK VINA RESULT:      -6.5      1.599      2.346
REMARK  8 active torsions:
REMARK  status: ('A' for Active; 'I' for Inactive)
REMARK    1  A    between atoms: P1_2  and  N1_3 
REMARK    2  A    between atoms: N1_3  and  C2_4 
REMARK    3  A    between atoms: C7_9  and  C8_10 
REMARK    4  A    between atoms: C9_11  and  C10_12 
REMARK    5  A    between atoms: C10_12  and  P2_13 
REMARK    6  A    between atoms: P2_13  and  C11_14 
REMARK    7  A    between atoms: C14_17  and  C15_18 
REMARK    8  A    between atoms: C15_18  and  O1_20 
ROOT
HETATM    1  C8  UNL     1      24.140   1.171  52.516  1.00  0.00     0.010 C 
HETATM    2  C9  UNL     1      25.278   1.635  52.982  1.00  0.00    -0.021 C 
ENDROOT
BRANCH   2   3
HETATM    3  C10 UNL     1      26.533   2.071  52.325  1.00  0.00     0.063 C 
BRANCH   3   4
HETATM    4  P2  UNL     1      27.985   2.123  53.466  1.00  0.00    -0.091 P 
HETATM    5  H12 UNL     1      28.953   3.130  53.072  1.00  0.00     0.062 HD
BRANCH   4   6
HETATM    6  C11 UNL     1      28.819   0.475  53.460  1.00  0.00    -0.025 A 
HETATM    7  C12 UNL     1      30.099   0.073  53.547  1.00  0.00     0.013 A 
HETATM    8  C13 UNL     1      29.726  -1.333  53.451  1.00  0.00     0.011 A 
HETATM    9  C14 UNL     1      28.468  -0.936  53.367  1.00  0.00    -0.019 A 
BRANCH   9  10
HETATM   10  C15 UNL     1      27.191  -1.656  53.229  1.00  0.00     0.148 C 
HETATM   11  C16 UNL     1      26.570  -1.469  51.869  1.00  0.00     0.044 C 
BRANCH  10  12
HETATM   12  O1  UNL     1      26.319  -1.164  54.191  1.00  0.00    -0.391 OA
HETATM   13  H19 UNL     1      26.786  -0.996  55.032  1.00  0.00     0.210 HD
ENDBRANCH  10  12
ENDBRANCH   9  10
ENDBRANCH   4   6
ENDBRANCH   3   4
ENDBRANCH   2   3
BRANCH   1  14
HETATM   14  C7  UNL     1      22.888   0.730  53.095  1.00  0.00    -0.010 A 
HETATM   15  C2  UNL     1      21.727   1.423  52.837  1.00  0.00     0.042 A 
HETATM   16  C3  UNL     1      20.540   0.983  53.378  1.00  0.00     0.030 A 
HETATM   17  C4  UNL     1      20.579  -0.142  54.161  1.00  0.00     0.002 A 
HETATM   18  C5  UNL     1      21.739  -0.838  54.423  1.00  0.00     0.001 A 
HETATM   19  C6  UNL     1      22.917  -0.389  53.875  1.00  0.00     0.013 A 
BRANCH  15  20
HETATM   20  N1  UNL     1      21.659   2.586  52.037  1.00  0.00    -0.356 N 
HETATM   21  H3  UNL     1      22.369   3.295  51.750  1.00  0.00     0.165 HD
BRANCH  20  22
HETATM   22  P1  UNL     1      19.930   2.615  51.551  1.00  0.00     0.049 P 
HETATM   23  C1  UNL     1      19.167   4.014  51.071  1.00  0.00     0.049 C 
ENDBRANCH  20  22
ENDBRANCH  15  20
ENDBRANCH   1  14
TORSDOF 8
ENDMDL
MODEL 7
REMARK VINA RESULT:      -6.5      3.503      6.691
REMARK  8 active torsions:
REMARK  status: ('A' for Active; 'I' for Inactive)
REMARK    1  A    between atoms: P1_2  and  N1_3 
REMARK    2  A    between atoms: N1_3  and  C2_4 
REMARK    3  A    between atoms: C7_9  and  C8_10 
REMARK    4  A    between atoms: C9_11  and  C10_12 
REMARK    5  A    between atoms: C10_12  and  P2_13 
REMARK    6  A    between atoms: P2_13  and  C11_14 
REMARK    7  A    between atoms: C14_17  and  C15_18 
REMARK    8  A    between atoms: C15_18  and  O1_20 
ROOT
HETATM    1  C8  UNL     1      26.183   2.709  50.399  1.00  0.00     0.010 C 
HETATM    2  C9  UNL     1      26.630   2.073  51.458  1.00  0.00    -0.021 C 
ENDROOT
BRANCH   2   3
HETATM    3  C10 UNL     1      26.493   0.673  51.926  1.00  0.00     0.063 C 
BRANCH   3   4
HETATM    4  P2  UNL     1      25.404   0.491  53.407  1.00  0.00    -0.091 P 
HETATM    5  H12 UNL     1      25.562  -0.804  54.044  1.00  0.00     0.062 HD
BRANCH   4   6
HETATM    6  C11 UNL     1      23.641   0.677  52.887  1.00  0.00    -0.025 A 
HETATM    7  C12 UNL     1      23.033   1.224  51.820  1.00  0.00     0.013 A 
HETATM    8  C13 UNL     1      21.709   0.880  52.324  1.00  0.00     0.011 A 
HETATM    9  C14 UNL     1      22.309   0.342  53.373  1.00  0.00    -0.019 A 
BRANCH   9  10
HETATM   10  C15 UNL     1      21.811  -0.340  54.579  1.00  0.00     0.148 C 
HETATM   11  C16 UNL     1      21.570  -1.809  54.350  1.00  0.00     0.044 C 
BRANCH  10  12
HETATM   12  O1  UNL     1      20.612   0.260  54.941  1.00  0.00    -0.391 OA
HETATM   13  H19 UNL     1      20.629   1.217  54.750  1.00  0.00     0.210 HD
ENDBRANCH  10  12
ENDBRANCH   9  10
ENDBRANCH   4   6
ENDBRANCH   3   4
ENDBRANCH   2   3
BRANCH   1  14
HETATM   14  C7  UNL     1      26.278   4.060  49.887  1.00  0.00    -0.010 A 
HETATM   15  C2  UNL     1      25.424   5.035  50.350  1.00  0.00     0.042 A 
HETATM   16  C3  UNL     1      25.535   6.320  49.870  1.00  0.00     0.030 A 
HETATM   17  C4  UNL     1      26.509   6.565  48.937  1.00  0.00     0.002 A 
HETATM   18  C5  UNL     1      27.366   5.593  48.468  1.00  0.00     0.001 A 
HETATM   19  C6  UNL     1      27.244   4.313  48.958  1.00  0.00     0.013 A 
BRANCH  15  20
HETATM   20  N1  UNL     1      24.410   4.809  51.310  1.00  0.00    -0.356 N 
HETATM   21  H3  UNL     1      24.432   4.563  52.324  1.00  0.00     0.165 HD
BRANCH  20  22
HETATM   22  P1  UNL     1      22.913   5.056  50.349  1.00  0.00     0.049 P 
HETATM   23  C1  UNL     1      21.532   5.708  51.011  1.00  0.00     0.049 C 
ENDBRANCH  20  22
ENDBRANCH  15  20
ENDBRANCH   1  14
TORSDOF 8
ENDMDL
MODEL 8
REMARK VINA RESULT:      -6.3      3.711      5.459
REMARK  8 active torsions:
REMARK  status: ('A' for Active; 'I' for Inactive)
REMARK    1  A    between atoms: P1_2  and  N1_3 
REMARK    2  A    between atoms: N1_3  and  C2_4 
REMARK    3  A    between atoms: C7_9  and  C8_10 
REMARK    4  A    between atoms: C9_11  and  C10_12 
REMARK    5  A    between atoms: C10_12  and  P2_13 
REMARK    6  A    between atoms: P2_13  and  C11_14 
REMARK    7  A    between atoms: C14_17  and  C15_18 
REMARK    8  A    between atoms: C15_18  and  O1_20 
ROOT
HETATM    1  C8  UNL     1      24.651   2.886  52.405  1.00  0.00     0.010 C 
HETATM    2  C9  UNL     1      23.861   3.922  52.575  1.00  0.00    -0.021 C 
ENDROOT
BRANCH   2   3
HETATM    3  C10 UNL     1      23.587   5.125  51.755  1.00  0.00     0.063 C 
BRANCH   3   4
HETATM    4  P2  UNL     1      23.693   4.820  49.936  1.00  0.00    -0.091 P 
HETATM    5  H12 UNL     1      23.093   3.554  49.559  1.00  0.00     0.062 HD
BRANCH   4   6
HETATM    6  C11 UNL     1      25.470   4.800  49.429  1.00  0.00    -0.025 A 
HETATM    7  C12 UNL     1      26.392   3.832  49.290  1.00  0.00     0.013 A 
HETATM    8  C13 UNL     1      27.415   4.784  48.875  1.00  0.00     0.011 A 
HETATM    9  C14 UNL     1      26.506   5.735  49.011  1.00  0.00    -0.019 A 
BRANCH   9  10
HETATM   10  C15 UNL     1      26.536   7.194  48.814  1.00  0.00     0.148 C 
HETATM   11  C16 UNL     1      27.139   7.582  47.489  1.00  0.00     0.044 C 
BRANCH  10  12
HETATM   12  O1  UNL     1      27.301   7.745  49.833  1.00  0.00    -0.391 OA
HETATM   13  H19 UNL     1      28.088   8.197  49.474  1.00  0.00     0.210 HD
ENDBRANCH  10  12
ENDBRANCH   9  10
ENDBRANCH   4   6
ENDBRANCH   3   4
ENDBRANCH   2   3
BRANCH   1  14
HETATM   14  C7  UNL     1      24.965   1.689  53.159  1.00  0.00    -0.010 A 
HETATM   15  C2  UNL     1      24.129   0.598  53.100  1.00  0.00     0.042 A 
HETATM   16  C3  UNL     1      24.448  -0.541  53.806  1.00  0.00     0.030 A 
HETATM   17  C4  UNL     1      25.602  -0.524  54.546  1.00  0.00     0.002 A 
HETATM   18  C5  UNL     1      26.441   0.567  54.610  1.00  0.00     0.001 A 
HETATM   19  C6  UNL     1      26.111   1.696  53.899  1.00  0.00     0.013 A 
BRANCH  15  20
HETATM   20  N1  UNL     1      22.934   0.555  52.347  1.00  0.00    -0.356 N 
HETATM   21  H3  UNL     1      22.655   0.965  51.429  1.00  0.00     0.165 HD
BRANCH  20  22
HETATM   22  P1  UNL     1      21.865  -0.451  53.384  1.00  0.00     0.049 P 
HETATM   23  C1  UNL     1      20.755   0.219  54.426  1.00  0.00     0.049 C 
ENDBRANCH  20  22
ENDBRANCH  15  20
ENDBRANCH   1  14
TORSDOF 8
ENDMDL
MODEL 9
REMARK VINA RESULT:      -6.3      3.317      6.574
REMARK  8 active torsions:
REMARK  status: ('A' for Active; 'I' for Inactive)
REMARK    1  A    between atoms: P1_2  and  N1_3 
REMARK    2  A    between atoms: N1_3  and  C2_4 
REMARK    3  A    between atoms: C7_9  and  C8_10 
REMARK    4  A    between atoms: C9_11  and  C10_12 
REMARK    5  A    between atoms: C10_12  and  P2_13 
REMARK    6  A    between atoms: P2_13  and  C11_14 
REMARK    7  A    between atoms: C14_17  and  C15_18 
REMARK    8  A    between atoms: C15_18  and  O1_20 
ROOT
HETATM    1  C8  UNL     1      24.319   2.882  52.321  1.00  0.00     0.010 C 
HETATM    2  C9  UNL     1      23.493   3.888  52.499  1.00  0.00    -0.021 C 
ENDROOT
BRANCH   2   3
HETATM    3  C10 UNL     1      23.246   5.136  51.737  1.00  0.00     0.063 C 
BRANCH   3   4
HETATM    4  P2  UNL     1      22.054   4.927  50.342  1.00  0.00    -0.091 P 
HETATM    5  H12 UNL     1      20.845   5.706  50.536  1.00  0.00     0.062 HD
BRANCH   4   6
HETATM    6  C11 UNL     1      21.587   3.145  50.207  1.00  0.00    -0.025 A 
HETATM    7  C12 UNL     1      22.040   2.112  49.476  1.00  0.00     0.013 A 
HETATM    8  C13 UNL     1      21.071   1.194  50.063  1.00  0.00     0.011 A 
HETATM    9  C14 UNL     1      20.627   2.212  50.782  1.00  0.00    -0.019 A 
BRANCH   9  10
HETATM   10  C15 UNL     1      19.560   2.345  51.787  1.00  0.00     0.148 C 
HETATM   11  C16 UNL     1      18.456   3.265  51.334  1.00  0.00     0.044 C 
BRANCH  10  12
HETATM   12  O1  UNL     1      20.128   2.863  52.944  1.00  0.00    -0.391 OA
HETATM   13  H19 UNL     1      20.616   3.687  52.754  1.00  0.00     0.210 HD
ENDBRANCH  10  12
ENDBRANCH   9  10
ENDBRANCH   4   6
ENDBRANCH   3   4
ENDBRANCH   2   3
BRANCH   1  14
HETATM   14  C7  UNL     1      24.609   1.646  53.019  1.00  0.00    -0.010 A 
HETATM   15  C2  UNL     1      25.741   1.542  53.794  1.00  0.00     0.042 A 
HETATM   16  C3  UNL     1      25.997   0.368  54.468  1.00  0.00     0.030 A 
HETATM   17  C4  UNL     1      25.093  -0.653  54.326  1.00  0.00     0.002 A 
HETATM   18  C5  UNL     1      23.959  -0.554  53.549  1.00  0.00     0.001 A 
HETATM   19  C6  UNL     1      23.716   0.624  52.883  1.00  0.00     0.013 A 
BRANCH  15  20
HETATM   20  N1  UNL     1      26.689   2.577  53.956  1.00  0.00    -0.356 N 
HETATM   21  H3  UNL     1      26.621   3.556  54.313  1.00  0.00     0.165 HD
BRANCH  20  22
HETATM   22  P1  UNL     1      28.202   1.806  53.369  1.00  0.00     0.049 P 
HETATM   23  C1  UNL     1      29.421   1.344  54.403  1.00  0.00     0.049 C 
ENDBRANCH  20  22
ENDBRANCH  15  20
ENDBRANCH   1  14
TORSDOF 8
ENDMDL
