MODEL 1
REMARK VINA RESULT:      -7.7      0.000      0.000
REMARK  3 active torsions:
REMARK  status: ('A' for Active; 'I' for Inactive)
REMARK    1  A    between atoms: C3_3  and  C4_4 
REMARK    2  A    between atoms: C4_4  and  C5_5 
REMARK    3  A    between atoms: C9_9  and  C10_10 
ROOT
HETATM    1  C1  UNL     1      26.531   6.493  48.636  1.00  0.00     0.017 C 
HETATM    2  C2  UNL     1      26.786   5.338  48.870  1.00  0.00    -0.088 C 
HETATM    3  C3  UNL     1      27.103   4.003  49.130  1.00  0.00     0.077 C 
ENDROOT
BRANCH   3   4
HETATM    4  C4  UNL     1      26.365   3.134  49.822  1.00  0.00     0.007 C 
BRANCH   4   5
HETATM    5  C5  UNL     1      25.861   2.634  50.949  1.00  0.00     0.021 C 
HETATM    6  C6  UNL     1      26.408   1.274  51.375  1.00  0.00     0.091 C 
HETATM    7  C7  UNL     1      25.579   1.131  52.637  1.00  0.00    -0.071 C 
HETATM    8  C8  UNL     1      24.698   0.216  52.954  1.00  0.00     0.015 C 
HETATM    9  C17 UNL     1      25.827   2.337  53.550  1.00  0.00     0.063 C 
HETATM   10  C9  UNL     1      23.394   0.855  53.311  1.00  0.00    -0.024 C 
HETATM   11  C15 UNL     1      23.400   2.190  53.227  1.00  0.00     0.010 C 
HETATM   12  C16 UNL     1      24.552   3.140  53.100  1.00  0.00     0.109 C 
HETATM   13  N3  UNL     1      24.890   3.380  51.676  1.00  0.00    -0.384 N 
HETATM   14  H17 UNL     1      24.386   4.151  51.157  1.00  0.00     0.160 HD
BRANCH  10  15
HETATM   15  C10 UNL     1      22.380  -0.070  53.701  1.00  0.00     0.017 A 
HETATM   16  C11 UNL     1      22.423  -0.956  54.764  1.00  0.00     0.153 A 
HETATM   17  N1  UNL     1      21.287  -1.656  54.832  1.00  0.00    -0.184 NA
HETATM   18  N2  UNL     1      20.464  -1.303  53.878  1.00  0.00    -0.278 N 
HETATM   19  C12 UNL     1      19.142  -1.838  53.630  1.00  0.00     0.179 C 
HETATM   20  C13 UNL     1      21.132  -0.333  53.187  1.00  0.00     0.038 A 
HETATM   21  C14 UNL     1      20.486   0.319  52.021  1.00  0.00     0.071 C 
ENDBRANCH  10  15
ENDBRANCH   4   5
ENDBRANCH   3   4
TORSDOF 3
ENDMDL
MODEL 2
REMARK VINA RESULT:      -7.2      2.964      6.274
REMARK  3 active torsions:
REMARK  status: ('A' for Active; 'I' for Inactive)
REMARK    1  A    between atoms: C3_3  and  C4_4 
REMARK    2  A    between atoms: C4_4  and  C5_5 
REMARK    3  A    between atoms: C9_9  and  C10_10 
ROOT
HETATM    1  C1  UNL     1      17.748  -0.113  51.754  1.00  0.00     0.017 C 
HETATM    2  C2  UNL     1      18.622   0.241  51.005  1.00  0.00    -0.088 C 
HETATM    3  C3  UNL     1      19.622   0.645  50.117  1.00  0.00     0.077 C 
ENDROOT
BRANCH   3   4
HETATM    4  C4  UNL     1      20.808   1.162  50.441  1.00  0.00     0.007 C 
BRANCH   4   5
HETATM    5  C5  UNL     1      21.918   1.223  51.174  1.00  0.00     0.021 C 
HETATM    6  C6  UNL     1      23.105   1.929  50.524  1.00  0.00     0.091 C 
HETATM    7  C7  UNL     1      24.077   1.752  51.675  1.00  0.00    -0.071 C 
HETATM    8  C8  UNL     1      25.225   1.122  51.705  1.00  0.00     0.015 C 
HETATM    9  C17 UNL     1      23.474   2.356  52.948  1.00  0.00     0.063 C 
HETATM   10  C9  UNL     1      25.226   0.101  52.798  1.00  0.00    -0.024 C 
HETATM   11  C15 UNL     1      24.083   0.043  53.491  1.00  0.00     0.010 C 
HETATM   12  C16 UNL     1      22.929   0.999  53.525  1.00  0.00     0.109 C 
HETATM   13  N3  UNL     1      21.928   0.663  52.483  1.00  0.00    -0.384 N 
HETATM   14  H17 UNL     1      21.169  -0.035  52.716  1.00  0.00     0.160 HD
BRANCH  10  15
HETATM   15  C10 UNL     1      26.454  -0.614  52.924  1.00  0.00     0.017 A 
HETATM   16  C11 UNL     1      26.691  -1.933  52.577  1.00  0.00     0.153 A 
HETATM   17  N1  UNL     1      27.964  -2.256  52.824  1.00  0.00    -0.184 NA
HETATM   18  N2  UNL     1      28.616  -1.238  53.319  1.00  0.00    -0.278 N 
HETATM   19  C12 UNL     1      30.010  -1.206  53.710  1.00  0.00     0.179 C 
HETATM   20  C13 UNL     1      27.694  -0.232  53.380  1.00  0.00     0.038 A 
HETATM   21  C14 UNL     1      28.090   1.103  53.891  1.00  0.00     0.071 C 
ENDBRANCH  10  15
ENDBRANCH   4   5
ENDBRANCH   3   4
TORSDOF 3
ENDMDL
MODEL 3
REMARK VINA RESULT:      -7.2      3.550      5.293
REMARK  3 active torsions:
REMARK  status: ('A' for Active; 'I' for Inactive)
REMARK    1  A    between atoms: C3_3  and  C4_4 
REMARK    2  A    between atoms: C4_4  and  C5_5 
REMARK    3  A    between atoms: C9_9  and  C10_10 
ROOT
HETATM    1  C1  UNL     1      21.663   4.786  45.948  1.00  0.00     0.017 C 
HETATM    2  C2  UNL     1      21.881   3.839  46.660  1.00  0.00    -0.088 C 
HETATM    3  C3  UNL     1      22.129   2.725  47.465  1.00  0.00     0.077 C 
ENDROOT
BRANCH   3   4
HETATM    4  C4  UNL     1      22.397   2.737  48.772  1.00  0.00     0.007 C 
BRANCH   4   5
HETATM    5  C5  UNL     1      23.196   2.564  49.823  1.00  0.00     0.021 C 
HETATM    6  C6  UNL     1      24.587   3.184  49.711  1.00  0.00     0.091 C 
HETATM    7  C7  UNL     1      25.094   2.745  51.071  1.00  0.00    -0.071 C 
HETATM    8  C8  UNL     1      26.108   1.972  51.371  1.00  0.00     0.015 C 
HETATM    9  C17 UNL     1      24.149   3.264  52.160  1.00  0.00     0.063 C 
HETATM   10  C9  UNL     1      25.655   0.835  52.231  1.00  0.00    -0.024 C 
HETATM   11  C15 UNL     1      24.345   0.843  52.500  1.00  0.00     0.010 C 
HETATM   12  C16 UNL     1      23.331   1.929  52.309  1.00  0.00     0.109 C 
HETATM   13  N3  UNL     1      22.716   1.854  50.961  1.00  0.00    -0.384 N 
HETATM   14  H17 UNL     1      21.868   1.238  50.824  1.00  0.00     0.160 HD
BRANCH  10  15
HETATM   15  C10 UNL     1      26.705  -0.043  52.633  1.00  0.00     0.017 A 
HETATM   16  C11 UNL     1      26.701  -1.427  52.584  1.00  0.00     0.153 A 
HETATM   17  N1  UNL     1      27.863  -1.912  53.030  1.00  0.00    -0.184 NA
HETATM   18  N2  UNL     1      28.667  -0.943  53.383  1.00  0.00    -0.278 N 
HETATM   19  C12 UNL     1      30.008  -1.077  53.912  1.00  0.00     0.179 C 
HETATM   20  C13 UNL     1      27.960   0.200  53.140  1.00  0.00     0.038 A 
HETATM   21  C14 UNL     1      28.576   1.521  53.416  1.00  0.00     0.071 C 
ENDBRANCH  10  15
ENDBRANCH   4   5
ENDBRANCH   3   4
TORSDOF 3
ENDMDL
MODEL 4
REMARK VINA RESULT:      -7.1      3.238      5.031
REMARK  3 active torsions:
REMARK  status: ('A' for Active; 'I' for Inactive)
REMARK    1  A    between atoms: C3_3  and  C4_4 
REMARK    2  A    between atoms: C4_4  and  C5_5 
REMARK    3  A    between atoms: C9_9  and  C10_10 
ROOT
HETATM    1  C1  UNL     1      30.159  -0.196  53.645  1.00  0.00     0.017 C 
HETATM    2  C2  UNL     1      29.182  -0.839  53.354  1.00  0.00    -0.088 C 
HETATM    3  C3  UNL     1      28.063  -1.605  53.020  1.00  0.00     0.077 C 
ENDROOT
BRANCH   3   4
HETATM    4  C4  UNL     1      26.869  -1.141  52.646  1.00  0.00     0.007 C 
BRANCH   4   5
HETATM    5  C5  UNL     1      25.948  -0.187  52.527  1.00  0.00     0.021 C 
HETATM    6  C6  UNL     1      24.643  -0.425  53.282  1.00  0.00     0.091 C 
HETATM    7  C7  UNL     1      23.951   0.858  52.862  1.00  0.00    -0.071 C 
HETATM    8  C8  UNL     1      22.842   1.022  52.185  1.00  0.00     0.015 C 
HETATM    9  C17 UNL     1      24.818   2.058  53.260  1.00  0.00     0.063 C 
HETATM   10  C9  UNL     1      23.089   1.885  50.989  1.00  0.00    -0.024 C 
HETATM   11  C15 UNL     1      24.358   2.292  50.862  1.00  0.00     0.010 C 
HETATM   12  C16 UNL     1      25.484   2.247  51.849  1.00  0.00     0.109 C 
HETATM   13  N3  UNL     1      26.232   0.970  51.746  1.00  0.00    -0.384 N 
HETATM   14  H17 UNL     1      27.028   0.902  51.053  1.00  0.00     0.160 HD
BRANCH  10  15
HETATM   15  C10 UNL     1      21.924   2.143  50.208  1.00  0.00     0.017 A 
HETATM   16  C11 UNL     1      21.532   1.490  49.051  1.00  0.00     0.153 A 
HETATM   17  N1  UNL     1      20.378   1.992  48.602  1.00  0.00    -0.184 NA
HETATM   18  N2  UNL     1      19.952   2.952  49.381  1.00  0.00    -0.278 N 
HETATM   19  C12 UNL     1      18.743   3.731  49.218  1.00  0.00     0.179 C 
HETATM   20  C13 UNL     1      20.897   3.045  50.364  1.00  0.00     0.038 A 
HETATM   21  C14 UNL     1      20.734   4.041  51.451  1.00  0.00     0.071 C 
ENDBRANCH  10  15
ENDBRANCH   4   5
ENDBRANCH   3   4
TORSDOF 3
ENDMDL
MODEL 5
REMARK VINA RESULT:      -6.9      3.161      6.946
REMARK  3 active torsions:
REMARK  status: ('A' for Active; 'I' for Inactive)
REMARK    1  A    between atoms: C3_3  and  C4_4 
REMARK    2  A    between atoms: C4_4  and  C5_5 
REMARK    3  A    between atoms: C9_9  and  C10_10 
ROOT
HETATM    1  C1  UNL     1      29.807  -1.049  53.702  1.00  0.00     0.017 C 
HETATM    2  C2  UNL     1      29.248   0.004  53.881  1.00  0.00    -0.088 C 
HETATM    3  C3  UNL     1      28.621   1.233  54.098  1.00  0.00     0.077 C 
ENDROOT
BRANCH   3   4
HETATM    4  C4  UNL     1      27.357   1.539  53.804  1.00  0.00     0.007 C 
BRANCH   4   5
HETATM    5  C5  UNL     1      26.396   1.968  52.988  1.00  0.00     0.021 C 
HETATM    6  C6  UNL     1      26.444   1.425  51.562  1.00  0.00     0.091 C 
HETATM    7  C7  UNL     1      25.221   2.158  51.045  1.00  0.00    -0.071 C 
HETATM    8  C8  UNL     1      25.125   3.036  50.078  1.00  0.00     0.015 C 
HETATM    9  C17 UNL     1      24.011   1.811  51.919  1.00  0.00     0.063 C 
HETATM   10  C9  UNL     1      24.488   4.292  50.581  1.00  0.00    -0.024 C 
HETATM   11  C15 UNL     1      24.166   4.259  51.879  1.00  0.00     0.010 C 
HETATM   12  C16 UNL     1      24.094   3.095  52.821  1.00  0.00     0.109 C 
HETATM   13  N3  UNL     1      25.402   2.861  53.480  1.00  0.00    -0.384 N 
HETATM   14  H17 UNL     1      25.622   3.384  54.372  1.00  0.00     0.160 HD
BRANCH  10  15
HETATM   15  C10 UNL     1      24.314   5.296  49.582  1.00  0.00     0.017 A 
HETATM   16  C11 UNL     1      23.117   5.818  49.123  1.00  0.00     0.153 A 
HETATM   17  N1  UNL     1      23.343   6.751  48.194  1.00  0.00    -0.184 NA
HETATM   18  N2  UNL     1      24.625   6.903  47.987  1.00  0.00    -0.278 N 
HETATM   19  C12 UNL     1      25.253   7.819  47.058  1.00  0.00     0.179 C 
HETATM   20  C13 UNL     1      25.220   6.014  48.837  1.00  0.00     0.038 A 
HETATM   21  C14 UNL     1      26.700   5.916  48.885  1.00  0.00     0.071 C 
ENDBRANCH  10  15
ENDBRANCH   4   5
ENDBRANCH   3   4
TORSDOF 3
ENDMDL
MODEL 6
REMARK VINA RESULT:      -6.7      3.250      4.683
REMARK  3 active torsions:
REMARK  status: ('A' for Active; 'I' for Inactive)
REMARK    1  A    between atoms: C3_3  and  C4_4 
REMARK    2  A    between atoms: C4_4  and  C5_5 
REMARK    3  A    between atoms: C9_9  and  C10_10 
ROOT
HETATM    1  C1  UNL     1      23.916   7.770  46.744  1.00  0.00     0.017 C 
HETATM    2  C2  UNL     1      23.511   6.788  47.314  1.00  0.00    -0.088 C 
HETATM    3  C3  UNL     1      23.028   5.645  47.954  1.00  0.00     0.077 C 
ENDROOT
BRANCH   3   4
HETATM    4  C4  UNL     1      23.280   5.274  49.210  1.00  0.00     0.007 C 
BRANCH   4   5
HETATM    5  C5  UNL     1      23.271   4.403  50.218  1.00  0.00     0.021 C 
HETATM    6  C6  UNL     1      23.506   4.992  51.607  1.00  0.00     0.091 C 
HETATM    7  C7  UNL     1      23.411   3.689  52.377  1.00  0.00    -0.071 C 
HETATM    8  C8  UNL     1      24.310   3.095  53.122  1.00  0.00     0.015 C 
HETATM    9  C17 UNL     1      22.063   3.021  52.085  1.00  0.00     0.063 C 
HETATM   10  C9  UNL     1      24.533   1.695  52.648  1.00  0.00    -0.024 C 
HETATM   11  C15 UNL     1      23.792   1.354  51.587  1.00  0.00     0.010 C 
HETATM   12  C16 UNL     1      22.607   2.042  50.981  1.00  0.00     0.109 C 
HETATM   13  N3  UNL     1      23.029   3.025  49.953  1.00  0.00    -0.384 N 
HETATM   14  H17 UNL     1      23.163   2.694  48.959  1.00  0.00     0.160 HD
BRANCH  10  15
HETATM   15  C10 UNL     1      25.478   0.961  53.425  1.00  0.00     0.017 A 
HETATM   16  C11 UNL     1      25.224  -0.138  54.229  1.00  0.00     0.153 A 
HETATM   17  N1  UNL     1      26.355  -0.571  54.793  1.00  0.00    -0.184 NA
HETATM   18  N2  UNL     1      27.372   0.164  54.425  1.00  0.00    -0.278 N 
HETATM   19  C12 UNL     1      28.753   0.000  54.828  1.00  0.00     0.179 C 
HETATM   20  C13 UNL     1      26.836   1.100  53.587  1.00  0.00     0.038 A 
HETATM   21  C14 UNL     1      27.716   2.115  52.956  1.00  0.00     0.071 C 
ENDBRANCH  10  15
ENDBRANCH   4   5
ENDBRANCH   3   4
TORSDOF 3
ENDMDL
MODEL 7
REMARK VINA RESULT:      -6.6      3.405      8.204
REMARK  3 active torsions:
REMARK  status: ('A' for Active; 'I' for Inactive)
REMARK    1  A    between atoms: C3_3  and  C4_4 
REMARK    2  A    between atoms: C4_4  and  C5_5 
REMARK    3  A    between atoms: C9_9  and  C10_10 
ROOT
HETATM    1  C1  UNL     1      26.638  -0.439  52.054  1.00  0.00     0.017 C 
HETATM    2  C2  UNL     1      25.853   0.278  52.623  1.00  0.00    -0.088 C 
HETATM    3  C3  UNL     1      24.944   1.093  53.300  1.00  0.00     0.077 C 
ENDROOT
BRANCH   3   4
HETATM    4  C4  UNL     1      24.395   2.219  52.842  1.00  0.00     0.007 C 
BRANCH   4   5
HETATM    5  C5  UNL     1      24.246   3.188  51.940  1.00  0.00     0.021 C 
HETATM    6  C6  UNL     1      24.105   2.731  50.490  1.00  0.00     0.091 C 
HETATM    7  C7  UNL     1      23.969   4.111  49.875  1.00  0.00    -0.071 C 
HETATM    8  C8  UNL     1      24.733   4.708  48.994  1.00  0.00     0.015 C 
HETATM    9  C17 UNL     1      22.793   4.846  50.527  1.00  0.00     0.063 C 
HETATM   10  C9  UNL     1      25.192   6.030  49.520  1.00  0.00    -0.024 C 
HETATM   11  C15 UNL     1      24.745   6.315  50.748  1.00  0.00     0.010 C 
HETATM   12  C16 UNL     1      23.663   5.660  51.552  1.00  0.00     0.109 C 
HETATM   13  N3  UNL     1      24.206   4.546  52.368  1.00  0.00    -0.384 N 
HETATM   14  H17 UNL     1      24.591   4.761  53.329  1.00  0.00     0.160 HD
BRANCH  10  15
HETATM   15  C10 UNL     1      26.007   6.766  48.609  1.00  0.00     0.017 A 
HETATM   16  C11 UNL     1      25.674   7.938  47.950  1.00  0.00     0.153 A 
HETATM   17  N1  UNL     1      26.692   8.348  47.188  1.00  0.00    -0.184 NA
HETATM   18  N2  UNL     1      27.706   7.528  47.283  1.00  0.00    -0.278 N 
HETATM   19  C12 UNL     1      28.981   7.641  46.606  1.00  0.00     0.179 C 
HETATM   20  C13 UNL     1      27.288   6.560  48.153  1.00  0.00     0.038 A 
HETATM   21  C14 UNL     1      28.202   5.449  48.515  1.00  0.00     0.071 C 
ENDBRANCH  10  15
ENDBRANCH   4   5
ENDBRANCH   3   4
TORSDOF 3
ENDMDL
MODEL 8
REMARK VINA RESULT:      -6.6      3.215      4.870
REMARK  3 active torsions:
REMARK  status: ('A' for Active; 'I' for Inactive)
REMARK    1  A    between atoms: C3_3  and  C4_4 
REMARK    2  A    between atoms: C4_4  and  C5_5 
REMARK    3  A    between atoms: C9_9  and  C10_10 
ROOT
HETATM    1  C1  UNL     1      27.182   9.248  50.039  1.00  0.00     0.017 C 
HETATM    2  C2  UNL     1      26.091   8.749  50.154  1.00  0.00    -0.088 C 
HETATM    3  C3  UNL     1      24.818   8.192  50.292  1.00  0.00     0.077 C 
ENDROOT
BRANCH   3   4
HETATM    4  C4  UNL     1      24.497   6.905  50.151  1.00  0.00     0.007 C 
BRANCH   4   5
HETATM    5  C5  UNL     1      24.323   5.666  50.607  1.00  0.00     0.021 C 
HETATM    6  C6  UNL     1      23.729   5.551  52.008  1.00  0.00     0.091 C 
HETATM    7  C7  UNL     1      23.724   4.035  52.082  1.00  0.00    -0.071 C 
HETATM    8  C8  UNL     1      24.344   3.242  52.920  1.00  0.00     0.015 C 
HETATM    9  C17 UNL     1      22.928   3.470  50.901  1.00  0.00     0.063 C 
HETATM   10  C9  UNL     1      25.181   2.253  52.173  1.00  0.00    -0.024 C 
HETATM   11  C15 UNL     1      25.128   2.388  50.843  1.00  0.00     0.010 C 
HETATM   12  C16 UNL     1      24.177   3.175  49.994  1.00  0.00     0.109 C 
HETATM   13  N3  UNL     1      24.671   4.558  49.782  1.00  0.00    -0.384 N 
HETATM   14  H17 UNL     1      25.323   4.745  48.971  1.00  0.00     0.160 HD
BRANCH  10  15
HETATM   15  C10 UNL     1      25.869   1.325  53.010  1.00  0.00     0.017 A 
HETATM   16  C11 UNL     1      25.378   0.131  53.514  1.00  0.00     0.153 A 
HETATM   17  N1  UNL     1      26.311  -0.482  54.247  1.00  0.00    -0.184 NA
HETATM   18  N2  UNL     1      27.415   0.218  54.277  1.00  0.00    -0.278 N 
HETATM   19  C12 UNL     1      28.641  -0.123  54.968  1.00  0.00     0.179 C 
HETATM   20  C13 UNL     1      27.146   1.323  53.520  1.00  0.00     0.038 A 
HETATM   21  C14 UNL     1      28.194   2.352  53.319  1.00  0.00     0.071 C 
ENDBRANCH  10  15
ENDBRANCH   4   5
ENDBRANCH   3   4
TORSDOF 3
ENDMDL
MODEL 9
REMARK VINA RESULT:      -6.4      2.547      4.693
REMARK  3 active torsions:
REMARK  status: ('A' for Active; 'I' for Inactive)
REMARK    1  A    between atoms: C3_3  and  C4_4 
REMARK    2  A    between atoms: C4_4  and  C5_5 
REMARK    3  A    between atoms: C9_9  and  C10_10 
ROOT
HETATM    1  C1  UNL     1      29.206   9.775  48.106  1.00  0.00     0.017 C 
HETATM    2  C2  UNL     1      28.467   9.571  49.035  1.00  0.00    -0.088 C 
HETATM    3  C3  UNL     1      27.623   9.350  50.126  1.00  0.00     0.077 C 
ENDROOT
BRANCH   3   4
HETATM    4  C4  UNL     1      26.576   8.525  50.163  1.00  0.00     0.007 C 
BRANCH   4   5
HETATM    5  C5  UNL     1      26.002   7.326  50.070  1.00  0.00     0.021 C 
HETATM    6  C6  UNL     1      24.550   7.247  50.535  1.00  0.00     0.091 C 
HETATM    7  C7  UNL     1      24.348   5.770  50.254  1.00  0.00    -0.071 C 
HETATM    8  C8  UNL     1      24.048   4.800  51.081  1.00  0.00     0.015 C 
HETATM    9  C17 UNL     1      24.662   5.483  48.782  1.00  0.00     0.063 C 
HETATM   10  C9  UNL     1      25.062   3.705  50.985  1.00  0.00    -0.024 C 
HETATM   11  C15 UNL     1      26.040   3.943  50.103  1.00  0.00     0.010 C 
HETATM   12  C16 UNL     1      26.131   4.982  49.027  1.00  0.00     0.109 C 
HETATM   13  N3  UNL     1      26.744   6.231  49.543  1.00  0.00    -0.384 N 
HETATM   14  H17 UNL     1      27.797   6.326  49.523  1.00  0.00     0.160 HD
BRANCH  10  15
HETATM   15  C10 UNL     1      24.795   2.589  51.832  1.00  0.00     0.017 A 
HETATM   16  C11 UNL     1      25.514   2.196  52.948  1.00  0.00     0.153 A 
HETATM   17  N1  UNL     1      24.961   1.113  53.500  1.00  0.00    -0.184 NA
HETATM   18  N2  UNL     1      23.903   0.737  52.830  1.00  0.00    -0.278 N 
HETATM   19  C12 UNL     1      23.045  -0.392  53.124  1.00  0.00     0.179 C 
HETATM   20  C13 UNL     1      23.800   1.639  51.810  1.00  0.00     0.038 A 
HETATM   21  C14 UNL     1      22.686   1.529  50.837  1.00  0.00     0.071 C 
ENDBRANCH  10  15
ENDBRANCH   4   5
ENDBRANCH   3   4
TORSDOF 3
ENDMDL
