MODEL 1
REMARK VINA RESULT:      -8.8      0.000      0.000
REMARK  0 active torsions:
REMARK  status: ('A' for Active; 'I' for Inactive)
ROOT
HETATM    1  C1  UNL     1      22.459   0.132  52.242  1.00  0.00     0.028 C 
HETATM    2  C2  UNL     1      22.907  -0.251  53.414  1.00  0.00     0.013 A 
HETATM    3  C3  UNL     1      24.155  -0.365  53.832  1.00  0.00     0.080 A 
HETATM    4  N1  UNL     1      24.408  -1.018  54.970  1.00  0.00    -0.240 NA
HETATM    5  C4  UNL     1      23.244  -1.521  55.594  1.00  0.00     0.234 A 
HETATM    6  N2  UNL     1      21.894  -1.418  55.186  1.00  0.00    -0.241 NA
HETATM    7  C5  UNL     1      21.790  -0.712  54.008  1.00  0.00     0.070 A 
HETATM    8  C6  UNL     1      20.522  -0.174  54.017  1.00  0.00     0.034 C 
HETATM    9  C7  UNL     1      20.264   1.107  53.338  1.00  0.00     0.019 C 
HETATM   10  C8  UNL     1      20.256   2.280  52.652  1.00  0.00     0.091 C 
HETATM   11  N3  UNL     1      21.368   2.827  52.014  1.00  0.00    -0.335 N 
HETATM   12  C9  UNL     1      22.439   3.396  51.303  1.00  0.00     0.245 C 
HETATM   13  O1  UNL     1      21.529   3.670  50.493  1.00  0.00    -0.271 OA
HETATM   14  C10 UNL     1      23.658   3.927  50.715  1.00  0.00     0.278 C 
HETATM   15  O2  UNL     1      24.829   3.699  51.455  1.00  0.00    -0.342 OA
HETATM   16  C11 UNL     1      25.387   2.491  51.715  1.00  0.00     0.070 A 
HETATM   17  C12 UNL     1      26.576   1.826  51.332  1.00  0.00     0.037 A 
HETATM   18  C13 UNL     1      26.885   0.557  51.779  1.00  0.00     0.004 A 
HETATM   19  C14 UNL     1      26.180  -0.272  52.613  1.00  0.00     0.014 A 
HETATM   20  C15 UNL     1      25.036   0.360  52.984  1.00  0.00    -0.004 A 
HETATM   21  C16 UNL     1      24.740   1.616  52.540  1.00  0.00     0.050 A 
HETATM   22  H7  UNL     1      21.965   2.798  52.864  1.00  0.00     0.168 HD
ENDROOT
TORSDOF 0
ENDMDL
MODEL 2
REMARK VINA RESULT:      -8.7      1.694      4.419
REMARK  0 active torsions:
REMARK  status: ('A' for Active; 'I' for Inactive)
ROOT
HETATM    1  C1  UNL     1      24.530   1.976  53.012  1.00  0.00     0.028 C 
HETATM    2  C2  UNL     1      25.311   0.924  53.076  1.00  0.00     0.013 A 
HETATM    3  C3  UNL     1      25.056  -0.272  53.575  1.00  0.00     0.080 A 
HETATM    4  N1  UNL     1      26.064  -1.125  53.780  1.00  0.00    -0.240 NA
HETATM    5  C4  UNL     1      27.325  -0.595  53.418  1.00  0.00     0.234 A 
HETATM    6  N2  UNL     1      27.640   0.672  52.878  1.00  0.00    -0.241 NA
HETATM    7  C5  UNL     1      26.503   1.433  52.713  1.00  0.00     0.070 A 
HETATM    8  C6  UNL     1      26.802   2.318  51.700  1.00  0.00     0.034 C 
HETATM    9  C7  UNL     1      25.733   2.803  50.812  1.00  0.00     0.019 C 
HETATM   10  C8  UNL     1      24.602   3.117  50.126  1.00  0.00     0.091 C 
HETATM   11  N3  UNL     1      23.333   2.632  50.435  1.00  0.00    -0.335 N 
HETATM   12  C9  UNL     1      22.022   2.220  50.735  1.00  0.00     0.245 C 
HETATM   13  O1  UNL     1      21.764   3.398  50.411  1.00  0.00    -0.271 OA
HETATM   14  C10 UNL     1      20.744   1.624  51.086  1.00  0.00     0.278 C 
HETATM   15  O2  UNL     1      20.804   0.289  51.519  1.00  0.00    -0.342 OA
HETATM   16  C11 UNL     1      21.413  -0.158  52.645  1.00  0.00     0.070 A 
HETATM   17  C12 UNL     1      20.980  -0.728  53.866  1.00  0.00     0.037 A 
HETATM   18  C13 UNL     1      21.865  -1.102  54.858  1.00  0.00     0.004 A 
HETATM   19  C14 UNL     1      23.233  -1.016  54.885  1.00  0.00     0.014 A 
HETATM   20  C15 UNL     1      23.656  -0.470  53.715  1.00  0.00    -0.004 A 
HETATM   21  C16 UNL     1      22.774  -0.105  52.740  1.00  0.00     0.050 A 
HETATM   22  H7  UNL     1      23.624   1.634  50.404  1.00  0.00     0.168 HD
ENDROOT
TORSDOF 0
ENDMDL
MODEL 3
REMARK VINA RESULT:      -8.5      1.572      2.885
REMARK  0 active torsions:
REMARK  status: ('A' for Active; 'I' for Inactive)
ROOT
HETATM    1  C1  UNL     1      23.459   0.062  52.805  1.00  0.00     0.028 C 
HETATM    2  C2  UNL     1      24.476   0.345  53.583  1.00  0.00     0.013 A 
HETATM    3  C3  UNL     1      25.409   1.267  53.431  1.00  0.00     0.080 A 
HETATM    4  N1  UNL     1      26.503   1.226  54.197  1.00  0.00    -0.240 NA
HETATM    5  C4  UNL     1      26.507   0.141  55.104  1.00  0.00     0.234 A 
HETATM    6  N2  UNL     1      25.532  -0.862  55.303  1.00  0.00    -0.241 NA
HETATM    7  C5  UNL     1      24.462  -0.682  54.453  1.00  0.00     0.070 A 
HETATM    8  C6  UNL     1      23.391  -1.273  55.088  1.00  0.00     0.034 C 
HETATM    9  C7  UNL     1      22.032  -0.749  54.873  1.00  0.00     0.019 C 
HETATM   10  C8  UNL     1      20.883  -0.110  54.527  1.00  0.00     0.091 C 
HETATM   11  N3  UNL     1      20.813   0.960  53.638  1.00  0.00    -0.335 N 
HETATM   12  C9  UNL     1      20.674   2.004  52.705  1.00  0.00     0.245 C 
HETATM   13  O1  UNL     1      19.642   1.368  52.410  1.00  0.00    -0.271 OA
HETATM   14  C10 UNL     1      20.695   3.152  51.815  1.00  0.00     0.278 C 
HETATM   15  O2  UNL     1      21.807   3.999  51.955  1.00  0.00    -0.342 OA
HETATM   16  C11 UNL     1      23.096   3.674  51.694  1.00  0.00     0.070 A 
HETATM   17  C12 UNL     1      24.059   4.060  50.731  1.00  0.00     0.037 A 
HETATM   18  C13 UNL     1      25.339   3.542  50.722  1.00  0.00     0.004 A 
HETATM   19  C14 UNL     1      25.915   2.624  51.561  1.00  0.00     0.014 A 
HETATM   20  C15 UNL     1      24.996   2.247  52.488  1.00  0.00    -0.004 A 
HETATM   21  C16 UNL     1      23.735   2.767  52.491  1.00  0.00     0.050 A 
HETATM   22  H7  UNL     1      21.516   1.530  54.150  1.00  0.00     0.168 HD
ENDROOT
TORSDOF 0
ENDMDL
MODEL 4
REMARK VINA RESULT:      -8.4      2.259      4.219
REMARK  0 active torsions:
REMARK  status: ('A' for Active; 'I' for Inactive)
ROOT
HETATM    1  C1  UNL     1      23.013   1.262  53.527  1.00  0.00     0.028 C 
HETATM    2  C2  UNL     1      22.429   1.029  52.375  1.00  0.00     0.013 A 
HETATM    3  C3  UNL     1      22.795   1.412  51.166  1.00  0.00     0.080 A 
HETATM    4  N1  UNL     1      21.932   1.296  50.152  1.00  0.00    -0.240 NA
HETATM    5  C4  UNL     1      20.685   0.754  50.542  1.00  0.00     0.234 A 
HETATM    6  N2  UNL     1      20.256   0.327  51.820  1.00  0.00    -0.241 NA
HETATM    7  C5  UNL     1      21.253   0.498  52.755  1.00  0.00     0.070 A 
HETATM    8  C6  UNL     1      20.992  -0.433  53.738  1.00  0.00     0.034 C 
HETATM    9  C7  UNL     1      22.103  -1.013  54.510  1.00  0.00     0.019 C 
HETATM   10  C8  UNL     1      23.267  -1.406  55.092  1.00  0.00     0.091 C 
HETATM   11  N3  UNL     1      24.524  -0.908  54.755  1.00  0.00    -0.335 N 
HETATM   12  C9  UNL     1      25.810  -0.401  54.498  1.00  0.00     0.245 C 
HETATM   13  O1  UNL     1      25.912  -0.512  55.737  1.00  0.00    -0.271 OA
HETATM   14  C10 UNL     1      27.088   0.125  54.047  1.00  0.00     0.278 C 
HETATM   15  O2  UNL     1      27.184   0.361  52.666  1.00  0.00    -0.342 OA
HETATM   16  C11 UNL     1      26.470   1.272  51.960  1.00  0.00     0.070 A 
HETATM   17  C12 UNL     1      26.767   2.472  51.272  1.00  0.00     0.037 A 
HETATM   18  C13 UNL     1      25.796   3.205  50.618  1.00  0.00     0.004 A 
HETATM   19  C14 UNL     1      24.452   2.962  50.497  1.00  0.00     0.014 A 
HETATM   20  C15 UNL     1      24.160   1.810  51.156  1.00  0.00    -0.004 A 
HETATM   21  C16 UNL     1      25.126   1.092  51.797  1.00  0.00     0.050 A 
HETATM   22  H7  UNL     1      24.422  -1.126  53.744  1.00  0.00     0.168 HD
ENDROOT
TORSDOF 0
ENDMDL
MODEL 5
REMARK VINA RESULT:      -8.3      2.428      5.370
REMARK  0 active torsions:
REMARK  status: ('A' for Active; 'I' for Inactive)
ROOT
HETATM    1  C1  UNL     1      22.848   1.266  50.961  1.00  0.00     0.028 C 
HETATM    2  C2  UNL     1      21.992   2.106  51.492  1.00  0.00     0.013 A 
HETATM    3  C3  UNL     1      21.099   1.894  52.442  1.00  0.00     0.080 A 
HETATM    4  N1  UNL     1      20.147   2.806  52.662  1.00  0.00    -0.240 NA
HETATM    5  C4  UNL     1      20.235   3.922  51.799  1.00  0.00     0.234 A 
HETATM    6  N2  UNL     1      21.174   4.190  50.776  1.00  0.00    -0.241 NA
HETATM    7  C5  UNL     1      22.095   3.170  50.676  1.00  0.00     0.070 A 
HETATM    8  C6  UNL     1      23.224   3.752  50.138  1.00  0.00     0.034 C 
HETATM    9  C7  UNL     1      24.554   3.223  50.481  1.00  0.00     0.019 C 
HETATM   10  C8  UNL     1      25.663   2.574  50.926  1.00  0.00     0.091 C 
HETATM   11  N3  UNL     1      25.642   1.469  51.774  1.00  0.00    -0.335 N 
HETATM   12  C9  UNL     1      25.680   0.317  52.580  1.00  0.00     0.245 C 
HETATM   13  O1  UNL     1      26.612   0.018  51.806  1.00  0.00    -0.271 OA
HETATM   14  C10 UNL     1      25.574  -0.793  53.511  1.00  0.00     0.278 C 
HETATM   15  O2  UNL     1      24.549  -0.680  54.465  1.00  0.00    -0.342 OA
HETATM   16  C11 UNL     1      23.218  -0.664  54.210  1.00  0.00     0.070 A 
HETATM   17  C12 UNL     1      22.131  -1.532  54.469  1.00  0.00     0.037 A 
HETATM   18  C13 UNL     1      20.841  -1.233  54.078  1.00  0.00     0.004 A 
HETATM   19  C14 UNL     1      20.363  -0.133  53.413  1.00  0.00     0.014 A 
HETATM   20  C15 UNL     1      21.402   0.705  53.160  1.00  0.00    -0.004 A 
HETATM   21  C16 UNL     1      22.673   0.402  53.553  1.00  0.00     0.050 A 
HETATM   22  H7  UNL     1      25.066   1.941  52.499  1.00  0.00     0.168 HD
ENDROOT
TORSDOF 0
ENDMDL
MODEL 6
REMARK VINA RESULT:      -8.3      2.354      4.395
REMARK  0 active torsions:
REMARK  status: ('A' for Active; 'I' for Inactive)
ROOT
HETATM    1  C1  UNL     1      25.824   0.161  52.134  1.00  0.00     0.028 C 
HETATM    2  C2  UNL     1      26.718   0.957  52.671  1.00  0.00     0.013 A 
HETATM    3  C3  UNL     1      27.160   2.124  52.238  1.00  0.00     0.080 A 
HETATM    4  N1  UNL     1      28.257   2.654  52.788  1.00  0.00    -0.240 NA
HETATM    5  C4  UNL     1      28.817   1.846  53.804  1.00  0.00     0.234 A 
HETATM    6  N2  UNL     1      28.374   0.599  54.300  1.00  0.00    -0.241 NA
HETATM    7  C5  UNL     1      27.234   0.187  53.647  1.00  0.00     0.070 A 
HETATM    8  C6  UNL     1      26.586  -0.644  54.536  1.00  0.00     0.034 C 
HETATM    9  C7  UNL     1      25.117  -0.740  54.513  1.00  0.00     0.019 C 
HETATM   10  C8  UNL     1      23.775  -0.674  54.310  1.00  0.00     0.091 C 
HETATM   11  N3  UNL     1      23.163   0.099  53.326  1.00  0.00    -0.335 N 
HETATM   12  C9  UNL     1      22.496   0.813  52.314  1.00  0.00     0.245 C 
HETATM   13  O1  UNL     1      21.791  -0.217  52.294  1.00  0.00    -0.271 OA
HETATM   14  C10 UNL     1      21.933   1.691  51.302  1.00  0.00     0.278 C 
HETATM   15  O2  UNL     1      22.603   2.913  51.130  1.00  0.00    -0.342 OA
HETATM   16  C11 UNL     1      23.871   3.072  50.678  1.00  0.00     0.070 A 
HETATM   17  C12 UNL     1      24.465   3.616  49.514  1.00  0.00     0.037 A 
HETATM   18  C13 UNL     1      25.834   3.644  49.332  1.00  0.00     0.004 A 
HETATM   19  C14 UNL     1      26.834   3.196  50.155  1.00  0.00     0.014 A 
HETATM   20  C15 UNL     1      26.270   2.672  51.275  1.00  0.00    -0.004 A 
HETATM   21  C16 UNL     1      24.917   2.651  51.447  1.00  0.00     0.050 A 
HETATM   22  H7  UNL     1      23.623   0.981  53.625  1.00  0.00     0.168 HD
ENDROOT
TORSDOF 0
ENDMDL
MODEL 7
REMARK VINA RESULT:      -8.0      2.738      5.526
REMARK  0 active torsions:
REMARK  status: ('A' for Active; 'I' for Inactive)
ROOT
HETATM    1  C1  UNL     1      24.835  -0.366  52.497  1.00  0.00     0.028 C 
HETATM    2  C2  UNL     1      25.183   0.854  52.162  1.00  0.00     0.013 A 
HETATM    3  C3  UNL     1      24.507   1.750  51.466  1.00  0.00     0.080 A 
HETATM    4  N1  UNL     1      25.136   2.837  51.011  1.00  0.00    -0.240 NA
HETATM    5  C4  UNL     1      26.507   2.872  51.355  1.00  0.00     0.234 A 
HETATM    6  N2  UNL     1      27.266   1.941  52.100  1.00  0.00    -0.241 NA
HETATM    7  C5  UNL     1      26.483   0.884  52.509  1.00  0.00     0.070 A 
HETATM    8  C6  UNL     1      27.094   0.396  53.644  1.00  0.00     0.034 C 
HETATM    9  C7  UNL     1      26.285  -0.233  54.700  1.00  0.00     0.019 C 
HETATM   10  C8  UNL     1      25.352  -0.769  55.531  1.00  0.00     0.091 C 
HETATM   11  N3  UNL     1      23.990  -0.836  55.248  1.00  0.00    -0.335 N 
HETATM   12  C9  UNL     1      22.615  -0.984  54.992  1.00  0.00     0.245 C 
HETATM   13  O1  UNL     1      22.804  -2.080  55.559  1.00  0.00    -0.271 OA
HETATM   14  C10 UNL     1      21.203  -0.961  54.647  1.00  0.00     0.278 C 
HETATM   15  O2  UNL     1      20.772   0.186  53.960  1.00  0.00    -0.342 OA
HETATM   16  C11 UNL     1      21.163   0.567  52.720  1.00  0.00     0.070 A 
HETATM   17  C12 UNL     1      20.537   0.676  51.455  1.00  0.00     0.037 A 
HETATM   18  C13 UNL     1      21.214   1.117  50.336  1.00  0.00     0.004 A 
HETATM   19  C14 UNL     1      22.521   1.512  50.204  1.00  0.00     0.014 A 
HETATM   20  C15 UNL     1      23.128   1.410  51.415  1.00  0.00    -0.004 A 
HETATM   21  C16 UNL     1      22.450   0.976  52.517  1.00  0.00     0.050 A 
HETATM   22  H7  UNL     1      23.901   0.182  55.060  1.00  0.00     0.168 HD
ENDROOT
TORSDOF 0
ENDMDL
MODEL 8
REMARK VINA RESULT:      -7.9      2.466      4.681
REMARK  0 active torsions:
REMARK  status: ('A' for Active; 'I' for Inactive)
ROOT
HETATM    1  C1  UNL     1      23.859   3.214  52.651  1.00  0.00     0.028 C 
HETATM    2  C2  UNL     1      24.805   3.110  51.748  1.00  0.00     0.013 A 
HETATM    3  C3  UNL     1      25.901   2.373  51.774  1.00  0.00     0.080 A 
HETATM    4  N1  UNL     1      26.866   2.601  50.878  1.00  0.00    -0.240 NA
HETATM    5  C4  UNL     1      26.560   3.657  49.987  1.00  0.00     0.234 A 
HETATM    6  N2  UNL     1      25.402   4.464  49.922  1.00  0.00    -0.241 NA
HETATM    7  C5  UNL     1      24.497   4.106  50.897  1.00  0.00     0.070 A 
HETATM    8  C6  UNL     1      23.266   4.484  50.407  1.00  0.00     0.034 C 
HETATM    9  C7  UNL     1      22.062   3.726  50.785  1.00  0.00     0.019 C 
HETATM   10  C8  UNL     1      21.099   2.895  51.266  1.00  0.00     0.091 C 
HETATM   11  N3  UNL     1      21.336   1.841  52.146  1.00  0.00    -0.335 N 
HETATM   12  C9  UNL     1      21.506   0.802  53.079  1.00  0.00     0.245 C 
HETATM   13  O1  UNL     1      20.420   1.245  53.508  1.00  0.00    -0.271 OA
HETATM   14  C10 UNL     1      21.845  -0.311  53.949  1.00  0.00     0.278 C 
HETATM   15  O2  UNL     1      23.065  -0.945  53.663  1.00  0.00    -0.342 OA
HETATM   16  C11 UNL     1      24.297  -0.389  53.763  1.00  0.00     0.070 A 
HETATM   17  C12 UNL     1      25.426  -0.582  54.594  1.00  0.00     0.037 A 
HETATM   18  C13 UNL     1      26.582   0.159  54.448  1.00  0.00     0.004 A 
HETATM   19  C14 UNL     1      26.874   1.155  53.553  1.00  0.00     0.014 A 
HETATM   20  C15 UNL     1      25.793   1.347  52.752  1.00  0.00    -0.004 A 
HETATM   21  C16 UNL     1      24.656   0.608  52.901  1.00  0.00     0.050 A 
HETATM   22  H7  UNL     1      22.061   1.402  51.545  1.00  0.00     0.168 HD
ENDROOT
TORSDOF 0
ENDMDL
MODEL 9
REMARK VINA RESULT:      -7.9      1.611      2.490
REMARK  0 active torsions:
REMARK  status: ('A' for Active; 'I' for Inactive)
ROOT
HETATM    1  C1  UNL     1      22.914   1.525  51.173  1.00  0.00     0.028 C 
HETATM    2  C2  UNL     1      23.823   1.192  52.058  1.00  0.00     0.013 A 
HETATM    3  C3  UNL     1      25.097   1.536  52.112  1.00  0.00     0.080 A 
HETATM    4  N1  UNL     1      25.918   0.887  52.943  1.00  0.00    -0.240 NA
HETATM    5  C4  UNL     1      25.271  -0.131  53.681  1.00  0.00     0.234 A 
HETATM    6  N2  UNL     1      23.914  -0.528  53.658  1.00  0.00    -0.241 NA
HETATM    7  C5  UNL     1      23.194   0.236  52.767  1.00  0.00     0.070 A 
HETATM    8  C6  UNL     1      21.895   0.205  53.227  1.00  0.00     0.034 C 
HETATM    9  C7  UNL     1      21.006   1.353  52.989  1.00  0.00     0.019 C 
HETATM   10  C8  UNL     1      20.370   2.507  52.655  1.00  0.00     0.091 C 
HETATM   11  N3  UNL     1      20.951   3.544  51.928  1.00  0.00    -0.335 N 
HETATM   12  C9  UNL     1      21.465   4.596  51.149  1.00  0.00     0.245 C 
HETATM   13  O1  UNL     1      20.305   4.590  50.688  1.00  0.00    -0.271 OA
HETATM   14  C10 UNL     1      22.162   5.656  50.439  1.00  0.00     0.278 C 
HETATM   15  O2  UNL     1      23.514   5.819  50.783  1.00  0.00    -0.342 OA
HETATM   16  C11 UNL     1      24.505   4.919  50.575  1.00  0.00     0.070 A 
HETATM   17  C12 UNL     1      25.656   4.858  49.753  1.00  0.00     0.037 A 
HETATM   18  C13 UNL     1      26.511   3.774  49.764  1.00  0.00     0.004 A 
HETATM   19  C14 UNL     1      26.449   2.620  50.501  1.00  0.00     0.014 A 
HETATM   20  C15 UNL     1      25.346   2.671  51.293  1.00  0.00    -0.004 A 
HETATM   21  C16 UNL     1      24.508   3.748  51.277  1.00  0.00     0.050 A 
HETATM   22  H7  UNL     1      21.764   3.639  52.568  1.00  0.00     0.168 HD
ENDROOT
TORSDOF 0
ENDMDL
