MODEL 1
REMARK VINA RESULT:      -7.1      0.000      0.000
REMARK  7 active torsions:
REMARK  status: ('A' for Active; 'I' for Inactive)
REMARK    1  A    between atoms: C2_2  and  O1_3 
REMARK    2  A    between atoms: O1_3  and  C3_4 
REMARK    3  A    between atoms: C5_6  and  C6_7 
REMARK    4  A    between atoms: C8_10  and  C9_11 
REMARK    5  A    between atoms: C9_11  and  S1_12 
REMARK    6  A    between atoms: S1_12  and  C10_13 
REMARK    7  A    between atoms: C16_19  and  O2_20 
ROOT
HETATM    1  C3  UNL     1      26.261   0.185  54.178  1.00  0.00     0.102 A 
HETATM    2  C4  UNL     1      26.193   1.117  53.167  1.00  0.00     0.048 A 
HETATM    3  C5  UNL     1      25.045   1.337  52.457  1.00  0.00    -0.041 A 
HETATM    4  C7  UNL     1      23.872   0.623  52.719  1.00  0.00     0.019 A 
HETATM    5  C8  UNL     1      23.905  -0.320  53.724  1.00  0.00    -0.012 A 
HETATM    6  C16 UNL     1      25.085  -0.530  54.438  1.00  0.00     0.106 A 
ENDROOT
BRANCH   5   7
HETATM    7  C9  UNL     1      22.680  -1.109  54.044  1.00  0.00     0.121 C 
BRANCH   7   8
HETATM    8  S1  UNL     1      21.283  -0.044  54.497  1.00  0.00    -0.125 SA
BRANCH   8   9
HETATM    9  C10 UNL     1      19.984  -0.190  53.282  1.00  0.00     0.000 A 
HETATM   10  C11 UNL     1      20.289   0.539  52.126  1.00  0.00     0.018 A 
HETATM   11  C12 UNL     1      19.403   0.560  51.048  1.00  0.00     0.001 A 
HETATM   12  C13 UNL     1      18.209  -0.162  51.154  1.00  0.00     0.000 A 
HETATM   13  C14 UNL     1      17.921  -0.876  52.304  1.00  0.00     0.001 A 
HETATM   14  C15 UNL     1      18.797  -0.896  53.369  1.00  0.00     0.018 A 
ENDBRANCH   8   9
ENDBRANCH   7   8
ENDBRANCH   5   7
BRANCH   6  15
HETATM   15  O2  UNL     1      25.019  -1.511  55.444  1.00  0.00    -0.357 OA
HETATM   16  H17 UNL     1      25.566  -1.392  56.305  1.00  0.00     0.217 HD
ENDBRANCH   6  15
BRANCH   3  17
HETATM   17  C6  UNL     1      25.049   2.364  51.373  1.00  0.00     0.153 C 
HETATM   18 CL1  UNL     1      23.480   2.262  50.543  1.00  0.00    -0.126 Cl
ENDBRANCH   3  17
BRANCH   1  19
HETATM   19  O1  UNL     1      27.324  -0.165  54.991  1.00  0.00    -0.349 OA
BRANCH  19  20
HETATM   20  C2  UNL     1      28.639   0.208  54.670  1.00  0.00     0.171 C 
HETATM   21  C1  UNL     1      29.397  -0.766  53.835  1.00  0.00     0.034 C 
ENDBRANCH  19  20
ENDBRANCH   1  19
TORSDOF 7
ENDMDL
MODEL 2
REMARK VINA RESULT:      -7.1      3.035      5.945
REMARK  7 active torsions:
REMARK  status: ('A' for Active; 'I' for Inactive)
REMARK    1  A    between atoms: C2_2  and  O1_3 
REMARK    2  A    between atoms: O1_3  and  C3_4 
REMARK    3  A    between atoms: C5_6  and  C6_7 
REMARK    4  A    between atoms: C8_10  and  C9_11 
REMARK    5  A    between atoms: C9_11  and  S1_12 
REMARK    6  A    between atoms: S1_12  and  C10_13 
REMARK    7  A    between atoms: C16_19  and  O2_20 
ROOT
HETATM    1  C3  UNL     1      26.035   0.367  54.126  1.00  0.00     0.102 A 
HETATM    2  C4  UNL     1      24.978  -0.503  53.982  1.00  0.00     0.048 A 
HETATM    3  C5  UNL     1      23.783  -0.114  53.444  1.00  0.00    -0.041 A 
HETATM    4  C7  UNL     1      23.566   1.197  53.010  1.00  0.00     0.019 A 
HETATM    5  C8  UNL     1      24.603   2.097  53.140  1.00  0.00    -0.012 A 
HETATM    6  C16 UNL     1      25.816   1.680  53.691  1.00  0.00     0.106 A 
ENDROOT
BRANCH   5   7
HETATM    7  C9  UNL     1      24.424   3.508  52.691  1.00  0.00     0.121 C 
BRANCH   7   8
HETATM    8  S1  UNL     1      23.930   3.612  50.949  1.00  0.00    -0.125 SA
BRANCH   8   9
HETATM    9  C10 UNL     1      25.124   4.569  50.031  1.00  0.00     0.000 A 
HETATM   10  C11 UNL     1      26.244   3.797  49.702  1.00  0.00     0.018 A 
HETATM   11  C12 UNL     1      27.301   4.355  48.981  1.00  0.00     0.001 A 
HETATM   12  C13 UNL     1      27.210   5.698  48.599  1.00  0.00     0.000 A 
HETATM   13  C14 UNL     1      26.096   6.448  48.933  1.00  0.00     0.001 A 
HETATM   14  C15 UNL     1      25.052   5.895  49.645  1.00  0.00     0.018 A 
ENDBRANCH   8   9
ENDBRANCH   7   8
ENDBRANCH   5   7
BRANCH   6  15
HETATM   15  O2  UNL     1      26.812   2.669  53.781  1.00  0.00    -0.357 OA
HETATM   16  H17 UNL     1      27.461   2.663  54.577  1.00  0.00     0.217 HD
ENDBRANCH   6  15
BRANCH   3  17
HETATM   17  C6  UNL     1      22.682  -1.116  53.322  1.00  0.00     0.153 C 
HETATM   18 CL1  UNL     1      21.702  -1.008  54.801  1.00  0.00    -0.126 Cl
ENDBRANCH   3  17
BRANCH   1  19
HETATM   19  O1  UNL     1      27.300   0.149  54.641  1.00  0.00    -0.349 OA
BRANCH  19  20
HETATM   20  C2  UNL     1      28.296  -0.482  53.880  1.00  0.00     0.171 C 
HETATM   21  C1  UNL     1      29.557   0.294  53.703  1.00  0.00     0.034 C 
ENDBRANCH  19  20
ENDBRANCH   1  19
TORSDOF 7
ENDMDL
MODEL 3
REMARK VINA RESULT:      -6.7      3.968      6.945
REMARK  7 active torsions:
REMARK  status: ('A' for Active; 'I' for Inactive)
REMARK    1  A    between atoms: C2_2  and  O1_3 
REMARK    2  A    between atoms: O1_3  and  C3_4 
REMARK    3  A    between atoms: C5_6  and  C6_7 
REMARK    4  A    between atoms: C8_10  and  C9_11 
REMARK    5  A    between atoms: C9_11  and  S1_12 
REMARK    6  A    between atoms: S1_12  and  C10_13 
REMARK    7  A    between atoms: C16_19  and  O2_20 
ROOT
HETATM    1  C3  UNL     1      26.660   1.373  53.662  1.00  0.00     0.102 A 
HETATM    2  C4  UNL     1      25.394   0.832  53.648  1.00  0.00     0.048 A 
HETATM    3  C5  UNL     1      24.533   1.021  52.603  1.00  0.00    -0.041 A 
HETATM    4  C7  UNL     1      24.892   1.780  51.485  1.00  0.00     0.019 A 
HETATM    5  C8  UNL     1      26.153   2.339  51.466  1.00  0.00    -0.012 A 
HETATM    6  C16 UNL     1      27.017   2.134  52.541  1.00  0.00     0.106 A 
ENDROOT
BRANCH   5   7
HETATM    7  C9  UNL     1      26.585   3.157  50.296  1.00  0.00     0.121 C 
BRANCH   7   8
HETATM    8  S1  UNL     1      25.384   4.452  49.888  1.00  0.00    -0.125 SA
BRANCH   8   9
HETATM    9  C10 UNL     1      26.159   5.716  48.893  1.00  0.00     0.000 A 
HETATM   10  C11 UNL     1      25.219   6.651  48.444  1.00  0.00     0.018 A 
HETATM   11  C12 UNL     1      25.617   7.726  47.647  1.00  0.00     0.001 A 
HETATM   12  C13 UNL     1      26.971   7.842  47.312  1.00  0.00     0.000 A 
HETATM   13  C14 UNL     1      27.887   6.907  47.764  1.00  0.00     0.001 A 
HETATM   14  C15 UNL     1      27.493   5.845  48.551  1.00  0.00     0.018 A 
ENDBRANCH   8   9
ENDBRANCH   7   8
ENDBRANCH   5   7
BRANCH   6  15
HETATM   15  O2  UNL     1      28.280   2.743  52.429  1.00  0.00    -0.357 OA
HETATM   16  H17 UNL     1      28.539   3.498  53.075  1.00  0.00     0.217 HD
ENDBRANCH   6  15
BRANCH   3  17
HETATM   17  C6  UNL     1      23.175   0.403  52.661  1.00  0.00     0.153 C 
HETATM   18 CL1  UNL     1      23.096  -0.561  54.152  1.00  0.00    -0.126 Cl
ENDBRANCH   3  17
BRANCH   1  19
HETATM   19  O1  UNL     1      27.652   1.285  54.622  1.00  0.00    -0.349 OA
BRANCH  19  20
HETATM   20  C2  UNL     1      28.324   0.077  54.864  1.00  0.00     0.171 C 
HETATM   21  C1  UNL     1      29.406  -0.260  53.895  1.00  0.00     0.034 C 
ENDBRANCH  19  20
ENDBRANCH   1  19
TORSDOF 7
ENDMDL
MODEL 4
REMARK VINA RESULT:      -6.6      3.152      7.379
REMARK  7 active torsions:
REMARK  status: ('A' for Active; 'I' for Inactive)
REMARK    1  A    between atoms: C2_2  and  O1_3 
REMARK    2  A    between atoms: O1_3  and  C3_4 
REMARK    3  A    between atoms: C5_6  and  C6_7 
REMARK    4  A    between atoms: C8_10  and  C9_11 
REMARK    5  A    between atoms: C9_11  and  S1_12 
REMARK    6  A    between atoms: S1_12  and  C10_13 
REMARK    7  A    between atoms: C16_19  and  O2_20 
ROOT
HETATM    1  C3  UNL     1      21.028   1.555  52.751  1.00  0.00     0.102 A 
HETATM    2  C4  UNL     1      21.008   0.449  53.569  1.00  0.00     0.048 A 
HETATM    3  C5  UNL     1      22.138  -0.267  53.854  1.00  0.00    -0.041 A 
HETATM    4  C7  UNL     1      23.384   0.088  53.325  1.00  0.00     0.019 A 
HETATM    5  C8  UNL     1      23.440   1.191  52.499  1.00  0.00    -0.012 A 
HETATM    6  C16 UNL     1      22.276   1.908  52.222  1.00  0.00     0.106 A 
ENDROOT
BRANCH   5   7
HETATM    7  C9  UNL     1      24.744   1.612  51.910  1.00  0.00     0.121 C 
BRANCH   7   8
HETATM    8  S1  UNL     1      25.995   1.936  53.183  1.00  0.00    -0.125 SA
BRANCH   8   9
HETATM    9  C10 UNL     1      27.192   0.614  53.217  1.00  0.00     0.000 A 
HETATM   10  C11 UNL     1      28.464   1.093  53.550  1.00  0.00     0.018 A 
HETATM   11  C12 UNL     1      29.551   0.220  53.632  1.00  0.00     0.001 A 
HETATM   12  C13 UNL     1      29.334  -1.138  53.374  1.00  0.00     0.000 A 
HETATM   13  C14 UNL     1      28.070  -1.595  53.044  1.00  0.00     0.001 A 
HETATM   14  C15 UNL     1      26.997  -0.732  52.964  1.00  0.00     0.018 A 
ENDBRANCH   8   9
ENDBRANCH   7   8
ENDBRANCH   5   7
BRANCH   6  15
HETATM   15  O2  UNL     1      22.436   3.017  51.371  1.00  0.00    -0.357 OA
HETATM   16  H17 UNL     1      22.805   2.880  50.423  1.00  0.00     0.217 HD
ENDBRANCH   6  15
BRANCH   3  17
HETATM   17  C6  UNL     1      22.037  -1.457  54.749  1.00  0.00     0.153 C 
HETATM   18 CL1  UNL     1      23.509  -1.496  55.746  1.00  0.00    -0.126 Cl
ENDBRANCH   3  17
BRANCH   1  19
HETATM   19  O1  UNL     1      19.995   2.388  52.359  1.00  0.00    -0.349 OA
BRANCH  19  20
HETATM   20  C2  UNL     1      18.890   1.891  51.650  1.00  0.00     0.171 C 
HETATM   21  C1  UNL     1      19.164   1.474  50.245  1.00  0.00     0.034 C 
ENDBRANCH  19  20
ENDBRANCH   1  19
TORSDOF 7
ENDMDL
MODEL 5
REMARK VINA RESULT:      -6.6      3.572      7.143
REMARK  7 active torsions:
REMARK  status: ('A' for Active; 'I' for Inactive)
REMARK    1  A    between atoms: C2_2  and  O1_3 
REMARK    2  A    between atoms: O1_3  and  C3_4 
REMARK    3  A    between atoms: C5_6  and  C6_7 
REMARK    4  A    between atoms: C8_10  and  C9_11 
REMARK    5  A    between atoms: C9_11  and  S1_12 
REMARK    6  A    between atoms: S1_12  and  C10_13 
REMARK    7  A    between atoms: C16_19  and  O2_20 
ROOT
HETATM    1  C3  UNL     1      25.215   3.523  49.785  1.00  0.00     0.102 A 
HETATM    2  C4  UNL     1      23.908   3.234  49.464  1.00  0.00     0.048 A 
HETATM    3  C5  UNL     1      23.127   2.429  50.246  1.00  0.00    -0.041 A 
HETATM    4  C7  UNL     1      23.617   1.849  51.421  1.00  0.00     0.019 A 
HETATM    5  C8  UNL     1      24.923   2.116  51.772  1.00  0.00    -0.012 A 
HETATM    6  C16 UNL     1      25.703   2.941  50.962  1.00  0.00     0.106 A 
ENDROOT
BRANCH   5   7
HETATM    7  C9  UNL     1      25.494   1.523  53.016  1.00  0.00     0.121 C 
BRANCH   7   8
HETATM    8  S1  UNL     1      25.680  -0.277  52.891  1.00  0.00    -0.125 SA
BRANCH   8   9
HETATM    9  C10 UNL     1      27.384  -0.736  53.154  1.00  0.00     0.000 A 
HETATM   10  C11 UNL     1      28.159   0.377  53.500  1.00  0.00     0.018 A 
HETATM   11  C12 UNL     1      29.526   0.238  53.750  1.00  0.00     0.001 A 
HETATM   12  C13 UNL     1      30.095  -1.036  53.645  1.00  0.00     0.000 A 
HETATM   13  C14 UNL     1      29.315  -2.126  53.300  1.00  0.00     0.001 A 
HETATM   14  C15 UNL     1      27.965  -1.987  53.054  1.00  0.00     0.018 A 
ENDBRANCH   8   9
ENDBRANCH   7   8
ENDBRANCH   5   7
BRANCH   6  15
HETATM   15  O2  UNL     1      27.022   3.154  51.404  1.00  0.00    -0.357 OA
HETATM   16  H17 UNL     1      27.378   2.627  52.210  1.00  0.00     0.217 HD
ENDBRANCH   6  15
BRANCH   3  17
HETATM   17  C6  UNL     1      21.718   2.160  49.831  1.00  0.00     0.153 C 
HETATM   18 CL1  UNL     1      21.779   1.302  48.276  1.00  0.00    -0.126 Cl
ENDBRANCH   3  17
BRANCH   1  19
HETATM   19  O1  UNL     1      26.139   4.308  49.120  1.00  0.00    -0.349 OA
BRANCH  19  20
HETATM   20  C2  UNL     1      26.177   5.699  49.303  1.00  0.00     0.171 C 
HETATM   21  C1  UNL     1      25.358   6.496  48.346  1.00  0.00     0.034 C 
ENDBRANCH  19  20
ENDBRANCH   1  19
TORSDOF 7
ENDMDL
MODEL 6
REMARK VINA RESULT:      -6.5      3.298      6.329
REMARK  7 active torsions:
REMARK  status: ('A' for Active; 'I' for Inactive)
REMARK    1  A    between atoms: C2_2  and  O1_3 
REMARK    2  A    between atoms: O1_3  and  C3_4 
REMARK    3  A    between atoms: C5_6  and  C6_7 
REMARK    4  A    between atoms: C8_10  and  C9_11 
REMARK    5  A    between atoms: C9_11  and  S1_12 
REMARK    6  A    between atoms: S1_12  and  C10_13 
REMARK    7  A    between atoms: C16_19  and  O2_20 
ROOT
HETATM    1  C3  UNL     1      24.076   0.893  53.163  1.00  0.00     0.102 A 
HETATM    2  C4  UNL     1      22.961   0.344  52.574  1.00  0.00     0.048 A 
HETATM    3  C5  UNL     1      22.059   1.099  51.876  1.00  0.00    -0.041 A 
HETATM    4  C7  UNL     1      22.221   2.480  51.725  1.00  0.00     0.019 A 
HETATM    5  C8  UNL     1      23.327   3.064  52.304  1.00  0.00    -0.012 A 
HETATM    6  C16 UNL     1      24.236   2.276  53.011  1.00  0.00     0.106 A 
ENDROOT
BRANCH   5   7
HETATM    7  C9  UNL     1      23.547   4.533  52.171  1.00  0.00     0.121 C 
BRANCH   7   8
HETATM    8  S1  UNL     1      23.388   5.094  50.454  1.00  0.00    -0.125 SA
BRANCH   8   9
HETATM    9  C10 UNL     1      24.999   5.201  49.693  1.00  0.00     0.000 A 
HETATM   10  C11 UNL     1      25.699   3.996  49.820  1.00  0.00     0.018 A 
HETATM   11  C12 UNL     1      26.985   3.865  49.293  1.00  0.00     0.001 A 
HETATM   12  C13 UNL     1      27.551   4.964  48.638  1.00  0.00     0.000 A 
HETATM   13  C14 UNL     1      26.846   6.150  48.522  1.00  0.00     0.001 A 
HETATM   14  C15 UNL     1      25.575   6.278  49.044  1.00  0.00     0.018 A 
ENDBRANCH   8   9
ENDBRANCH   7   8
ENDBRANCH   5   7
BRANCH   6  15
HETATM   15  O2  UNL     1      25.333   2.962  53.564  1.00  0.00    -0.357 OA
HETATM   16  H17 UNL     1      26.275   2.565  53.478  1.00  0.00     0.217 HD
ENDBRANCH   6  15
BRANCH   3  17
HETATM   17  C6  UNL     1      20.871   0.431  51.266  1.00  0.00     0.153 C 
HETATM   18 CL1  UNL     1      19.856  -0.164  52.598  1.00  0.00    -0.126 Cl
ENDBRANCH   3  17
BRANCH   1  19
HETATM   19  O1  UNL     1      25.081   0.287  53.896  1.00  0.00    -0.349 OA
BRANCH  19  20
HETATM   20  C2  UNL     1      25.863  -0.741  53.346  1.00  0.00     0.171 C 
HETATM   21  C1  UNL     1      26.724  -0.347  52.195  1.00  0.00     0.034 C 
ENDBRANCH  19  20
ENDBRANCH   1  19
TORSDOF 7
ENDMDL
MODEL 7
REMARK VINA RESULT:      -6.3      3.815      7.153
REMARK  7 active torsions:
REMARK  status: ('A' for Active; 'I' for Inactive)
REMARK    1  A    between atoms: C2_2  and  O1_3 
REMARK    2  A    between atoms: O1_3  and  C3_4 
REMARK    3  A    between atoms: C5_6  and  C6_7 
REMARK    4  A    between atoms: C8_10  and  C9_11 
REMARK    5  A    between atoms: C9_11  and  S1_12 
REMARK    6  A    between atoms: S1_12  and  C10_13 
REMARK    7  A    between atoms: C16_19  and  O2_20 
ROOT
HETATM    1  C3  UNL     1      23.227   0.839  53.106  1.00  0.00     0.102 A 
HETATM    2  C4  UNL     1      24.430   0.175  53.020  1.00  0.00     0.048 A 
HETATM    3  C5  UNL     1      25.548   0.759  52.493  1.00  0.00    -0.041 A 
HETATM    4  C7  UNL     1      25.531   2.070  52.007  1.00  0.00     0.019 A 
HETATM    5  C8  UNL     1      24.342   2.765  52.075  1.00  0.00    -0.012 A 
HETATM    6  C16 UNL     1      23.212   2.152  52.618  1.00  0.00     0.106 A 
ENDROOT
BRANCH   5   7
HETATM    7  C9  UNL     1      24.271   4.167  51.570  1.00  0.00     0.121 C 
BRANCH   7   8
HETATM    8  S1  UNL     1      24.238   4.239  49.759  1.00  0.00    -0.125 SA
BRANCH   8   9
HETATM    9  C10 UNL     1      25.770   4.918  49.145  1.00  0.00     0.000 A 
HETATM   10  C11 UNL     1      25.591   6.225  48.677  1.00  0.00     0.018 A 
HETATM   11  C12 UNL     1      26.668   6.943  48.152  1.00  0.00     0.001 A 
HETATM   12  C13 UNL     1      27.922   6.323  48.107  1.00  0.00     0.000 A 
HETATM   13  C14 UNL     1      28.081   5.029  48.573  1.00  0.00     0.001 A 
HETATM   14  C15 UNL     1      27.017   4.322  49.092  1.00  0.00     0.018 A 
ENDBRANCH   8   9
ENDBRANCH   7   8
ENDBRANCH   5   7
BRANCH   6  15
HETATM   15  O2  UNL     1      22.048   2.941  52.645  1.00  0.00    -0.357 OA
HETATM   16  H17 UNL     1      21.911   3.667  51.931  1.00  0.00     0.217 HD
ENDBRANCH   6  15
BRANCH   3  17
HETATM   17  C6  UNL     1      26.817  -0.026  52.433  1.00  0.00     0.153 C 
HETATM   18 CL1  UNL     1      27.954   0.720  53.577  1.00  0.00    -0.126 Cl
ENDBRANCH   3  17
BRANCH   1  19
HETATM   19  O1  UNL     1      22.010   0.410  53.604  1.00  0.00    -0.349 OA
BRANCH  19  20
HETATM   20  C2  UNL     1      21.934  -0.642  54.530  1.00  0.00     0.171 C 
HETATM   21  C1  UNL     1      20.845  -1.631  54.289  1.00  0.00     0.034 C 
ENDBRANCH  19  20
ENDBRANCH   1  19
TORSDOF 7
ENDMDL
MODEL 8
REMARK VINA RESULT:      -6.3      3.412      7.096
REMARK  7 active torsions:
REMARK  status: ('A' for Active; 'I' for Inactive)
REMARK    1  A    between atoms: C2_2  and  O1_3 
REMARK    2  A    between atoms: O1_3  and  C3_4 
REMARK    3  A    between atoms: C5_6  and  C6_7 
REMARK    4  A    between atoms: C8_10  and  C9_11 
REMARK    5  A    between atoms: C9_11  and  S1_12 
REMARK    6  A    between atoms: S1_12  and  C10_13 
REMARK    7  A    between atoms: C16_19  and  O2_20 
ROOT
HETATM    1  C3  UNL     1      20.927   0.764  53.159  1.00  0.00     0.102 A 
HETATM    2  C4  UNL     1      22.046  -0.025  53.295  1.00  0.00     0.048 A 
HETATM    3  C5  UNL     1      23.302   0.436  53.009  1.00  0.00    -0.041 A 
HETATM    4  C7  UNL     1      23.518   1.743  52.560  1.00  0.00     0.019 A 
HETATM    5  C8  UNL     1      22.418   2.562  52.411  1.00  0.00    -0.012 A 
HETATM    6  C16 UNL     1      21.146   2.072  52.709  1.00  0.00     0.106 A 
ENDROOT
BRANCH   5   7
HETATM    7  C9  UNL     1      22.595   3.964  51.936  1.00  0.00     0.121 C 
BRANCH   7   8
HETATM    8  S1  UNL     1      22.728   4.061  50.130  1.00  0.00    -0.125 SA
BRANCH   8   9
HETATM    9  C10 UNL     1      24.415   4.400  49.657  1.00  0.00     0.000 A 
HETATM   10  C11 UNL     1      25.226   3.274  49.841  1.00  0.00     0.018 A 
HETATM   11  C12 UNL     1      26.587   3.324  49.531  1.00  0.00     0.001 A 
HETATM   12  C13 UNL     1      27.113   4.522  49.036  1.00  0.00     0.000 A 
HETATM   13  C14 UNL     1      26.297   5.627  48.862  1.00  0.00     0.001 A 
HETATM   14  C15 UNL     1      24.953   5.576  49.168  1.00  0.00     0.018 A 
ENDBRANCH   8   9
ENDBRANCH   7   8
ENDBRANCH   5   7
BRANCH   6  15
HETATM   15  O2  UNL     1      20.088   2.982  52.527  1.00  0.00    -0.357 OA
HETATM   16  H17 UNL     1      20.256   3.987  52.657  1.00  0.00     0.217 HD
ENDBRANCH   6  15
BRANCH   3  17
HETATM   17  C6  UNL     1      24.467  -0.480  53.179  1.00  0.00     0.153 C 
HETATM   18 CL1  UNL     1      25.844   0.251  52.324  1.00  0.00    -0.126 Cl
ENDBRANCH   3  17
BRANCH   1  19
HETATM   19  O1  UNL     1      19.597   0.467  53.400  1.00  0.00    -0.349 OA
BRANCH  19  20
HETATM   20  C2  UNL     1      18.884  -0.405  52.563  1.00  0.00     0.171 C 
HETATM   21  C1  UNL     1      18.151  -1.503  53.255  1.00  0.00     0.034 C 
ENDBRANCH  19  20
ENDBRANCH   1  19
TORSDOF 7
ENDMDL
MODEL 9
REMARK VINA RESULT:      -6.2      3.567      5.009
REMARK  7 active torsions:
REMARK  status: ('A' for Active; 'I' for Inactive)
REMARK    1  A    between atoms: C2_2  and  O1_3 
REMARK    2  A    between atoms: O1_3  and  C3_4 
REMARK    3  A    between atoms: C5_6  and  C6_7 
REMARK    4  A    between atoms: C8_10  and  C9_11 
REMARK    5  A    between atoms: C9_11  and  S1_12 
REMARK    6  A    between atoms: S1_12  and  C10_13 
REMARK    7  A    between atoms: C16_19  and  O2_20 
ROOT
HETATM    1  C3  UNL     1      26.106   3.204  50.322  1.00  0.00     0.102 A 
HETATM    2  C4  UNL     1      26.794   2.599  51.349  1.00  0.00     0.048 A 
HETATM    3  C5  UNL     1      26.202   2.300  52.545  1.00  0.00    -0.041 A 
HETATM    4  C7  UNL     1      24.858   2.596  52.792  1.00  0.00     0.019 A 
HETATM    5  C8  UNL     1      24.138   3.204  51.785  1.00  0.00    -0.012 A 
HETATM    6  C16 UNL     1      24.760   3.500  50.571  1.00  0.00     0.106 A 
ENDROOT
BRANCH   5   7
HETATM    7  C9  UNL     1      22.701   3.540  51.997  1.00  0.00     0.121 C 
BRANCH   7   8
HETATM    8  S1  UNL     1      21.601   2.204  51.457  1.00  0.00    -0.125 SA
BRANCH   8   9
HETATM    9  C10 UNL     1      21.675   0.845  52.612  1.00  0.00     0.000 A 
HETATM   10  C11 UNL     1      20.804   1.050  53.688  1.00  0.00     0.018 A 
HETATM   11  C12 UNL     1      20.706   0.103  54.710  1.00  0.00     0.001 A 
HETATM   12  C13 UNL     1      21.498  -1.047  54.629  1.00  0.00     0.000 A 
HETATM   13  C14 UNL     1      22.356  -1.234  53.558  1.00  0.00     0.001 A 
HETATM   14  C15 UNL     1      22.451  -0.298  52.549  1.00  0.00     0.018 A 
ENDBRANCH   8   9
ENDBRANCH   7   8
ENDBRANCH   5   7
BRANCH   6  15
HETATM   15  O2  UNL     1      23.944   4.118  49.607  1.00  0.00    -0.357 OA
HETATM   16  H17 UNL     1      24.336   4.856  49.009  1.00  0.00     0.217 HD
ENDBRANCH   6  15
BRANCH   3  17
HETATM   17  C6  UNL     1      27.014   1.645  53.612  1.00  0.00     0.153 C 
HETATM   18 CL1  UNL     1      28.577   2.488  53.681  1.00  0.00    -0.126 Cl
ENDBRANCH   3  17
BRANCH   1  19
HETATM   19  O1  UNL     1      26.539   3.573  49.060  1.00  0.00    -0.349 OA
BRANCH  19  20
HETATM   20  C2  UNL     1      27.466   4.613  48.886  1.00  0.00     0.171 C 
HETATM   21  C1  UNL     1      26.880   5.957  48.617  1.00  0.00     0.034 C 
ENDBRANCH  19  20
ENDBRANCH   1  19
TORSDOF 7
ENDMDL
