MODEL 1
REMARK VINA RESULT:      -7.9      0.000      0.000
REMARK  3 active torsions:
REMARK  status: ('A' for Active; 'I' for Inactive)
REMARK    1  A    between atoms: C2_2  and  C3_3 
REMARK    2  A    between atoms: C3_3  and  N1_4 
REMARK    3  A    between atoms: C3_3  and  C4_5 
ROOT
HETATM    1  C4  UNL     1      24.781   0.406  53.231  1.00  0.00    -0.034 C 
HETATM    2  C5  UNL     1      24.755   1.700  52.840  1.00  0.00    -0.016 C 
HETATM    3  C6  UNL     1      23.996   2.966  52.912  1.00  0.00     0.068 C 
HETATM    4  C7  UNL     1      23.599   3.390  51.548  1.00  0.00    -0.028 A 
HETATM    5  C8  UNL     1      23.832   4.626  50.991  1.00  0.00     0.011 A 
HETATM    6  C9  UNL     1      23.434   4.993  49.723  1.00  0.00     0.020 A 
HETATM    7  C10 UNL     1      22.760   4.096  48.928  1.00  0.00     0.013 A 
HETATM    8 BR1  UNL     1      22.270   4.713  47.219  1.00  0.00    -0.051 Br
HETATM    9  C11 UNL     1      22.510   2.827  49.471  1.00  0.00     0.049 A 
HETATM   10  C12 UNL     1      22.925   2.480  50.764  1.00  0.00     0.041 A 
HETATM   11  N2  UNL     1      22.526   1.139  50.955  1.00  0.00    -0.340 N 
HETATM   12  C13 UNL     1      22.183   0.673  52.198  1.00  0.00     0.135 C 
HETATM   13  N3  UNL     1      21.168   1.091  52.838  1.00  0.00    -0.225 NA
HETATM   14  C14 UNL     1      20.861   0.521  54.141  1.00  0.00     0.229 C 
HETATM   15  N4  UNL     1      21.472  -0.464  54.857  1.00  0.00    -0.272 NA
HETATM   16  C15 UNL     1      22.630  -1.080  54.196  1.00  0.00     0.162 A 
HETATM   17  C16 UNL     1      23.991  -0.602  54.031  1.00  0.00     0.059 A 
HETATM   18  C17 UNL     1      22.888  -0.088  53.179  1.00  0.00     0.009 A 
HETATM   19  H15 UNL     1      22.374   0.286  50.424  1.00  0.00     0.167 HD
ENDROOT
BRANCH   1  20
HETATM   20  C3  UNL     1      25.962  -0.433  52.766  1.00  0.00     0.247 C 
BRANCH  20  21
HETATM   21  C2  UNL     1      27.045   0.565  52.398  1.00  0.00     0.035 C 
HETATM   22  C1  UNL     1      28.207   0.269  53.356  1.00  0.00     0.007 C 
ENDBRANCH  20  21
BRANCH  20  23
HETATM   23  N1  UNL     1      26.427  -1.275  53.833  1.00  0.00     0.086 N 
HETATM   24  H7  UNL     1      25.860  -1.191  54.699  1.00  0.00     0.313 HD
HETATM   25  H8  UNL     1      27.435  -1.208  54.027  1.00  0.00     0.313 HD
ENDBRANCH  20  23
ENDBRANCH   1  20
TORSDOF 3
ENDMDL
MODEL 2
REMARK VINA RESULT:      -7.6      1.637      4.022
REMARK  3 active torsions:
REMARK  status: ('A' for Active; 'I' for Inactive)
REMARK    1  A    between atoms: C2_2  and  C3_3 
REMARK    2  A    between atoms: C3_3  and  N1_4 
REMARK    3  A    between atoms: C3_3  and  C4_5 
ROOT
HETATM    1  C4  UNL     1      22.789   0.317  53.089  1.00  0.00    -0.034 C 
HETATM    2  C5  UNL     1      22.506   1.058  51.993  1.00  0.00    -0.016 C 
HETATM    3  C6  UNL     1      23.013   1.515  50.683  1.00  0.00     0.068 C 
HETATM    4  C7  UNL     1      23.096   2.995  50.666  1.00  0.00    -0.028 A 
HETATM    5  C8  UNL     1      22.546   3.820  49.712  1.00  0.00     0.011 A 
HETATM    6  C9  UNL     1      22.655   5.194  49.719  1.00  0.00     0.020 A 
HETATM    7  C10 UNL     1      23.348   5.824  50.726  1.00  0.00     0.013 A 
HETATM    8 BR1  UNL     1      23.428   7.701  50.625  1.00  0.00    -0.051 Br
HETATM    9  C11 UNL     1      23.918   5.006  51.713  1.00  0.00     0.049 A 
HETATM   10  C12 UNL     1      23.792   3.610  51.682  1.00  0.00     0.041 A 
HETATM   11  N2  UNL     1      24.464   3.133  52.829  1.00  0.00    -0.340 N 
HETATM   12  C13 UNL     1      25.086   1.911  52.828  1.00  0.00     0.135 C 
HETATM   13  N3  UNL     1      26.095   1.650  52.100  1.00  0.00    -0.225 NA
HETATM   14  C14 UNL     1      26.711   0.334  52.181  1.00  0.00     0.229 C 
HETATM   15  N4  UNL     1      26.423  -0.746  52.959  1.00  0.00    -0.272 NA
HETATM   16  C15 UNL     1      25.310  -0.552  53.898  1.00  0.00     0.162 A 
HETATM   17  C16 UNL     1      23.875  -0.550  53.678  1.00  0.00     0.059 A 
HETATM   18  C17 UNL     1      24.708   0.627  53.322  1.00  0.00     0.009 A 
HETATM   19  H15 UNL     1      24.686   3.417  53.779  1.00  0.00     0.167 HD
ENDROOT
BRANCH   1  20
HETATM   20  C3  UNL     1      21.729   0.260  54.178  1.00  0.00     0.247 C 
BRANCH  20  21
HETATM   21  C2  UNL     1      20.424   0.620  53.489  1.00  0.00     0.035 C 
HETATM   22  C1  UNL     1      19.592  -0.669  53.503  1.00  0.00     0.007 C 
ENDBRANCH  20  21
BRANCH  20  23
HETATM   23  N1  UNL     1      21.636  -1.069  54.715  1.00  0.00     0.086 N 
HETATM   24  H7  UNL     1      21.334  -1.774  54.014  1.00  0.00     0.313 HD
HETATM   25  H8  UNL     1      21.101  -1.145  55.590  1.00  0.00     0.313 HD
ENDBRANCH  20  23
ENDBRANCH   1  20
TORSDOF 3
ENDMDL
MODEL 3
REMARK VINA RESULT:      -7.5      3.519      5.863
REMARK  3 active torsions:
REMARK  status: ('A' for Active; 'I' for Inactive)
REMARK    1  A    between atoms: C2_2  and  C3_3 
REMARK    2  A    between atoms: C3_3  and  N1_4 
REMARK    3  A    between atoms: C3_3  and  C4_5 
ROOT
HETATM    1  C4  UNL     1      24.706   4.353  49.463  1.00  0.00    -0.034 C 
HETATM    2  C5  UNL     1      23.885   3.278  49.439  1.00  0.00    -0.016 C 
HETATM    3  C6  UNL     1      22.476   2.836  49.505  1.00  0.00     0.068 C 
HETATM    4  C7  UNL     1      22.286   1.940  50.669  1.00  0.00    -0.028 A 
HETATM    5  C8  UNL     1      21.721   0.686  50.635  1.00  0.00     0.011 A 
HETATM    6  C9  UNL     1      21.545  -0.117  51.742  1.00  0.00     0.020 A 
HETATM    7  C10 UNL     1      21.948   0.323  52.981  1.00  0.00     0.013 A 
HETATM    8 BR1  UNL     1      21.655  -0.861  54.414  1.00  0.00    -0.051 Br
HETATM    9  C11 UNL     1      22.529   1.598  53.044  1.00  0.00     0.049 A 
HETATM   10  C12 UNL     1      22.695   2.394  51.903  1.00  0.00     0.041 A 
HETATM   11  N2  UNL     1      23.325   3.580  52.343  1.00  0.00    -0.340 N 
HETATM   12  C13 UNL     1      23.090   4.779  51.720  1.00  0.00     0.135 C 
HETATM   13  N3  UNL     1      21.955   5.351  51.725  1.00  0.00    -0.225 NA
HETATM   14  C14 UNL     1      21.801   6.636  51.061  1.00  0.00     0.229 C 
HETATM   15  N4  UNL     1      22.702   7.424  50.410  1.00  0.00    -0.272 NA
HETATM   16  C15 UNL     1      24.075   6.905  50.388  1.00  0.00     0.162 A 
HETATM   17  C16 UNL     1      24.678   5.857  49.583  1.00  0.00     0.059 A 
HETATM   18  C17 UNL     1      23.822   5.530  50.753  1.00  0.00     0.009 A 
HETATM   19  H15 UNL     1      23.968   3.904  53.060  1.00  0.00     0.167 HD
ENDROOT
BRANCH   1  20
HETATM   20  C3  UNL     1      26.198   4.085  49.336  1.00  0.00     0.247 C 
BRANCH  20  21
HETATM   21  C2  UNL     1      26.798   5.384  48.827  1.00  0.00     0.035 C 
HETATM   22  C1  UNL     1      28.253   5.044  48.473  1.00  0.00     0.007 C 
ENDBRANCH  20  21
BRANCH  20  23
HETATM   23  N1  UNL     1      26.760   3.768  50.619  1.00  0.00     0.086 N 
HETATM   24  H7  UNL     1      27.563   3.112  50.564  1.00  0.00     0.313 HD
HETATM   25  H8  UNL     1      26.076   3.476  51.330  1.00  0.00     0.313 HD
ENDBRANCH  20  23
ENDBRANCH   1  20
TORSDOF 3
ENDMDL
MODEL 4
REMARK VINA RESULT:      -7.1      1.930      2.648
REMARK  3 active torsions:
REMARK  status: ('A' for Active; 'I' for Inactive)
REMARK    1  A    between atoms: C2_2  and  C3_3 
REMARK    2  A    between atoms: C3_3  and  N1_4 
REMARK    3  A    between atoms: C3_3  and  C4_5 
ROOT
HETATM    1  C4  UNL     1      24.185   2.080  53.006  1.00  0.00    -0.034 C 
HETATM    2  C5  UNL     1      24.191   3.428  52.890  1.00  0.00    -0.016 C 
HETATM    3  C6  UNL     1      23.363   4.616  52.595  1.00  0.00     0.068 C 
HETATM    4  C7  UNL     1      23.905   5.322  51.410  1.00  0.00    -0.028 A 
HETATM    5  C8  UNL     1      24.219   6.660  51.346  1.00  0.00     0.011 A 
HETATM    6  C9  UNL     1      24.707   7.289  50.220  1.00  0.00     0.020 A 
HETATM    7  C10 UNL     1      24.910   6.570  49.065  1.00  0.00     0.013 A 
HETATM    8 BR1  UNL     1      25.579   7.539  47.597  1.00  0.00    -0.051 Br
HETATM    9  C11 UNL     1      24.599   5.203  49.104  1.00  0.00     0.049 A 
HETATM   10  C12 UNL     1      24.103   4.589  50.262  1.00  0.00     0.041 A 
HETATM   11  N2  UNL     1      23.931   3.225  49.935  1.00  0.00    -0.340 N 
HETATM   12  C13 UNL     1      22.940   2.478  50.520  1.00  0.00     0.135 C 
HETATM   13  N3  UNL     1      21.703   2.703  50.335  1.00  0.00    -0.225 NA
HETATM   14  C14 UNL     1      20.718   1.843  50.973  1.00  0.00     0.229 C 
HETATM   15  N4  UNL     1      20.864   0.744  51.765  1.00  0.00    -0.272 NA
HETATM   16  C15 UNL     1      22.254   0.336  52.006  1.00  0.00     0.162 A 
HETATM   17  C16 UNL     1      23.263   0.890  52.891  1.00  0.00     0.059 A 
HETATM   18  C17 UNL     1      22.937   1.542  51.597  1.00  0.00     0.009 A 
HETATM   19  H15 UNL     1      24.328   2.509  49.334  1.00  0.00     0.167 HD
ENDROOT
BRANCH   1  20
HETATM   20  C3  UNL     1      25.502   1.412  53.371  1.00  0.00     0.247 C 
BRANCH  20  21
HETATM   21  C2  UNL     1      26.083   0.924  52.056  1.00  0.00     0.035 C 
HETATM   22  C1  UNL     1      27.128  -0.131  52.444  1.00  0.00     0.007 C 
ENDBRANCH  20  21
BRANCH  20  23
HETATM   23  N1  UNL     1      26.397   2.364  53.967  1.00  0.00     0.086 N 
HETATM   24  H7  UNL     1      26.151   3.349  53.749  1.00  0.00     0.313 HD
HETATM   25  H8  UNL     1      27.395   2.174  53.811  1.00  0.00     0.313 HD
ENDBRANCH  20  23
ENDBRANCH   1  20
TORSDOF 3
ENDMDL
MODEL 5
REMARK VINA RESULT:      -6.9      6.839      9.292
REMARK  3 active torsions:
REMARK  status: ('A' for Active; 'I' for Inactive)
REMARK    1  A    between atoms: C2_2  and  C3_3 
REMARK    2  A    between atoms: C3_3  and  N1_4 
REMARK    3  A    between atoms: C3_3  and  C4_5 
ROOT
HETATM    1  C4  UNL     1      29.272   7.654  48.348  1.00  0.00    -0.034 C 
HETATM    2  C5  UNL     1      28.061   7.184  47.968  1.00  0.00    -0.016 C 
HETATM    3  C6  UNL     1      26.707   7.566  47.517  1.00  0.00     0.068 C 
HETATM    4  C7  UNL     1      25.698   7.065  48.479  1.00  0.00    -0.028 A 
HETATM    5  C8  UNL     1      24.594   6.307  48.164  1.00  0.00     0.011 A 
HETATM    6  C9  UNL     1      23.665   5.869  49.084  1.00  0.00     0.020 A 
HETATM    7  C10 UNL     1      23.814   6.185  50.414  1.00  0.00     0.013 A 
HETATM    8 BR1  UNL     1      22.482   5.531  51.572  1.00  0.00    -0.051 Br
HETATM    9  C11 UNL     1      24.932   6.956  50.763  1.00  0.00     0.049 A 
HETATM   10  C12 UNL     1      25.861   7.389  49.807  1.00  0.00     0.041 A 
HETATM   11  N2  UNL     1      26.847   8.108  50.520  1.00  0.00    -0.340 N 
HETATM   12  C13 UNL     1      27.514   9.157  49.941  1.00  0.00     0.135 C 
HETATM   13  N3  UNL     1      26.939  10.238  49.599  1.00  0.00    -0.225 NA
HETATM   14  C14 UNL     1      27.728  11.312  49.015  1.00  0.00     0.229 C 
HETATM   15  N4  UNL     1      29.064  11.413  48.769  1.00  0.00    -0.272 NA
HETATM   16  C15 UNL     1      29.858  10.248  49.181  1.00  0.00     0.162 A 
HETATM   17  C16 UNL     1      30.023   8.947  48.558  1.00  0.00     0.059 A 
HETATM   18  C17 UNL     1      28.802   9.276  49.338  1.00  0.00     0.009 A 
HETATM   19  H15 UNL     1      27.289   8.131  51.434  1.00  0.00     0.167 HD
ENDROOT
BRANCH   1  20
HETATM   20  C3  UNL     1      30.328   6.624  48.719  1.00  0.00     0.247 C 
BRANCH  20  21
HETATM   21  C2  UNL     1      29.978   5.382  47.920  1.00  0.00     0.035 C 
HETATM   22  C1  UNL     1      31.326   4.767  47.520  1.00  0.00     0.007 C 
ENDBRANCH  20  21
BRANCH  20  23
HETATM   23  N1  UNL     1      31.633   7.087  48.339  1.00  0.00     0.086 N 
HETATM   24  H7  UNL     1      31.609   7.836  47.620  1.00  0.00     0.313 HD
HETATM   25  H8  UNL     1      32.301   6.345  48.096  1.00  0.00     0.313 HD
ENDBRANCH  20  23
ENDBRANCH   1  20
TORSDOF 3
ENDMDL
MODEL 6
REMARK VINA RESULT:      -6.9      1.702      2.130
REMARK  3 active torsions:
REMARK  status: ('A' for Active; 'I' for Inactive)
REMARK    1  A    between atoms: C2_2  and  C3_3 
REMARK    2  A    between atoms: C3_3  and  N1_4 
REMARK    3  A    between atoms: C3_3  and  C4_5 
ROOT
HETATM    1  C4  UNL     1      23.277   1.750  52.926  1.00  0.00    -0.034 C 
HETATM    2  C5  UNL     1      22.848   2.835  52.240  1.00  0.00    -0.016 C 
HETATM    3  C6  UNL     1      21.656   3.550  51.740  1.00  0.00     0.068 C 
HETATM    4  C7  UNL     1      21.712   3.645  50.262  1.00  0.00    -0.028 A 
HETATM    5  C8  UNL     1      21.584   4.800  49.525  1.00  0.00     0.011 A 
HETATM    6  C9  UNL     1      21.626   4.850  48.148  1.00  0.00     0.020 A 
HETATM    7  C10 UNL     1      21.808   3.695  47.424  1.00  0.00     0.013 A 
HETATM    8 BR1  UNL     1      21.847   3.892  45.552  1.00  0.00    -0.051 Br
HETATM    9  C11 UNL     1      21.943   2.503  48.150  1.00  0.00     0.049 A 
HETATM   10  C12 UNL     1      21.896   2.480  49.551  1.00  0.00     0.041 A 
HETATM   11  N2  UNL     1      22.088   1.131  49.925  1.00  0.00    -0.340 N 
HETATM   12  C13 UNL     1      21.508   0.623  51.059  1.00  0.00     0.135 C 
HETATM   13  N3  UNL     1      20.250   0.508  51.201  1.00  0.00    -0.225 NA
HETATM   14  C14 UNL     1      19.720  -0.068  52.427  1.00  0.00     0.229 C 
HETATM   15  N4  UNL     1      20.347  -0.575  53.526  1.00  0.00    -0.272 NA
HETATM   16  C15 UNL     1      21.815  -0.561  53.460  1.00  0.00     0.162 A 
HETATM   17  C16 UNL     1      22.760   0.526  53.642  1.00  0.00     0.059 A 
HETATM   18  C17 UNL     1      22.002   0.372  52.374  1.00  0.00     0.009 A 
HETATM   19  H15 UNL     1      22.559   0.291  49.604  1.00  0.00     0.167 HD
ENDROOT
BRANCH   1  20
HETATM   20  C3  UNL     1      24.780   1.594  53.103  1.00  0.00     0.247 C 
BRANCH  20  21
HETATM   21  C2  UNL     1      25.325   1.343  51.708  1.00  0.00     0.035 C 
HETATM   22  C1  UNL     1      26.456   0.322  51.895  1.00  0.00     0.007 C 
ENDBRANCH  20  21
BRANCH  20  23
HETATM   23  N1  UNL     1      25.349   2.803  53.629  1.00  0.00     0.086 N 
HETATM   24  H7  UNL     1      25.698   3.447  52.893  1.00  0.00     0.313 HD
HETATM   25  H8  UNL     1      26.043   2.664  54.376  1.00  0.00     0.313 HD
ENDBRANCH  20  23
ENDBRANCH   1  20
TORSDOF 3
ENDMDL
MODEL 7
REMARK VINA RESULT:      -6.7      2.928      3.806
REMARK  3 active torsions:
REMARK  status: ('A' for Active; 'I' for Inactive)
REMARK    1  A    between atoms: C2_2  and  C3_3 
REMARK    2  A    between atoms: C3_3  and  N1_4 
REMARK    3  A    between atoms: C3_3  and  C4_5 
ROOT
HETATM    1  C4  UNL     1      23.225   1.873  52.308  1.00  0.00    -0.034 C 
HETATM    2  C5  UNL     1      22.106   2.628  52.226  1.00  0.00    -0.016 C 
HETATM    3  C6  UNL     1      20.770   2.872  52.808  1.00  0.00     0.068 C 
HETATM    4  C7  UNL     1      19.728   2.661  51.776  1.00  0.00    -0.028 A 
HETATM    5  C8  UNL     1      18.735   3.553  51.441  1.00  0.00     0.011 A 
HETATM    6  C9  UNL     1      17.771   3.318  50.485  1.00  0.00     0.020 A 
HETATM    7  C10 UNL     1      17.763   2.129  49.794  1.00  0.00     0.013 A 
HETATM    8 BR1  UNL     1      16.397   1.925  48.515  1.00  0.00    -0.051 Br
HETATM    9  C11 UNL     1      18.764   1.201  50.115  1.00  0.00     0.049 A 
HETATM   10  C12 UNL     1      19.733   1.465  51.093  1.00  0.00     0.041 A 
HETATM   11  N2  UNL     1      20.575   0.330  51.124  1.00  0.00    -0.340 N 
HETATM   12  C13 UNL     1      21.189  -0.062  52.285  1.00  0.00     0.135 C 
HETATM   13  N3  UNL     1      20.548  -0.480  53.300  1.00  0.00    -0.225 NA
HETATM   14  C14 UNL     1      21.282  -0.903  54.483  1.00  0.00     0.229 C 
HETATM   15  N4  UNL     1      22.620  -0.975  54.732  1.00  0.00    -0.272 NA
HETATM   16  C15 UNL     1      23.479  -0.579  53.609  1.00  0.00     0.162 A 
HETATM   17  C16 UNL     1      23.825   0.736  53.100  1.00  0.00     0.059 A 
HETATM   18  C17 UNL     1      22.511   0.116  52.793  1.00  0.00     0.009 A 
HETATM   19  H15 UNL     1      20.925  -0.400  50.511  1.00  0.00     0.167 HD
ENDROOT
BRANCH   1  20
HETATM   20  C3  UNL     1      24.335   2.170  51.312  1.00  0.00     0.247 C 
BRANCH  20  21
HETATM   21  C2  UNL     1      23.642   2.786  50.109  1.00  0.00     0.035 C 
HETATM   22  C1  UNL     1      24.708   3.661  49.435  1.00  0.00     0.007 C 
ENDBRANCH  20  21
BRANCH  20  23
HETATM   23  N1  UNL     1      25.264   3.115  51.866  1.00  0.00     0.086 N 
HETATM   24  H7  UNL     1      25.841   2.720  52.634  1.00  0.00     0.313 HD
HETATM   25  H8  UNL     1      24.855   4.023  52.122  1.00  0.00     0.313 HD
ENDBRANCH  20  23
ENDBRANCH   1  20
TORSDOF 3
ENDMDL
MODEL 8
REMARK VINA RESULT:      -6.7      3.163      4.968
REMARK  3 active torsions:
REMARK  status: ('A' for Active; 'I' for Inactive)
REMARK    1  A    between atoms: C2_2  and  C3_3 
REMARK    2  A    between atoms: C3_3  and  N1_4 
REMARK    3  A    between atoms: C3_3  and  C4_5 
ROOT
HETATM    1  C4  UNL     1      22.990   0.939  52.000  1.00  0.00    -0.034 C 
HETATM    2  C5  UNL     1      21.777   0.637  51.482  1.00  0.00    -0.016 C 
HETATM    3  C6  UNL     1      20.916   0.747  50.286  1.00  0.00     0.068 C 
HETATM    4  C7  UNL     1      19.684   1.499  50.623  1.00  0.00    -0.028 A 
HETATM    5  C8  UNL     1      18.396   1.080  50.385  1.00  0.00     0.011 A 
HETATM    6  C9  UNL     1      17.271   1.813  50.698  1.00  0.00     0.020 A 
HETATM    7  C10 UNL     1      17.398   3.048  51.289  1.00  0.00     0.013 A 
HETATM    8 BR1  UNL     1      15.792   3.952  51.668  1.00  0.00    -0.051 Br
HETATM    9  C11 UNL     1      18.701   3.500  51.544  1.00  0.00     0.049 A 
HETATM   10  C12 UNL     1      19.828   2.734  51.215  1.00  0.00     0.041 A 
HETATM   11  N2  UNL     1      20.947   3.488  51.634  1.00  0.00    -0.340 N 
HETATM   12  C13 UNL     1      22.143   3.410  50.967  1.00  0.00     0.135 C 
HETATM   13  N3  UNL     1      22.294   3.806  49.769  1.00  0.00    -0.225 NA
HETATM   14  C14 UNL     1      23.605   3.711  49.146  1.00  0.00     0.229 C 
HETATM   15  N4  UNL     1      24.801   3.277  49.632  1.00  0.00    -0.272 NA
HETATM   16  C15 UNL     1      24.777   2.848  51.037  1.00  0.00     0.162 A 
HETATM   17  C16 UNL     1      24.288   1.623  51.644  1.00  0.00     0.059 A 
HETATM   18  C17 UNL     1      23.353   2.699  51.223  1.00  0.00     0.009 A 
HETATM   19  H15 UNL     1      21.212   4.165  52.343  1.00  0.00     0.167 HD
ENDROOT
BRANCH   1  20
HETATM   20  C3  UNL     1      23.262   0.491  53.428  1.00  0.00     0.247 C 
BRANCH  20  21
HETATM   21  C2  UNL     1      21.918   0.040  53.972  1.00  0.00     0.035 C 
HETATM   22  C1  UNL     1      22.200  -1.285  54.693  1.00  0.00     0.007 C 
ENDBRANCH  20  21
BRANCH  20  23
HETATM   23  N1  UNL     1      24.179  -0.614  53.438  1.00  0.00     0.086 N 
HETATM   24  H7  UNL     1      25.104  -0.383  53.027  1.00  0.00     0.313 HD
HETATM   25  H8  UNL     1      23.801  -1.493  53.060  1.00  0.00     0.313 HD
ENDBRANCH  20  23
ENDBRANCH   1  20
TORSDOF 3
ENDMDL
MODEL 9
REMARK VINA RESULT:      -6.6      3.167      6.489
REMARK  3 active torsions:
REMARK  status: ('A' for Active; 'I' for Inactive)
REMARK    1  A    between atoms: C2_2  and  C3_3 
REMARK    2  A    between atoms: C3_3  and  N1_4 
REMARK    3  A    between atoms: C3_3  and  C4_5 
ROOT
HETATM    1  C4  UNL     1      23.893   5.673  49.854  1.00  0.00    -0.034 C 
HETATM    2  C5  UNL     1      24.926   4.849  50.142  1.00  0.00    -0.016 C 
HETATM    3  C6  UNL     1      25.662   3.642  49.711  1.00  0.00     0.068 C 
HETATM    4  C7  UNL     1      25.601   2.612  50.774  1.00  0.00    -0.028 A 
HETATM    5  C8  UNL     1      26.679   1.956  51.322  1.00  0.00     0.011 A 
HETATM    6  C9  UNL     1      26.585   0.990  52.300  1.00  0.00     0.020 A 
HETATM    7  C10 UNL     1      25.352   0.627  52.791  1.00  0.00     0.013 A 
HETATM    8 BR1  UNL     1      25.352  -0.703  54.123  1.00  0.00    -0.051 Br
HETATM    9  C11 UNL     1      24.235   1.280  52.251  1.00  0.00     0.049 A 
HETATM   10  C12 UNL     1      24.360   2.260  51.255  1.00  0.00     0.041 A 
HETATM   11  N2  UNL     1      23.047   2.703  50.979  1.00  0.00    -0.340 N 
HETATM   12  C13 UNL     1      22.696   3.136  49.726  1.00  0.00     0.135 C 
HETATM   13  N3  UNL     1      22.678   2.372  48.710  1.00  0.00    -0.225 NA
HETATM   14  C14 UNL     1      22.266   2.909  47.422  1.00  0.00     0.229 C 
HETATM   15  N4  UNL     1      21.835   4.150  47.062  1.00  0.00    -0.272 NA
HETATM   16  C15 UNL     1      21.748   5.117  48.164  1.00  0.00     0.162 A 
HETATM   17  C16 UNL     1      22.785   5.869  48.848  1.00  0.00     0.059 A 
HETATM   18  C17 UNL     1      22.550   4.434  49.152  1.00  0.00     0.009 A 
HETATM   19  H15 UNL     1      22.149   2.822  51.439  1.00  0.00     0.167 HD
ENDROOT
BRANCH   1  20
HETATM   20  C3  UNL     1      23.659   6.844  50.797  1.00  0.00     0.247 C 
BRANCH  20  21
HETATM   21  C2  UNL     1      23.646   8.077  49.911  1.00  0.00     0.035 C 
HETATM   22  C1  UNL     1      25.070   8.644  49.988  1.00  0.00     0.007 C 
ENDBRANCH  20  21
BRANCH  20  23
HETATM   23  N1  UNL     1      22.389   6.711  51.453  1.00  0.00     0.086 N 
HETATM   24  H7  UNL     1      22.427   6.928  52.468  1.00  0.00     0.313 HD
HETATM   25  H8  UNL     1      21.898   5.826  51.269  1.00  0.00     0.313 HD
ENDBRANCH  20  23
ENDBRANCH   1  20
TORSDOF 3
ENDMDL
