MODEL 1
REMARK VINA RESULT:      -7.8      0.000      0.000
REMARK  5 active torsions:
REMARK  status: ('A' for Active; 'I' for Inactive)
REMARK    1  A    between atoms: C2_2  and  O1_3 
REMARK    2  A    between atoms: O1_3  and  C3_4 
REMARK    3  A    between atoms: C4_5  and  O2_6 
REMARK    4  A    between atoms: C7_9  and  C8_10 
REMARK    5  A    between atoms: C19_26  and  O4_27 
ROOT
HETATM    1  C8  UNL     1      23.489   2.645  52.163  1.00  0.00     0.131 C 
HETATM    2  N1  UNL     1      22.730   2.076  51.306  1.00  0.00    -0.259 NA
HETATM    3  C9  UNL     1      21.580   2.716  50.782  1.00  0.00     0.137 C 
HETATM    4  C10 UNL     1      20.941   3.756  51.629  1.00  0.00     0.168 C 
HETATM    5  N2  UNL     1      22.009   4.624  52.146  1.00  0.00    -0.352 N 
HETATM    6  C11 UNL     1      23.195   3.976  52.662  1.00  0.00     0.270 C 
HETATM    7  O3  UNL     1      23.852   4.618  53.481  1.00  0.00    -0.266 OA
HETATM    8  P1  UNL     1      20.250   1.456  50.310  1.00  0.00     0.008 P 
HETATM    9  N3  UNL     1      21.004   1.122  48.676  1.00  0.00    -0.364 N 
HETATM   10  C12 UNL     1      21.535   2.390  48.302  1.00  0.00     0.040 A 
HETATM   11  C13 UNL     1      21.810   2.947  47.074  1.00  0.00     0.030 A 
HETATM   12  C14 UNL     1      22.324   4.191  46.785  1.00  0.00     0.002 A 
HETATM   13  C15 UNL     1      22.596   4.982  47.911  1.00  0.00     0.001 A 
HETATM   14  C16 UNL     1      22.339   4.475  49.167  1.00  0.00     0.012 A 
HETATM   15  C17 UNL     1      21.823   3.212  49.375  1.00  0.00     0.006 A 
HETATM   16  H10 UNL     1      21.981   5.669  52.176  1.00  0.00     0.162 HD
HETATM   17  H11 UNL     1      18.979   2.134  50.123  1.00  0.00     0.083 HD
HETATM   18  H12 UNL     1      21.108   0.276  48.040  1.00  0.00     0.164 HD
ENDROOT
BRANCH   1  19
HETATM   19  C7  UNL     1      24.650   1.919  52.650  1.00  0.00     0.003 A 
HETATM   20  C6  UNL     1      25.992   2.169  52.486  1.00  0.00     0.053 A 
HETATM   21  C4  UNL     1      26.995   1.401  53.007  1.00  0.00     0.105 A 
HETATM   22  C3  UNL     1      26.733   0.282  53.758  1.00  0.00     0.141 A 
HETATM   23  C19 UNL     1      25.410  -0.024  53.962  1.00  0.00     0.105 A 
HETATM   24  C18 UNL     1      24.436   0.768  53.424  1.00  0.00     0.053 A 
BRANCH  21  25
HETATM   25  O2  UNL     1      28.315   1.750  52.778  1.00  0.00    -0.353 OA
HETATM   26  C5  UNL     1      29.004   2.494  53.758  1.00  0.00     0.210 C 
ENDBRANCH  21  25
BRANCH  22  27
HETATM   27  O1  UNL     1      27.745  -0.498  54.285  1.00  0.00    -0.318 OA
BRANCH  27  28
HETATM   28  C2  UNL     1      28.542  -1.238  53.402  1.00  0.00     0.132 C 
HETATM   29  C1  UNL     1      29.846  -1.503  53.224  1.00  0.00     0.037 C 
ENDBRANCH  27  28
ENDBRANCH  22  27
BRANCH  23  30
HETATM   30  O4  UNL     1      25.084  -1.130  54.707  1.00  0.00    -0.353 OA
HETATM   31  C20 UNL     1      23.920  -1.233  55.499  1.00  0.00     0.210 C 
ENDBRANCH  23  30
ENDBRANCH   1  19
TORSDOF 5
ENDMDL
MODEL 2
REMARK VINA RESULT:      -7.7      2.016      2.559
REMARK  5 active torsions:
REMARK  status: ('A' for Active; 'I' for Inactive)
REMARK    1  A    between atoms: C2_2  and  O1_3 
REMARK    2  A    between atoms: O1_3  and  C3_4 
REMARK    3  A    between atoms: C4_5  and  O2_6 
REMARK    4  A    between atoms: C7_9  and  C8_10 
REMARK    5  A    between atoms: C19_26  and  O4_27 
ROOT
HETATM    1  C8  UNL     1      25.244   3.446  50.763  1.00  0.00     0.131 C 
HETATM    2  N1  UNL     1      24.035   3.755  51.040  1.00  0.00    -0.259 NA
HETATM    3  C9  UNL     1      23.320   4.730  50.301  1.00  0.00     0.137 C 
HETATM    4  C10 UNL     1      24.121   5.781  49.622  1.00  0.00     0.168 C 
HETATM    5  N2  UNL     1      25.240   5.116  48.939  1.00  0.00    -0.352 N 
HETATM    6  C11 UNL     1      25.958   4.102  49.681  1.00  0.00     0.270 C 
HETATM    7  O3  UNL     1      27.115   3.886  49.326  1.00  0.00    -0.266 OA
HETATM    8  P1  UNL     1      22.026   5.592  51.379  1.00  0.00     0.008 P 
HETATM    9  N3  UNL     1      20.789   4.267  51.127  1.00  0.00    -0.364 N 
HETATM   10  C12 UNL     1      21.038   3.843  49.790  1.00  0.00     0.040 A 
HETATM   11  C13 UNL     1      20.234   3.243  48.849  1.00  0.00     0.030 A 
HETATM   12  C14 UNL     1      20.543   2.861  47.564  1.00  0.00     0.002 A 
HETATM   13  C15 UNL     1      21.865   3.133  47.181  1.00  0.00     0.001 A 
HETATM   14  C16 UNL     1      22.717   3.734  48.083  1.00  0.00     0.012 A 
HETATM   15  C17 UNL     1      22.329   4.086  49.360  1.00  0.00     0.006 A 
HETATM   16  H10 UNL     1      25.561   5.315  47.964  1.00  0.00     0.162 HD
HETATM   17  H11 UNL     1      21.572   6.804  50.719  1.00  0.00     0.083 HD
HETATM   18  H12 UNL     1      20.024   3.814  51.711  1.00  0.00     0.164 HD
ENDROOT
BRANCH   1  19
HETATM   19  C7  UNL     1      25.904   2.434  51.569  1.00  0.00     0.003 A 
HETATM   20  C6  UNL     1      27.201   2.358  52.021  1.00  0.00     0.053 A 
HETATM   21  C4  UNL     1      27.699   1.341  52.786  1.00  0.00     0.105 A 
HETATM   22  C3  UNL     1      26.919   0.282  53.177  1.00  0.00     0.141 A 
HETATM   23  C19 UNL     1      25.610   0.296  52.760  1.00  0.00     0.105 A 
HETATM   24  C18 UNL     1      25.150   1.329  51.995  1.00  0.00     0.053 A 
BRANCH  21  25
HETATM   25  O2  UNL     1      29.024   1.370  53.186  1.00  0.00    -0.353 OA
HETATM   26  C5  UNL     1      29.364   2.050  54.374  1.00  0.00     0.210 C 
ENDBRANCH  21  25
BRANCH  22  27
HETATM   27  O1  UNL     1      27.419  -0.749  53.949  1.00  0.00    -0.318 OA
BRANCH  27  28
HETATM   28  C2  UNL     1      28.177  -1.745  53.319  1.00  0.00     0.132 C 
HETATM   29  C1  UNL     1      29.461  -2.137  53.272  1.00  0.00     0.037 C 
ENDBRANCH  27  28
ENDBRANCH  22  27
BRANCH  23  30
HETATM   30  O4  UNL     1      24.780  -0.735  53.120  1.00  0.00    -0.353 OA
HETATM   31  C20 UNL     1      23.393  -0.591  53.342  1.00  0.00     0.210 C 
ENDBRANCH  23  30
ENDBRANCH   1  19
TORSDOF 5
ENDMDL
MODEL 3
REMARK VINA RESULT:      -7.5      0.449      2.383
REMARK  5 active torsions:
REMARK  status: ('A' for Active; 'I' for Inactive)
REMARK    1  A    between atoms: C2_2  and  O1_3 
REMARK    2  A    between atoms: O1_3  and  C3_4 
REMARK    3  A    between atoms: C4_5  and  O2_6 
REMARK    4  A    between atoms: C7_9  and  C8_10 
REMARK    5  A    between atoms: C19_26  and  O4_27 
ROOT
HETATM    1  C8  UNL     1      23.083   2.752  52.187  1.00  0.00     0.131 C 
HETATM    2  N1  UNL     1      22.239   2.259  51.363  1.00  0.00    -0.259 NA
HETATM    3  C9  UNL     1      21.224   3.047  50.767  1.00  0.00     0.137 C 
HETATM    4  C10 UNL     1      20.776   4.248  51.517  1.00  0.00     0.168 C 
HETATM    5  N2  UNL     1      21.977   4.954  51.985  1.00  0.00    -0.352 N 
HETATM    6  C11 UNL     1      23.028   4.151  52.573  1.00  0.00     0.270 C 
HETATM    7  O3  UNL     1      23.784   4.730  53.351  1.00  0.00    -0.266 OA
HETATM    8  P1  UNL     1      19.694   2.007  50.371  1.00  0.00     0.008 P 
HETATM    9  N3  UNL     1      20.386   1.415  48.783  1.00  0.00    -0.364 N 
HETATM   10  C12 UNL     1      21.135   2.535  48.320  1.00  0.00     0.040 A 
HETATM   11  C13 UNL     1      21.511   2.934  47.058  1.00  0.00     0.030 A 
HETATM   12  C14 UNL     1      22.238   4.039  46.682  1.00  0.00     0.002 A 
HETATM   13  C15 UNL     1      22.640   4.858  47.747  1.00  0.00     0.001 A 
HETATM   14  C16 UNL     1      22.291   4.508  49.034  1.00  0.00     0.012 A 
HETATM   15  C17 UNL     1      21.558   3.377  49.331  1.00  0.00     0.006 A 
HETATM   16  H10 UNL     1      22.135   5.986  51.932  1.00  0.00     0.162 HD
HETATM   17  H11 UNL     1      18.565   2.881  50.107  1.00  0.00     0.083 HD
HETATM   18  H12 UNL     1      20.341   0.515  48.217  1.00  0.00     0.164 HD
ENDROOT
BRANCH   1  19
HETATM   19  C7  UNL     1      24.095   1.875  52.751  1.00  0.00     0.003 A 
HETATM   20  C6  UNL     1      23.965   0.741  53.518  1.00  0.00     0.053 A 
HETATM   21  C4  UNL     1      25.011  -0.004  53.986  1.00  0.00     0.105 A 
HETATM   22  C3  UNL     1      26.314   0.331  53.719  1.00  0.00     0.141 A 
HETATM   23  C19 UNL     1      26.515   1.455  52.956  1.00  0.00     0.105 A 
HETATM   24  C18 UNL     1      25.444   2.175  52.507  1.00  0.00     0.053 A 
BRANCH  21  25
HETATM   25  O2  UNL     1      24.761  -1.132  54.750  1.00  0.00    -0.353 OA
HETATM   26  C5  UNL     1      23.489  -1.288  55.339  1.00  0.00     0.210 C 
ENDBRANCH  21  25
BRANCH  22  27
HETATM   27  O1  UNL     1      27.374  -0.419  54.192  1.00  0.00    -0.318 OA
BRANCH  27  28
HETATM   28  C2  UNL     1      28.102  -1.192  53.277  1.00  0.00     0.132 C 
HETATM   29  C1  UNL     1      29.358  -1.646  53.136  1.00  0.00     0.037 C 
ENDBRANCH  27  28
ENDBRANCH  22  27
BRANCH  23  30
HETATM   30  O4  UNL     1      27.796   1.842  52.654  1.00  0.00    -0.353 OA
HETATM   31  C20 UNL     1      28.643   2.536  53.545  1.00  0.00     0.210 C 
ENDBRANCH  23  30
ENDBRANCH   1  19
TORSDOF 5
ENDMDL
MODEL 4
REMARK VINA RESULT:      -7.4      2.254      3.783
REMARK  5 active torsions:
REMARK  status: ('A' for Active; 'I' for Inactive)
REMARK    1  A    between atoms: C2_2  and  O1_3 
REMARK    2  A    between atoms: O1_3  and  C3_4 
REMARK    3  A    between atoms: C4_5  and  O2_6 
REMARK    4  A    between atoms: C7_9  and  C8_10 
REMARK    5  A    between atoms: C19_26  and  O4_27 
ROOT
HETATM    1  C8  UNL     1      21.675   2.701  51.319  1.00  0.00     0.131 C 
HETATM    2  N1  UNL     1      21.953   3.157  50.157  1.00  0.00    -0.259 NA
HETATM    3  C9  UNL     1      21.081   4.033  49.466  1.00  0.00     0.137 C 
HETATM    4  C10 UNL     1      19.637   3.953  49.805  1.00  0.00     0.168 C 
HETATM    5  N2  UNL     1      19.525   3.922  51.270  1.00  0.00    -0.352 N 
HETATM    6  C11 UNL     1      20.430   3.045  51.983  1.00  0.00     0.270 C 
HETATM    7  O3  UNL     1      20.060   2.670  53.094  1.00  0.00    -0.266 OA
HETATM    8  P1  UNL     1      21.249   3.829  47.593  1.00  0.00     0.008 P 
HETATM    9  N3  UNL     1      22.698   4.945  47.501  1.00  0.00    -0.364 N 
HETATM   10  C12 UNL     1      22.421   5.915  48.507  1.00  0.00     0.040 A 
HETATM   11  C13 UNL     1      22.825   7.221  48.663  1.00  0.00     0.030 A 
HETATM   12  C14 UNL     1      22.513   8.109  49.666  1.00  0.00     0.002 A 
HETATM   13  C15 UNL     1      21.664   7.590  50.655  1.00  0.00     0.001 A 
HETATM   14  C16 UNL     1      21.226   6.287  50.550  1.00  0.00     0.012 A 
HETATM   15  C17 UNL     1      21.587   5.456  49.509  1.00  0.00     0.006 A 
HETATM   16  H10 UNL     1      18.846   4.477  51.840  1.00  0.00     0.162 HD
HETATM   17  H11 UNL     1      20.118   4.456  46.930  1.00  0.00     0.083 HD
HETATM   18  H12 UNL     1      23.586   4.998  46.920  1.00  0.00     0.164 HD
ENDROOT
BRANCH   1  19
HETATM   19  C7  UNL     1      22.625   1.808  51.959  1.00  0.00     0.003 A 
HETATM   20  C6  UNL     1      22.430   0.818  52.893  1.00  0.00     0.053 A 
HETATM   21  C4  UNL     1      23.422   0.037  53.417  1.00  0.00     0.105 A 
HETATM   22  C3  UNL     1      24.733   0.185  53.040  1.00  0.00     0.141 A 
HETATM   23  C19 UNL     1      24.998   1.158  52.108  1.00  0.00     0.105 A 
HETATM   24  C18 UNL     1      23.980   1.919  51.609  1.00  0.00     0.053 A 
BRANCH  21  25
HETATM   25  O2  UNL     1      23.107  -0.934  54.353  1.00  0.00    -0.353 OA
HETATM   26  C5  UNL     1      21.753  -1.271  54.557  1.00  0.00     0.210 C 
ENDBRANCH  21  25
BRANCH  22  27
HETATM   27  O1  UNL     1      25.739  -0.601  53.569  1.00  0.00    -0.318 OA
BRANCH  27  28
HETATM   28  C2  UNL     1      26.534  -0.066  54.591  1.00  0.00     0.132 C 
HETATM   29  C1  UNL     1      27.828   0.227  54.795  1.00  0.00     0.037 C 
ENDBRANCH  27  28
ENDBRANCH  22  27
BRANCH  23  30
HETATM   30  O4  UNL     1      26.290   1.353  51.690  1.00  0.00    -0.353 OA
HETATM   31  C20 UNL     1      26.766   2.558  51.129  1.00  0.00     0.210 C 
ENDBRANCH  23  30
ENDBRANCH   1  19
TORSDOF 5
ENDMDL
MODEL 5
REMARK VINA RESULT:      -7.3      8.264     10.316
REMARK  5 active torsions:
REMARK  status: ('A' for Active; 'I' for Inactive)
REMARK    1  A    between atoms: C2_2  and  O1_3 
REMARK    2  A    between atoms: O1_3  and  C3_4 
REMARK    3  A    between atoms: C4_5  and  O2_6 
REMARK    4  A    between atoms: C7_9  and  C8_10 
REMARK    5  A    between atoms: C19_26  and  O4_27 
ROOT
HETATM    1  C8  UNL     1      30.350   6.502  47.801  1.00  0.00     0.131 C 
HETATM    2  N1  UNL     1      30.602   7.154  46.731  1.00  0.00    -0.259 NA
HETATM    3  C9  UNL     1      31.926   7.471  46.339  1.00  0.00     0.137 C 
HETATM    4  C10 UNL     1      32.942   7.573  47.419  1.00  0.00     0.168 C 
HETATM    5  N2  UNL     1      32.769   6.412  48.303  1.00  0.00    -0.352 N 
HETATM    6  C11 UNL     1      31.416   6.070  48.687  1.00  0.00     0.270 C 
HETATM    7  O3  UNL     1      31.291   5.438  49.735  1.00  0.00    -0.266 OA
HETATM    8  P1  UNL     1      31.979   9.076  45.340  1.00  0.00     0.008 P 
HETATM    9  N3  UNL     1      31.550   8.232  43.773  1.00  0.00    -0.364 N 
HETATM   10  C12 UNL     1      32.192   6.967  43.904  1.00  0.00     0.040 A 
HETATM   11  C13 UNL     1      32.649   6.065  42.970  1.00  0.00     0.030 A 
HETATM   12  C14 UNL     1      33.267   4.852  43.170  1.00  0.00     0.002 A 
HETATM   13  C15 UNL     1      33.447   4.509  44.518  1.00  0.00     0.001 A 
HETATM   14  C16 UNL     1      33.009   5.375  45.497  1.00  0.00     0.012 A 
HETATM   15  C17 UNL     1      32.394   6.577  45.214  1.00  0.00     0.006 A 
HETATM   16  H10 UNL     1      33.540   5.815  48.680  1.00  0.00     0.162 HD
HETATM   17  H11 UNL     1      33.347   9.560  45.266  1.00  0.00     0.083 HD
HETATM   18  H12 UNL     1      30.989   8.474  42.903  1.00  0.00     0.164 HD
ENDROOT
BRANCH   1  19
HETATM   19  C7  UNL     1      28.963   6.217  48.128  1.00  0.00     0.003 A 
HETATM   20  C6  UNL     1      28.357   5.039  48.500  1.00  0.00     0.053 A 
HETATM   21  C4  UNL     1      27.028   4.907  48.788  1.00  0.00     0.105 A 
HETATM   22  C3  UNL     1      26.165   5.972  48.728  1.00  0.00     0.141 A 
HETATM   23  C19 UNL     1      26.707   7.180  48.363  1.00  0.00     0.105 A 
HETATM   24  C18 UNL     1      28.040   7.273  48.081  1.00  0.00     0.053 A 
BRANCH  21  25
HETATM   25  O2  UNL     1      26.527   3.669  49.154  1.00  0.00    -0.353 OA
HETATM   26  C5  UNL     1      26.680   3.238  50.488  1.00  0.00     0.210 C 
ENDBRANCH  21  25
BRANCH  22  27
HETATM   27  O1  UNL     1      24.820   5.842  49.017  1.00  0.00    -0.318 OA
BRANCH  27  28
HETATM   28  C2  UNL     1      24.402   6.043  50.339  1.00  0.00     0.132 C 
HETATM   29  C1  UNL     1      24.065   7.075  51.130  1.00  0.00     0.037 C 
ENDBRANCH  27  28
ENDBRANCH  22  27
BRANCH  23  30
HETATM   30  O4  UNL     1      25.895   8.284  48.286  1.00  0.00    -0.353 OA
HETATM   31  C20 UNL     1      26.030   9.422  49.111  1.00  0.00     0.210 C 
ENDBRANCH  23  30
ENDBRANCH   1  19
TORSDOF 5
ENDMDL
MODEL 6
REMARK VINA RESULT:      -7.3      8.059     10.653
REMARK  5 active torsions:
REMARK  status: ('A' for Active; 'I' for Inactive)
REMARK    1  A    between atoms: C2_2  and  O1_3 
REMARK    2  A    between atoms: O1_3  and  C3_4 
REMARK    3  A    between atoms: C4_5  and  O2_6 
REMARK    4  A    between atoms: C7_9  and  C8_10 
REMARK    5  A    between atoms: C19_26  and  O4_27 
ROOT
HETATM    1  C8  UNL     1      30.637   6.904  47.737  1.00  0.00     0.131 C 
HETATM    2  N1  UNL     1      31.168   6.433  46.673  1.00  0.00    -0.259 NA
HETATM    3  C9  UNL     1      32.518   6.695  46.329  1.00  0.00     0.137 C 
HETATM    4  C10 UNL     1      33.116   7.948  46.857  1.00  0.00     0.168 C 
HETATM    5  N2  UNL     1      32.761   8.045  48.280  1.00  0.00    -0.352 N 
HETATM    6  C11 UNL     1      31.390   7.756  48.640  1.00  0.00     0.270 C 
HETATM    7  O3  UNL     1      30.984   8.260  49.686  1.00  0.00    -0.266 OA
HETATM    8  P1  UNL     1      32.760   6.681  44.454  1.00  0.00     0.008 P 
HETATM    9  N3  UNL     1      32.933   4.860  44.389  1.00  0.00    -0.364 N 
HETATM   10  C12 UNL     1      33.598   4.556  45.611  1.00  0.00     0.040 A 
HETATM   11  C13 UNL     1      34.404   3.506  45.985  1.00  0.00     0.030 A 
HETATM   12  C14 UNL     1      35.021   3.276  47.193  1.00  0.00     0.002 A 
HETATM   13  C15 UNL     1      34.782   4.262  48.162  1.00  0.00     0.001 A 
HETATM   14  C16 UNL     1      33.982   5.338  47.844  1.00  0.00     0.012 A 
HETATM   15  C17 UNL     1      33.395   5.496  46.604  1.00  0.00     0.006 A 
HETATM   16  H10 UNL     1      33.414   8.308  49.053  1.00  0.00     0.162 HD
HETATM   17  H11 UNL     1      34.034   7.296  44.122  1.00  0.00     0.083 HD
HETATM   18  H12 UNL     1      32.666   4.091  43.705  1.00  0.00     0.164 HD
ENDROOT
BRANCH   1  19
HETATM   19  C7  UNL     1      29.247   6.585  48.016  1.00  0.00     0.003 A 
HETATM   20  C6  UNL     1      28.656   5.392  48.358  1.00  0.00     0.053 A 
HETATM   21  C4  UNL     1      27.321   5.227  48.601  1.00  0.00     0.105 A 
HETATM   22  C3  UNL     1      26.437   6.274  48.522  1.00  0.00     0.141 A 
HETATM   23  C19 UNL     1      26.964   7.497  48.186  1.00  0.00     0.105 A 
HETATM   24  C18 UNL     1      28.303   7.621  47.948  1.00  0.00     0.053 A 
BRANCH  21  25
HETATM   25  O2  UNL     1      26.836   3.975  48.940  1.00  0.00    -0.353 OA
HETATM   26  C5  UNL     1      26.826   3.592  50.297  1.00  0.00     0.210 C 
ENDBRANCH  21  25
BRANCH  22  27
HETATM   27  O1  UNL     1      25.087   6.111  48.766  1.00  0.00    -0.318 OA
BRANCH  27  28
HETATM   28  C2  UNL     1      24.620   6.303  50.074  1.00  0.00     0.132 C 
HETATM   29  C1  UNL     1      24.319   7.333  50.881  1.00  0.00     0.037 C 
ENDBRANCH  27  28
ENDBRANCH  22  27
BRANCH  23  30
HETATM   30  O4  UNL     1      26.130   8.583  48.092  1.00  0.00    -0.353 OA
HETATM   31  C20 UNL     1      26.272   9.756  48.865  1.00  0.00     0.210 C 
ENDBRANCH  23  30
ENDBRANCH   1  19
TORSDOF 5
ENDMDL
MODEL 7
REMARK VINA RESULT:      -7.3      2.309      2.958
REMARK  5 active torsions:
REMARK  status: ('A' for Active; 'I' for Inactive)
REMARK    1  A    between atoms: C2_2  and  O1_3 
REMARK    2  A    between atoms: O1_3  and  C3_4 
REMARK    3  A    between atoms: C4_5  and  O2_6 
REMARK    4  A    between atoms: C7_9  and  C8_10 
REMARK    5  A    between atoms: C19_26  and  O4_27 
ROOT
HETATM    1  C8  UNL     1      21.846   2.939  51.372  1.00  0.00     0.131 C 
HETATM    2  N1  UNL     1      22.139   3.367  50.203  1.00  0.00    -0.259 NA
HETATM    3  C9  UNL     1      21.234   4.147  49.440  1.00  0.00     0.137 C 
HETATM    4  C10 UNL     1      19.787   3.971  49.726  1.00  0.00     0.168 C 
HETATM    5  N2  UNL     1      19.616   3.991  51.186  1.00  0.00    -0.352 N 
HETATM    6  C11 UNL     1      20.552   3.215  51.971  1.00  0.00     0.270 C 
HETATM    7  O3  UNL     1      20.164   2.858  53.082  1.00  0.00    -0.266 OA
HETATM    8  P1  UNL     1      21.496   3.880  47.586  1.00  0.00     0.008 P 
HETATM    9  N3  UNL     1      22.862   5.097  47.503  1.00  0.00    -0.364 N 
HETATM   10  C12 UNL     1      22.472   6.083  48.453  1.00  0.00     0.040 A 
HETATM   11  C13 UNL     1      22.772   7.421  48.568  1.00  0.00     0.030 A 
HETATM   12  C14 UNL     1      22.353   8.323  49.519  1.00  0.00     0.002 A 
HETATM   13  C15 UNL     1      21.503   7.782  50.495  1.00  0.00     0.001 A 
HETATM   14  C16 UNL     1      21.168   6.447  50.431  1.00  0.00     0.012 A 
HETATM   15  C17 UNL     1      21.633   5.604  49.441  1.00  0.00     0.006 A 
HETATM   16  H10 UNL     1      18.875   4.516  51.704  1.00  0.00     0.162 HD
HETATM   17  H11 UNL     1      20.351   4.392  46.853  1.00  0.00     0.083 HD
HETATM   18  H12 UNL     1      23.768   5.193  46.954  1.00  0.00     0.164 HD
ENDROOT
BRANCH   1  19
HETATM   19  C7  UNL     1      22.831   2.147  52.087  1.00  0.00     0.003 A 
HETATM   20  C6  UNL     1      24.108   2.462  52.490  1.00  0.00     0.053 A 
HETATM   21  C4  UNL     1      24.940   1.616  53.168  1.00  0.00     0.105 A 
HETATM   22  C3  UNL     1      24.554   0.345  53.513  1.00  0.00     0.141 A 
HETATM   23  C19 UNL     1      23.287  -0.034  53.141  1.00  0.00     0.105 A 
HETATM   24  C18 UNL     1      22.486   0.839  52.462  1.00  0.00     0.053 A 
BRANCH  21  25
HETATM   25  O2  UNL     1      26.208   2.043  53.525  1.00  0.00    -0.353 OA
HETATM   26  C5  UNL     1      27.200   2.140  52.528  1.00  0.00     0.210 C 
ENDBRANCH  21  25
BRANCH  22  27
HETATM   27  O1  UNL     1      25.392  -0.514  54.198  1.00  0.00    -0.318 OA
BRANCH  27  28
HETATM   28  C2  UNL     1      26.317  -1.268  53.462  1.00  0.00     0.132 C 
HETATM   29  C1  UNL     1      26.625  -1.480  52.173  1.00  0.00     0.037 C 
ENDBRANCH  27  28
ENDBRANCH  22  27
BRANCH  23  30
HETATM   30  O4  UNL     1      22.843  -1.293  53.458  1.00  0.00    -0.353 OA
HETATM   31  C20 UNL     1      21.727  -1.551  54.284  1.00  0.00     0.210 C 
ENDBRANCH  23  30
ENDBRANCH   1  19
TORSDOF 5
ENDMDL
MODEL 8
REMARK VINA RESULT:      -7.1      8.285     10.774
REMARK  5 active torsions:
REMARK  status: ('A' for Active; 'I' for Inactive)
REMARK    1  A    between atoms: C2_2  and  O1_3 
REMARK    2  A    between atoms: O1_3  and  C3_4 
REMARK    3  A    between atoms: C4_5  and  O2_6 
REMARK    4  A    between atoms: C7_9  and  C8_10 
REMARK    5  A    between atoms: C19_26  and  O4_27 
ROOT
HETATM    1  C8  UNL     1      31.091   7.286  47.889  1.00  0.00     0.131 C 
HETATM    2  N1  UNL     1      31.537   6.831  46.781  1.00  0.00    -0.259 NA
HETATM    3  C9  UNL     1      32.912   6.896  46.442  1.00  0.00     0.137 C 
HETATM    4  C10 UNL     1      33.710   7.979  47.071  1.00  0.00     0.168 C 
HETATM    5  N2  UNL     1      33.375   8.005  48.502  1.00  0.00    -0.352 N 
HETATM    6  C11 UNL     1      31.975   7.916  48.854  1.00  0.00     0.270 C 
HETATM    7  O3  UNL     1      31.658   8.384  49.947  1.00  0.00    -0.266 OA
HETATM    8  P1  UNL     1      33.150   7.012  44.569  1.00  0.00     0.008 P 
HETATM    9  N3  UNL     1      33.017   5.201  44.340  1.00  0.00    -0.364 N 
HETATM   10  C12 UNL     1      33.621   4.682  45.521  1.00  0.00     0.040 A 
HETATM   11  C13 UNL     1      34.241   3.483  45.787  1.00  0.00     0.030 A 
HETATM   12  C14 UNL     1      34.811   3.045  46.961  1.00  0.00     0.002 A 
HETATM   13  C15 UNL     1      34.739   3.966  48.017  1.00  0.00     0.001 A 
HETATM   14  C16 UNL     1      34.129   5.184  47.808  1.00  0.00     0.012 A 
HETATM   15  C17 UNL     1      33.578   5.548  46.596  1.00  0.00     0.006 A 
HETATM   16  H10 UNL     1      34.063   8.085  49.286  1.00  0.00     0.162 HD
HETATM   17  H11 UNL     1      34.509   7.434  44.276  1.00  0.00     0.083 HD
HETATM   18  H12 UNL     1      32.626   4.551  43.594  1.00  0.00     0.164 HD
ENDROOT
BRANCH   1  19
HETATM   19  C7  UNL     1      29.667   7.178  48.159  1.00  0.00     0.003 A 
HETATM   20  C6  UNL     1      28.715   8.155  48.328  1.00  0.00     0.053 A 
HETATM   21  C4  UNL     1      27.392   7.917  48.575  1.00  0.00     0.105 A 
HETATM   22  C3  UNL     1      26.894   6.642  48.678  1.00  0.00     0.141 A 
HETATM   23  C19 UNL     1      27.794   5.617  48.518  1.00  0.00     0.105 A 
HETATM   24  C18 UNL     1      29.109   5.896  48.274  1.00  0.00     0.053 A 
BRANCH  21  25
HETATM   25  O2  UNL     1      26.520   8.982  48.726  1.00  0.00    -0.353 OA
HETATM   26  C5  UNL     1      26.017   9.621  47.573  1.00  0.00     0.210 C 
ENDBRANCH  21  25
BRANCH  22  27
HETATM   27  O1  UNL     1      25.558   6.397  48.929  1.00  0.00    -0.318 OA
BRANCH  27  28
HETATM   28  C2  UNL     1      25.076   6.607  50.228  1.00  0.00     0.132 C 
HETATM   29  C1  UNL     1      24.149   7.367  50.833  1.00  0.00     0.037 C 
ENDBRANCH  27  28
ENDBRANCH  22  27
BRANCH  23  30
HETATM   30  O4  UNL     1      27.356   4.319  48.608  1.00  0.00    -0.353 OA
HETATM   31  C20 UNL     1      26.911   3.718  49.805  1.00  0.00     0.210 C 
ENDBRANCH  23  30
ENDBRANCH   1  19
TORSDOF 5
ENDMDL
MODEL 9
REMARK VINA RESULT:      -7.0      1.849      2.306
REMARK  5 active torsions:
REMARK  status: ('A' for Active; 'I' for Inactive)
REMARK    1  A    between atoms: C2_2  and  O1_3 
REMARK    2  A    between atoms: O1_3  and  C3_4 
REMARK    3  A    between atoms: C4_5  and  O2_6 
REMARK    4  A    between atoms: C7_9  and  C8_10 
REMARK    5  A    between atoms: C19_26  and  O4_27 
ROOT
HETATM    1  C8  UNL     1      22.278   3.332  51.097  1.00  0.00     0.131 C 
HETATM    2  N1  UNL     1      21.421   2.992  50.212  1.00  0.00    -0.259 NA
HETATM    3  C9  UNL     1      20.556   3.934  49.602  1.00  0.00     0.137 C 
HETATM    4  C10 UNL     1      20.236   5.157  50.381  1.00  0.00     0.168 C 
HETATM    5  N2  UNL     1      21.495   5.672  50.939  1.00  0.00    -0.352 N 
HETATM    6  C11 UNL     1      22.392   4.710  51.542  1.00  0.00     0.270 C 
HETATM    7  O3  UNL     1      23.176   5.150  52.382  1.00  0.00    -0.266 OA
HETATM    8  P1  UNL     1      18.924   3.131  49.085  1.00  0.00     0.008 P 
HETATM    9  N3  UNL     1      19.614   2.508  47.508  1.00  0.00    -0.364 N 
HETATM   10  C12 UNL     1      20.533   3.530  47.134  1.00  0.00     0.040 A 
HETATM   11  C13 UNL     1      21.029   3.920  45.911  1.00  0.00     0.030 A 
HETATM   12  C14 UNL     1      21.920   4.927  45.620  1.00  0.00     0.002 A 
HETATM   13  C15 UNL     1      22.370   5.643  46.739  1.00  0.00     0.001 A 
HETATM   14  C16 UNL     1      21.907   5.297  47.990  1.00  0.00     0.012 A 
HETATM   15  C17 UNL     1      21.011   4.268  48.200  1.00  0.00     0.006 A 
HETATM   16  H10 UNL     1      21.795   6.674  50.939  1.00  0.00     0.162 HD
HETATM   17  H11 UNL     1      17.940   4.162  48.804  1.00  0.00     0.083 HD
HETATM   18  H12 UNL     1      19.478   1.645  46.902  1.00  0.00     0.164 HD
ENDROOT
BRANCH   1  19
HETATM   19  C7  UNL     1      23.127   2.303  51.672  1.00  0.00     0.003 A 
HETATM   20  C6  UNL     1      24.486   2.113  51.578  1.00  0.00     0.053 A 
HETATM   21  C4  UNL     1      25.171   1.094  52.179  1.00  0.00     0.105 A 
HETATM   22  C3  UNL     1      24.536   0.150  52.947  1.00  0.00     0.141 A 
HETATM   23  C19 UNL     1      23.176   0.283  53.083  1.00  0.00     0.105 A 
HETATM   24  C18 UNL     1      22.527   1.314  52.466  1.00  0.00     0.053 A 
BRANCH  21  25
HETATM   25  O2  UNL     1      26.543   1.002  52.016  1.00  0.00    -0.353 OA
HETATM   26  C5  UNL     1      27.373   1.929  52.680  1.00  0.00     0.210 C 
ENDBRANCH  21  25
BRANCH  22  27
HETATM   27  O1  UNL     1      25.225  -0.882  53.555  1.00  0.00    -0.318 OA
BRANCH  27  28
HETATM   28  C2  UNL     1      25.628  -0.719  54.887  1.00  0.00     0.132 C 
HETATM   29  C1  UNL     1      25.106  -0.888  56.112  1.00  0.00     0.037 C 
ENDBRANCH  27  28
ENDBRANCH  22  27
BRANCH  23  30
HETATM   30  O4  UNL     1      22.485  -0.629  53.841  1.00  0.00    -0.353 OA
HETATM   31  C20 UNL     1      21.468  -0.284  54.758  1.00  0.00     0.210 C 
ENDBRANCH  23  30
ENDBRANCH   1  19
TORSDOF 5
ENDMDL
