MODEL 1
REMARK VINA RESULT:      -7.2      0.000      0.000
REMARK  4 active torsions:
REMARK  status: ('A' for Active; 'I' for Inactive)
REMARK    1  A    between atoms: N1_8  and  C8_9 
REMARK    2  A    between atoms: C8_9  and  C9_10 
REMARK    3  A    between atoms: C9_10  and  O1_11 
REMARK    4  A    between atoms: C15_19  and  N4_20 
ROOT
HETATM    1  C1  UNL     1      28.839   1.289  53.137  1.00  0.00     0.017 C 
HETATM    2  C2  UNL     1      27.335   1.028  53.353  1.00  0.00     0.037 C 
HETATM    3  C3  UNL     1      26.682   1.819  52.276  1.00  0.00    -0.024 C 
HETATM    4  C4  UNL     1      25.539   2.551  52.209  1.00  0.00    -0.024 C 
HETATM    5  C5  UNL     1      24.527   2.770  53.285  1.00  0.00     0.087 C 
HETATM    6  C6  UNL     1      23.263   2.050  52.777  1.00  0.00     0.055 A 
HETATM    7  C7  UNL     1      22.045   2.309  52.129  1.00  0.00     0.138 A 
HETATM    8  N1  UNL     1      21.691   1.018  52.161  1.00  0.00    -0.292 N 
HETATM    9  N2  UNL     1      22.811   0.743  52.762  1.00  0.00    -0.257 N 
HETATM   10  C10 UNL     1      23.789  -0.119  53.391  1.00  0.00     0.060 A 
HETATM   11  C11 UNL     1      23.307  -0.514  54.596  1.00  0.00     0.051 A 
HETATM   12  C12 UNL     1      24.306  -1.147  55.355  1.00  0.00     0.119 A 
HETATM   13  N3  UNL     1      25.570  -1.269  54.811  1.00  0.00    -0.263 NA
HETATM   14  C13 UNL     1      25.777  -0.776  53.579  1.00  0.00     0.064 A 
HETATM   15  C14 UNL     1      24.953  -0.157  52.697  1.00  0.00     0.061 A 
HETATM   16  C15 UNL     1      27.219  -0.503  53.077  1.00  0.00     0.198 C 
ENDROOT
BRANCH   8  17
HETATM   17  C8  UNL     1      20.672   0.107  51.775  1.00  0.00     0.174 C 
BRANCH  17  18
HETATM   18  C9  UNL     1      19.521  -0.037  52.703  1.00  0.00     0.185 C 
BRANCH  18  19
HETATM   19  O1  UNL     1      19.784  -0.571  53.938  1.00  0.00    -0.399 OA
HETATM   20  H14 UNL     1      19.171  -0.222  54.633  1.00  0.00     0.209 HD
ENDBRANCH  18  19
ENDBRANCH  17  18
ENDBRANCH   8  17
BRANCH  16  21
HETATM   21  N4  UNL     1      28.165  -1.140  53.901  1.00  0.00    -0.129 NA
HETATM   22  O2  UNL     1      28.717  -2.147  53.581  1.00  0.00    -0.066 OA
ENDBRANCH  16  21
TORSDOF 4
ENDMDL
MODEL 2
REMARK VINA RESULT:      -7.0      2.884      6.114
REMARK  4 active torsions:
REMARK  status: ('A' for Active; 'I' for Inactive)
REMARK    1  A    between atoms: N1_8  and  C8_9 
REMARK    2  A    between atoms: C8_9  and  C9_10 
REMARK    3  A    between atoms: C9_10  and  O1_11 
REMARK    4  A    between atoms: C15_19  and  N4_20 
ROOT
HETATM    1  C1  UNL     1      21.678  -1.241  54.537  1.00  0.00     0.017 C 
HETATM    2  C2  UNL     1      22.325  -0.039  53.820  1.00  0.00     0.037 C 
HETATM    3  C3  UNL     1      23.669  -0.543  53.431  1.00  0.00    -0.024 C 
HETATM    4  C4  UNL     1      24.906   0.020  53.380  1.00  0.00    -0.024 C 
HETATM    5  C5  UNL     1      25.286   1.425  53.712  1.00  0.00     0.087 C 
HETATM    6  C6  UNL     1      25.723   2.035  52.366  1.00  0.00     0.055 A 
HETATM    7  C7  UNL     1      26.877   2.320  51.620  1.00  0.00     0.138 A 
HETATM    8  N1  UNL     1      26.163   2.831  50.609  1.00  0.00    -0.292 N 
HETATM    9  N2  UNL     1      25.073   2.580  51.274  1.00  0.00    -0.257 N 
HETATM   10  C10 UNL     1      23.643   2.559  51.495  1.00  0.00     0.060 A 
HETATM   11  C11 UNL     1      23.221   3.828  51.724  1.00  0.00     0.051 A 
HETATM   12  C12 UNL     1      21.894   3.841  52.186  1.00  0.00     0.119 A 
HETATM   13  N3  UNL     1      21.238   2.636  52.344  1.00  0.00    -0.263 NA
HETATM   14  C13 UNL     1      21.906   1.510  52.043  1.00  0.00     0.064 A 
HETATM   15  C14 UNL     1      23.161   1.294  51.577  1.00  0.00     0.061 A 
HETATM   16  C15 UNL     1      21.407   0.140  52.572  1.00  0.00     0.198 C 
ENDROOT
BRANCH   8  17
HETATM   17  C8  UNL     1      26.271   3.405  49.314  1.00  0.00     0.174 C 
BRANCH  17  18
HETATM   18  C9  UNL     1      26.820   4.783  49.240  1.00  0.00     0.185 C 
BRANCH  18  19
HETATM   19  O1  UNL     1      28.182   4.914  49.338  1.00  0.00    -0.399 OA
HETATM   20  H14 UNL     1      28.619   4.066  49.604  1.00  0.00     0.209 HD
ENDBRANCH  18  19
ENDBRANCH  17  18
ENDBRANCH   8  17
BRANCH  16  21
HETATM   21  N4  UNL     1      20.085   0.236  53.046  1.00  0.00    -0.129 NA
HETATM   22  O2  UNL     1      19.146  -0.101  52.394  1.00  0.00    -0.066 OA
ENDBRANCH  16  21
TORSDOF 4
ENDMDL
MODEL 3
REMARK VINA RESULT:      -6.9      2.999      4.729
REMARK  4 active torsions:
REMARK  status: ('A' for Active; 'I' for Inactive)
REMARK    1  A    between atoms: N1_8  and  C8_9 
REMARK    2  A    between atoms: C8_9  and  C9_10 
REMARK    3  A    between atoms: C9_10  and  O1_11 
REMARK    4  A    between atoms: C15_19  and  N4_20 
ROOT
HETATM    1  C1  UNL     1      22.258  -1.585  54.523  1.00  0.00     0.017 C 
HETATM    2  C2  UNL     1      23.031  -0.641  53.580  1.00  0.00     0.037 C 
HETATM    3  C3  UNL     1      22.033   0.407  53.237  1.00  0.00    -0.024 C 
HETATM    4  C4  UNL     1      21.755   1.106  52.104  1.00  0.00    -0.024 C 
HETATM    5  C5  UNL     1      22.444   1.018  50.782  1.00  0.00     0.087 C 
HETATM    6  C6  UNL     1      23.134   2.387  50.616  1.00  0.00     0.055 A 
HETATM    7  C7  UNL     1      22.954   3.631  49.993  1.00  0.00     0.138 A 
HETATM    8  N1  UNL     1      24.108   4.103  50.480  1.00  0.00    -0.292 N 
HETATM    9  N2  UNL     1      24.306   2.962  51.072  1.00  0.00    -0.257 N 
HETATM   10  C10 UNL     1      25.029   2.013  51.891  1.00  0.00     0.060 A 
HETATM   11  C11 UNL     1      26.118   1.586  51.201  1.00  0.00     0.051 A 
HETATM   12  C12 UNL     1      26.719   0.488  51.840  1.00  0.00     0.119 A 
HETATM   13  N3  UNL     1      26.155   0.013  53.007  1.00  0.00    -0.263 NA
HETATM   14  C13 UNL     1      25.057   0.630  53.474  1.00  0.00     0.064 A 
HETATM   15  C14 UNL     1      24.350   1.695  53.020  1.00  0.00     0.061 A 
HETATM   16  C15 UNL     1      24.145  -0.075  54.512  1.00  0.00     0.198 C 
ENDROOT
BRANCH   8  17
HETATM   17  C8  UNL     1      24.941   5.253  50.523  1.00  0.00     0.174 C 
BRANCH  17  18
HETATM   18  C9  UNL     1      24.313   6.514  50.997  1.00  0.00     0.185 C 
BRANCH  18  19
HETATM   19  O1  UNL     1      24.385   6.773  52.342  1.00  0.00    -0.399 OA
HETATM   20  H14 UNL     1      24.076   6.007  52.887  1.00  0.00     0.209 HD
ENDBRANCH  18  19
ENDBRANCH  17  18
ENDBRANCH   8  17
BRANCH  16  21
HETATM   21  N4  UNL     1      24.801  -1.180  55.086  1.00  0.00    -0.129 NA
HETATM   22  O2  UNL     1      25.438  -1.096  56.089  1.00  0.00    -0.066 OA
ENDBRANCH  16  21
TORSDOF 4
ENDMDL
MODEL 4
REMARK VINA RESULT:      -6.7      2.278      6.408
REMARK  4 active torsions:
REMARK  status: ('A' for Active; 'I' for Inactive)
REMARK    1  A    between atoms: N1_8  and  C8_9 
REMARK    2  A    between atoms: C8_9  and  C9_10 
REMARK    3  A    between atoms: C9_10  and  O1_11 
REMARK    4  A    between atoms: C15_19  and  N4_20 
ROOT
HETATM    1  C1  UNL     1      19.308   0.480  51.307  1.00  0.00     0.017 C 
HETATM    2  C2  UNL     1      20.693   0.913  51.828  1.00  0.00     0.037 C 
HETATM    3  C3  UNL     1      21.433  -0.369  51.967  1.00  0.00    -0.024 C 
HETATM    4  C4  UNL     1      22.335  -0.841  52.869  1.00  0.00    -0.024 C 
HETATM    5  C5  UNL     1      22.891  -0.136  54.062  1.00  0.00     0.087 C 
HETATM    6  C6  UNL     1      24.383   0.064  53.731  1.00  0.00     0.055 A 
HETATM    7  C7  UNL     1      25.641  -0.506  53.977  1.00  0.00     0.138 A 
HETATM    8  N1  UNL     1      26.265   0.416  53.234  1.00  0.00    -0.292 N 
HETATM    9  N2  UNL     1      25.115   0.970  52.986  1.00  0.00    -0.257 N 
HETATM   10  C10 UNL     1      24.227   1.951  52.400  1.00  0.00     0.060 A 
HETATM   11  C11 UNL     1      24.400   3.132  53.045  1.00  0.00     0.051 A 
HETATM   12  C12 UNL     1      23.398   4.051  52.689  1.00  0.00     0.119 A 
HETATM   13  N3  UNL     1      22.426   3.654  51.793  1.00  0.00    -0.263 NA
HETATM   14  C13 UNL     1      22.491   2.405  51.304  1.00  0.00     0.064 A 
HETATM   15  C14 UNL     1      23.372   1.393  51.508  1.00  0.00     0.061 A 
HETATM   16  C15 UNL     1      21.247   1.758  50.640  1.00  0.00     0.198 C 
ENDROOT
BRANCH   8  17
HETATM   17  C8  UNL     1      27.539   0.819  52.752  1.00  0.00     0.174 C 
BRANCH  17  18
HETATM   18  C9  UNL     1      28.362   1.657  53.662  1.00  0.00     0.185 C 
BRANCH  18  19
HETATM   19  O1  UNL     1      27.794   2.819  54.117  1.00  0.00    -0.399 OA
HETATM   20  H14 UNL     1      28.474   3.495  54.364  1.00  0.00     0.209 HD
ENDBRANCH  18  19
ENDBRANCH  17  18
ENDBRANCH   8  17
BRANCH  16  21
HETATM   21  N4  UNL     1      20.275   2.732  50.342  1.00  0.00    -0.129 NA
HETATM   22  O2  UNL     1      20.168   3.216  49.258  1.00  0.00    -0.066 OA
ENDBRANCH  16  21
TORSDOF 4
ENDMDL
MODEL 5
REMARK VINA RESULT:      -6.5      3.420      4.930
REMARK  4 active torsions:
REMARK  status: ('A' for Active; 'I' for Inactive)
REMARK    1  A    between atoms: N1_8  and  C8_9 
REMARK    2  A    between atoms: C8_9  and  C9_10 
REMARK    3  A    between atoms: C9_10  and  O1_11 
REMARK    4  A    between atoms: C15_19  and  N4_20 
ROOT
HETATM    1  C1  UNL     1      24.626  -0.493  54.035  1.00  0.00     0.017 C 
HETATM    2  C2  UNL     1      24.500   0.553  52.909  1.00  0.00     0.037 C 
HETATM    3  C3  UNL     1      23.067   0.948  52.956  1.00  0.00    -0.024 C 
HETATM    4  C4  UNL     1      22.146   1.261  52.005  1.00  0.00    -0.024 C 
HETATM    5  C5  UNL     1      22.340   1.314  50.526  1.00  0.00     0.087 C 
HETATM    6  C6  UNL     1      22.180   2.804  50.169  1.00  0.00     0.055 A 
HETATM    7  C7  UNL     1      21.230   3.713  49.677  1.00  0.00     0.138 A 
HETATM    8  N1  UNL     1      22.089   4.736  49.753  1.00  0.00    -0.292 N 
HETATM    9  N2  UNL     1      22.994   3.922  50.211  1.00  0.00    -0.257 N 
HETATM   10  C10 UNL     1      24.302   3.554  50.708  1.00  0.00     0.060 A 
HETATM   11  C11 UNL     1      25.184   3.592  49.677  1.00  0.00     0.051 A 
HETATM   12  C12 UNL     1      26.410   3.011  50.042  1.00  0.00     0.119 A 
HETATM   13  N3  UNL     1      26.545   2.502  51.319  1.00  0.00    -0.263 NA
HETATM   14  C13 UNL     1      25.494   2.595  52.149  1.00  0.00     0.064 A 
HETATM   15  C14 UNL     1      24.255   3.124  51.992  1.00  0.00     0.061 A 
HETATM   16  C15 UNL     1      25.419   1.706  53.419  1.00  0.00     0.198 C 
ENDROOT
BRANCH   8  17
HETATM   17  C8  UNL     1      22.217   6.135  49.538  1.00  0.00     0.174 C 
BRANCH  17  18
HETATM   18  C9  UNL     1      22.041   7.011  50.725  1.00  0.00     0.185 C 
BRANCH  18  19
HETATM   19  O1  UNL     1      23.175   7.358  51.413  1.00  0.00    -0.399 OA
HETATM   20  H14 UNL     1      23.692   6.565  51.704  1.00  0.00     0.209 HD
ENDBRANCH  18  19
ENDBRANCH  17  18
ENDBRANCH   8  17
BRANCH  16  21
HETATM   21  N4  UNL     1      26.673   1.133  53.704  1.00  0.00    -0.129 NA
HETATM   22  O2  UNL     1      27.388   1.555  54.560  1.00  0.00    -0.066 OA
ENDBRANCH  16  21
TORSDOF 4
ENDMDL
MODEL 6
REMARK VINA RESULT:      -6.4      1.767      2.611
REMARK  4 active torsions:
REMARK  status: ('A' for Active; 'I' for Inactive)
REMARK    1  A    between atoms: N1_8  and  C8_9 
REMARK    2  A    between atoms: C8_9  and  C9_10 
REMARK    3  A    between atoms: C9_10  and  O1_11 
REMARK    4  A    between atoms: C15_19  and  N4_20 
ROOT
HETATM    1  C1  UNL     1      26.165   1.984  52.779  1.00  0.00     0.017 C 
HETATM    2  C2  UNL     1      24.691   1.575  52.971  1.00  0.00     0.037 C 
HETATM    3  C3  UNL     1      24.002   2.188  51.804  1.00  0.00    -0.024 C 
HETATM    4  C4  UNL     1      22.789   2.778  51.632  1.00  0.00    -0.024 C 
HETATM    5  C5  UNL     1      21.715   2.976  52.651  1.00  0.00     0.087 C 
HETATM    6  C6  UNL     1      20.559   2.076  52.173  1.00  0.00     0.055 A 
HETATM    7  C7  UNL     1      19.349   2.137  51.465  1.00  0.00     0.138 A 
HETATM    8  N1  UNL     1      19.137   0.823  51.606  1.00  0.00    -0.292 N 
HETATM    9  N2  UNL     1      20.254   0.730  52.266  1.00  0.00    -0.257 N 
HETATM   10  C10 UNL     1      21.293   0.044  53.003  1.00  0.00     0.060 A 
HETATM   11  C11 UNL     1      20.807  -0.294  54.224  1.00  0.00     0.051 A 
HETATM   12  C12 UNL     1      21.837  -0.740  55.070  1.00  0.00     0.119 A 
HETATM   13  N3  UNL     1      23.128  -0.766  54.580  1.00  0.00    -0.263 NA
HETATM   14  C13 UNL     1      23.331  -0.366  53.314  1.00  0.00     0.064 A 
HETATM   15  C14 UNL     1      22.482   0.075  52.353  1.00  0.00     0.061 A 
HETATM   16  C15 UNL     1      24.755   0.022  52.835  1.00  0.00     0.198 C 
ENDROOT
BRANCH   8  17
HETATM   17  C8  UNL     1      18.241  -0.229  51.275  1.00  0.00     0.174 C 
BRANCH  17  18
HETATM   18  C9  UNL     1      17.172  -0.529  52.263  1.00  0.00     0.185 C 
BRANCH  18  19
HETATM   19  O1  UNL     1      17.526  -1.290  53.347  1.00  0.00    -0.399 OA
HETATM   20  H14 UNL     1      17.173  -2.213  53.286  1.00  0.00     0.209 HD
ENDBRANCH  18  19
ENDBRANCH  17  18
ENDBRANCH   8  17
BRANCH  16  21
HETATM   21  N4  UNL     1      25.730  -0.428  53.745  1.00  0.00    -0.129 NA
HETATM   22  O2  UNL     1      26.374  -1.413  53.556  1.00  0.00    -0.066 OA
ENDBRANCH  16  21
TORSDOF 4
ENDMDL
MODEL 7
REMARK VINA RESULT:      -6.3      3.286      5.951
REMARK  4 active torsions:
REMARK  status: ('A' for Active; 'I' for Inactive)
REMARK    1  A    between atoms: N1_8  and  C8_9 
REMARK    2  A    between atoms: C8_9  and  C9_10 
REMARK    3  A    between atoms: C9_10  and  O1_11 
REMARK    4  A    between atoms: C15_19  and  N4_20 
ROOT
HETATM    1  C1  UNL     1      19.618  -0.089  51.997  1.00  0.00     0.017 C 
HETATM    2  C2  UNL     1      20.935   0.633  51.645  1.00  0.00     0.037 C 
HETATM    3  C3  UNL     1      20.494   1.776  50.802  1.00  0.00    -0.024 C 
HETATM    4  C4  UNL     1      21.014   2.392  49.707  1.00  0.00    -0.024 C 
HETATM    5  C5  UNL     1      22.288   2.073  48.996  1.00  0.00     0.087 C 
HETATM    6  C6  UNL     1      23.184   3.303  49.243  1.00  0.00     0.055 A 
HETATM    7  C7  UNL     1      23.600   4.492  48.624  1.00  0.00     0.138 A 
HETATM    8  N1  UNL     1      24.357   4.836  49.673  1.00  0.00    -0.292 N 
HETATM    9  N2  UNL     1      23.992   3.743  50.275  1.00  0.00    -0.257 N 
HETATM   10  C10 UNL     1      23.964   2.786  51.360  1.00  0.00     0.060 A 
HETATM   11  C11 UNL     1      25.156   2.138  51.397  1.00  0.00     0.051 A 
HETATM   12  C12 UNL     1      25.102   1.034  52.264  1.00  0.00     0.119 A 
HETATM   13  N3  UNL     1      23.915   0.764  52.916  1.00  0.00    -0.263 NA
HETATM   14  C13 UNL     1      22.871   1.579  52.689  1.00  0.00     0.064 A 
HETATM   15  C14 UNL     1      22.732   2.684  51.916  1.00  0.00     0.061 A 
HETATM   16  C15 UNL     1      21.431   1.121  53.041  1.00  0.00     0.198 C 
ENDROOT
BRANCH   8  17
HETATM   17  C8  UNL     1      25.217   5.851  50.173  1.00  0.00     0.174 C 
BRANCH  17  18
HETATM   18  C9  UNL     1      24.579   6.935  50.963  1.00  0.00     0.185 C 
BRANCH  18  19
HETATM   19  O1  UNL     1      24.356   6.684  52.293  1.00  0.00    -0.399 OA
HETATM   20  H14 UNL     1      25.198   6.516  52.786  1.00  0.00     0.209 HD
ENDBRANCH  18  19
ENDBRANCH  17  18
ENDBRANCH   8  17
BRANCH  16  21
HETATM   21  N4  UNL     1      21.455  -0.005  53.884  1.00  0.00    -0.129 NA
HETATM   22  O2  UNL     1      21.240   0.067  55.054  1.00  0.00    -0.066 OA
ENDBRANCH  16  21
TORSDOF 4
ENDMDL
MODEL 8
REMARK VINA RESULT:      -6.3      2.899      6.251
REMARK  4 active torsions:
REMARK  status: ('A' for Active; 'I' for Inactive)
REMARK    1  A    between atoms: N1_8  and  C8_9 
REMARK    2  A    between atoms: C8_9  and  C9_10 
REMARK    3  A    between atoms: C9_10  and  O1_11 
REMARK    4  A    between atoms: C15_19  and  N4_20 
ROOT
HETATM    1  C1  UNL     1      20.268   2.447  48.451  1.00  0.00     0.017 C 
HETATM    2  C2  UNL     1      21.181   2.371  49.691  1.00  0.00     0.037 C 
HETATM    3  C3  UNL     1      21.315   0.911  49.940  1.00  0.00    -0.024 C 
HETATM    4  C4  UNL     1      21.380   0.151  51.066  1.00  0.00    -0.024 C 
HETATM    5  C5  UNL     1      21.349   0.614  52.485  1.00  0.00     0.087 C 
HETATM    6  C6  UNL     1      22.753   0.286  53.028  1.00  0.00     0.055 A 
HETATM    7  C7  UNL     1      23.434  -0.687  53.777  1.00  0.00     0.138 A 
HETATM    8  N1  UNL     1      24.598  -0.035  53.667  1.00  0.00    -0.292 N 
HETATM    9  N2  UNL     1      23.998   0.885  52.970  1.00  0.00    -0.257 N 
HETATM   10  C10 UNL     1      23.913   2.115  52.214  1.00  0.00     0.060 A 
HETATM   11  C11 UNL     1      24.026   3.160  53.073  1.00  0.00     0.051 A 
HETATM   12  C12 UNL     1      23.705   4.372  52.436  1.00  0.00     0.119 A 
HETATM   13  N3  UNL     1      23.333   4.341  51.107  1.00  0.00    -0.263 NA
HETATM   14  C13 UNL     1      23.301   3.149  50.488  1.00  0.00     0.064 A 
HETATM   15  C14 UNL     1      23.585   1.894  50.918  1.00  0.00     0.061 A 
HETATM   16  C15 UNL     1      22.517   2.977  49.161  1.00  0.00     0.198 C 
ENDROOT
BRANCH   8  17
HETATM   17  C8  UNL     1      25.975  -0.096  54.011  1.00  0.00     0.174 C 
BRANCH  17  18
HETATM   18  C9  UNL     1      26.855  -0.876  53.102  1.00  0.00     0.185 C 
BRANCH  18  19
HETATM   19  O1  UNL     1      27.984  -1.425  53.653  1.00  0.00    -0.399 OA
HETATM   20  H14 UNL     1      28.804  -1.163  53.163  1.00  0.00     0.209 HD
ENDBRANCH  18  19
ENDBRANCH  17  18
ENDBRANCH   8  17
BRANCH  16  21
HETATM   21  N4  UNL     1      22.204   4.229  48.599  1.00  0.00    -0.129 NA
HETATM   22  O2  UNL     1      22.904   4.761  47.793  1.00  0.00    -0.066 OA
ENDBRANCH  16  21
TORSDOF 4
ENDMDL
MODEL 9
REMARK VINA RESULT:      -6.1      2.972      6.207
REMARK  4 active torsions:
REMARK  status: ('A' for Active; 'I' for Inactive)
REMARK    1  A    between atoms: N1_8  and  C8_9 
REMARK    2  A    between atoms: C8_9  and  C9_10 
REMARK    3  A    between atoms: C9_10  and  O1_11 
REMARK    4  A    between atoms: C15_19  and  N4_20 
ROOT
HETATM    1  C1  UNL     1      22.129   6.656  50.879  1.00  0.00     0.017 C 
HETATM    2  C2  UNL     1      22.184   5.116  50.901  1.00  0.00     0.037 C 
HETATM    3  C3  UNL     1      22.882   4.807  52.178  1.00  0.00    -0.024 C 
HETATM    4  C4  UNL     1      23.786   3.863  52.551  1.00  0.00    -0.024 C 
HETATM    5  C5  UNL     1      24.366   2.770  51.715  1.00  0.00     0.087 C 
HETATM    6  C6  UNL     1      23.809   1.473  52.334  1.00  0.00     0.055 A 
HETATM    7  C7  UNL     1      24.168   0.445  53.219  1.00  0.00     0.138 A 
HETATM    8  N1  UNL     1      22.988  -0.169  53.070  1.00  0.00    -0.292 N 
HETATM    9  N2  UNL     1      22.623   0.768  52.245  1.00  0.00    -0.257 N 
HETATM   10  C10 UNL     1      21.721   1.443  51.337  1.00  0.00     0.060 A 
HETATM   11  C11 UNL     1      21.634   0.717  50.194  1.00  0.00     0.051 A 
HETATM   12  C12 UNL     1      20.972   1.441  49.187  1.00  0.00     0.119 A 
HETATM   13  N3  UNL     1      20.532   2.719  49.474  1.00  0.00    -0.263 NA
HETATM   14  C13 UNL     1      20.758   3.202  50.706  1.00  0.00     0.064 A 
HETATM   15  C14 UNL     1      21.353   2.664  51.799  1.00  0.00     0.061 A 
HETATM   16  C15 UNL     1      20.675   4.728  50.975  1.00  0.00     0.198 C 
ENDROOT
BRANCH   8  17
HETATM   17  C8  UNL     1      22.222  -1.286  53.500  1.00  0.00     0.174 C 
BRANCH  17  18
HETATM   18  C9  UNL     1      21.906  -1.360  54.950  1.00  0.00     0.185 C 
BRANCH  18  19
HETATM   19  O1  UNL     1      22.891  -1.839  55.775  1.00  0.00    -0.399 OA
HETATM   20  H14 UNL     1      23.691  -2.131  55.270  1.00  0.00     0.209 HD
ENDBRANCH  18  19
ENDBRANCH  17  18
ENDBRANCH   8  17
BRANCH  16  21
HETATM   21  N4  UNL     1      20.030   5.389  49.914  1.00  0.00    -0.129 NA
HETATM   22  O2  UNL     1      18.860   5.619  49.920  1.00  0.00    -0.066 OA
ENDBRANCH  16  21
TORSDOF 4
ENDMDL
