MODEL 1
REMARK VINA RESULT:      -8.0      0.000      0.000
REMARK  6 active torsions:
REMARK  status: ('A' for Active; 'I' for Inactive)
REMARK    1  A    between atoms: O1_2  and  C2_3 
REMARK    2  A    between atoms: C7_8  and  N1_10 
REMARK    3  A    between atoms: N1_10  and  C8_11 
REMARK    4  A    between atoms: C10_13  and  N2_14 
REMARK    5  A    between atoms: N2_14  and  C11_15 
REMARK    6  A    between atoms: C11_15  and  C12_16 
ROOT
HETATM    1  C8  UNL     1      25.941   0.793  51.880  1.00  0.00     0.131 A 
HETATM    2  C9  UNL     1      26.211   2.038  51.364  1.00  0.00     0.100 A 
HETATM    3  C10 UNL     1      25.284   3.059  51.322  1.00  0.00     0.128 A 
HETATM    4  N3  UNL     1      24.110   2.716  51.828  1.00  0.00    -0.225 NA
HETATM    5  C18 UNL     1      23.797   1.517  52.343  1.00  0.00     0.237 A 
HETATM    6  N4  UNL     1      24.715   0.541  52.373  1.00  0.00    -0.225 NA
ENDROOT
BRANCH   1   7
HETATM    7  N1  UNL     1      26.941  -0.228  51.895  1.00  0.00    -0.334 N 
HETATM    8  H9  UNL     1      27.352  -0.520  50.961  1.00  0.00     0.164 HD
BRANCH   7   9
HETATM    9  C7  UNL     1      27.373  -0.839  53.133  1.00  0.00     0.227 C 
HETATM   10  C2  UNL     1      27.317   0.143  54.243  1.00  0.00     0.215 C 
HETATM   11  C3  UNL     1      28.743   0.629  54.317  1.00  0.00    -0.039 C 
HETATM   12  C4  UNL     1      29.488   1.857  54.721  1.00  0.00     0.047 C 
HETATM   13  C5  UNL     1      29.396  -0.422  53.872  1.00  0.00    -0.020 C 
HETATM   14  C6  UNL     1      28.825  -1.175  52.974  1.00  0.00     0.054 C 
HETATM   15  F1  UNL     1      26.620  -1.970  53.351  1.00  0.00    -0.211 F 
BRANCH  10  16
HETATM   16  O1  UNL     1      26.894  -0.363  55.450  1.00  0.00    -0.381 OA
HETATM   17  C1  UNL     1      25.549  -0.346  55.687  1.00  0.00     0.202 C 
ENDBRANCH  10  16
ENDBRANCH   7   9
ENDBRANCH   1   7
BRANCH   3  18
HETATM   18  N2  UNL     1      25.628   4.318  50.779  1.00  0.00    -0.370 N 
HETATM   19  H11 UNL     1      26.136   4.994  51.416  1.00  0.00     0.161 HD
BRANCH  18  20
HETATM   20  C11 UNL     1      25.371   4.805  49.442  1.00  0.00     0.160 C 
BRANCH  20  21
HETATM   21  C12 UNL     1      26.616   5.328  48.876  1.00  0.00    -0.041 A 
HETATM   22  C13 UNL     1      26.473   6.655  48.454  1.00  0.00     0.009 A 
HETATM   23  C14 UNL     1      27.532   7.353  47.876  1.00  0.00     0.001 A 
HETATM   24  C15 UNL     1      28.759   6.745  47.703  1.00  0.00     0.000 A 
HETATM   25  C16 UNL     1      28.886   5.456  48.117  1.00  0.00     0.001 A 
HETATM   26  C17 UNL     1      27.851   4.751  48.691  1.00  0.00     0.009 A 
ENDBRANCH  20  21
ENDBRANCH  18  20
ENDBRANCH   3  18
TORSDOF 6
ENDMDL
MODEL 2
REMARK VINA RESULT:      -7.9      3.094      4.365
REMARK  6 active torsions:
REMARK  status: ('A' for Active; 'I' for Inactive)
REMARK    1  A    between atoms: O1_2  and  C2_3 
REMARK    2  A    between atoms: C7_8  and  N1_10 
REMARK    3  A    between atoms: N1_10  and  C8_11 
REMARK    4  A    between atoms: C10_13  and  N2_14 
REMARK    5  A    between atoms: N2_14  and  C11_15 
REMARK    6  A    between atoms: C11_15  and  C12_16 
ROOT
HETATM    1  C8  UNL     1      23.951  -0.560  54.084  1.00  0.00     0.131 A 
HETATM    2  C9  UNL     1      23.265  -0.036  53.014  1.00  0.00     0.100 A 
HETATM    3  C10 UNL     1      21.917  -0.243  52.802  1.00  0.00     0.128 A 
HETATM    4  N3  UNL     1      21.355  -0.998  53.731  1.00  0.00    -0.225 NA
HETATM    5  C18 UNL     1      21.979  -1.532  54.793  1.00  0.00     0.237 A 
HETATM    6  N4  UNL     1      23.288  -1.316  54.978  1.00  0.00    -0.225 NA
ENDROOT
BRANCH   1   7
HETATM    7  N1  UNL     1      25.348  -0.314  54.252  1.00  0.00    -0.334 N 
HETATM    8  H9  UNL     1      25.678  -0.022  55.217  1.00  0.00     0.164 HD
BRANCH   7   9
HETATM    9  C7  UNL     1      26.274  -0.457  53.149  1.00  0.00     0.227 C 
HETATM   10  C2  UNL     1      27.659  -0.171  53.594  1.00  0.00     0.215 C 
HETATM   11  C3  UNL     1      27.840   1.269  53.186  1.00  0.00    -0.039 C 
HETATM   12  C4  UNL     1      28.618   2.467  53.617  1.00  0.00     0.047 C 
HETATM   13  C5  UNL     1      27.027   1.347  52.154  1.00  0.00    -0.020 C 
HETATM   14  C6  UNL     1      25.946   0.618  52.158  1.00  0.00     0.054 C 
HETATM   15  F1  UNL     1      26.111  -1.709  52.600  1.00  0.00    -0.211 F 
BRANCH  10  16
HETATM   16  O1  UNL     1      28.628  -0.977  53.042  1.00  0.00    -0.381 OA
HETATM   17  C1  UNL     1      29.830  -1.026  53.688  1.00  0.00     0.202 C 
ENDBRANCH  10  16
ENDBRANCH   7   9
ENDBRANCH   1   7
BRANCH   3  18
HETATM   18  N2  UNL     1      21.273   0.327  51.680  1.00  0.00    -0.370 N 
HETATM   19  H11 UNL     1      20.958  -0.337  50.917  1.00  0.00     0.161 HD
BRANCH  18  20
HETATM   20  C11 UNL     1      20.984   1.724  51.441  1.00  0.00     0.160 C 
BRANCH  20  21
HETATM   21  C12 UNL     1      22.230   2.420  51.112  1.00  0.00    -0.041 A 
HETATM   22  C13 UNL     1      22.583   3.341  52.104  1.00  0.00     0.009 A 
HETATM   23  C14 UNL     1      23.732   4.124  51.995  1.00  0.00     0.001 A 
HETATM   24  C15 UNL     1      24.557   4.006  50.895  1.00  0.00     0.000 A 
HETATM   25  C16 UNL     1      24.204   3.107  49.938  1.00  0.00     0.001 A 
HETATM   26  C17 UNL     1      23.072   2.325  50.028  1.00  0.00     0.009 A 
ENDBRANCH  20  21
ENDBRANCH  18  20
ENDBRANCH   3  18
TORSDOF 6
ENDMDL
MODEL 3
REMARK VINA RESULT:      -7.9      3.043      7.729
REMARK  6 active torsions:
REMARK  status: ('A' for Active; 'I' for Inactive)
REMARK    1  A    between atoms: O1_2  and  C2_3 
REMARK    2  A    between atoms: C7_8  and  N1_10 
REMARK    3  A    between atoms: N1_10  and  C8_11 
REMARK    4  A    between atoms: C10_13  and  N2_14 
REMARK    5  A    between atoms: N2_14  and  C11_15 
REMARK    6  A    between atoms: C11_15  and  C12_16 
ROOT
HETATM    1  C8  UNL     1      26.584   2.388  51.995  1.00  0.00     0.131 A 
HETATM    2  C9  UNL     1      25.654   1.420  52.294  1.00  0.00     0.100 A 
HETATM    3  C10 UNL     1      25.965   0.247  52.950  1.00  0.00     0.128 A 
HETATM    4  N3  UNL     1      27.247   0.150  53.261  1.00  0.00    -0.225 NA
HETATM    5  C18 UNL     1      28.192   1.064  52.992  1.00  0.00     0.237 A 
HETATM    6  N4  UNL     1      27.866   2.196  52.354  1.00  0.00    -0.225 NA
ENDROOT
BRANCH   1   7
HETATM    7  N1  UNL     1      26.204   3.584  51.310  1.00  0.00    -0.334 N 
HETATM    8  H9  UNL     1      25.860   4.395  51.902  1.00  0.00     0.164 HD
BRANCH   7   9
HETATM    9  C7  UNL     1      26.285   3.682  49.868  1.00  0.00     0.227 C 
HETATM   10  C2  UNL     1      27.135   4.831  49.474  1.00  0.00     0.215 C 
HETATM   11  C3  UNL     1      26.116   5.909  49.204  1.00  0.00    -0.039 C 
HETATM   12  C4  UNL     1      26.021   7.398  49.249  1.00  0.00     0.047 C 
HETATM   13  C5  UNL     1      25.076   5.193  48.837  1.00  0.00    -0.020 C 
HETATM   14  C6  UNL     1      24.911   4.015  49.373  1.00  0.00     0.054 C 
HETATM   15  F1  UNL     1      26.715   2.472  49.371  1.00  0.00    -0.211 F 
BRANCH  10  16
HETATM   16  O1  UNL     1      27.941   4.613  48.380  1.00  0.00    -0.381 OA
HETATM   17  C1  UNL     1      29.001   5.459  48.218  1.00  0.00     0.202 C 
ENDBRANCH  10  16
ENDBRANCH   7   9
ENDBRANCH   1   7
BRANCH   3  18
HETATM   18  N2  UNL     1      24.959  -0.706  53.229  1.00  0.00    -0.370 N 
HETATM   19  H11 UNL     1      24.704  -1.378  52.450  1.00  0.00     0.161 HD
BRANCH  18  20
HETATM   20  C11 UNL     1      24.225  -0.884  54.461  1.00  0.00     0.160 C 
BRANCH  20  21
HETATM   21  C12 UNL     1      22.790  -0.888  54.167  1.00  0.00    -0.041 A 
HETATM   22  C13 UNL     1      22.434   0.171  53.324  1.00  0.00     0.009 A 
HETATM   23  C14 UNL     1      21.114   0.366  52.919  1.00  0.00     0.001 A 
HETATM   24  C15 UNL     1      20.118  -0.489  53.342  1.00  0.00     0.000 A 
HETATM   25  C16 UNL     1      20.476  -1.515  54.159  1.00  0.00     0.001 A 
HETATM   26  C17 UNL     1      21.775  -1.725  54.570  1.00  0.00     0.009 A 
ENDBRANCH  20  21
ENDBRANCH  18  20
ENDBRANCH   3  18
TORSDOF 6
ENDMDL
MODEL 4
REMARK VINA RESULT:      -7.8      3.300      7.113
REMARK  6 active torsions:
REMARK  status: ('A' for Active; 'I' for Inactive)
REMARK    1  A    between atoms: O1_2  and  C2_3 
REMARK    2  A    between atoms: C7_8  and  N1_10 
REMARK    3  A    between atoms: N1_10  and  C8_11 
REMARK    4  A    between atoms: C10_13  and  N2_14 
REMARK    5  A    between atoms: N2_14  and  C11_15 
REMARK    6  A    between atoms: C11_15  and  C12_16 
ROOT
HETATM    1  C8  UNL     1      23.486   4.185  52.357  1.00  0.00     0.131 A 
HETATM    2  C9  UNL     1      24.369   3.204  52.744  1.00  0.00     0.100 A 
HETATM    3  C10 UNL     1      23.995   1.897  52.979  1.00  0.00     0.128 A 
HETATM    4  N3  UNL     1      22.703   1.685  52.794  1.00  0.00    -0.225 NA
HETATM    5  C18 UNL     1      21.802   2.605  52.417  1.00  0.00     0.237 A 
HETATM    6  N4  UNL     1      22.188   3.869  52.195  1.00  0.00    -0.225 NA
ENDROOT
BRANCH   1   7
HETATM    7  N1  UNL     1      23.930   5.524  52.130  1.00  0.00    -0.334 N 
HETATM    8  H9  UNL     1      24.268   6.073  52.973  1.00  0.00     0.164 HD
BRANCH   7   9
HETATM    9  C7  UNL     1      23.916   6.106  50.806  1.00  0.00     0.227 C 
HETATM   10  C2  UNL     1      24.207   5.073  49.782  1.00  0.00     0.215 C 
HETATM   11  C3  UNL     1      25.683   5.264  49.541  1.00  0.00    -0.039 C 
HETATM   12  C4  UNL     1      26.864   4.454  49.118  1.00  0.00     0.047 C 
HETATM   13  C5  UNL     1      25.826   6.542  49.818  1.00  0.00    -0.020 C 
HETATM   14  C6  UNL     1      25.064   7.067  50.737  1.00  0.00     0.054 C 
HETATM   15  F1  UNL     1      22.714   6.751  50.622  1.00  0.00    -0.211 F 
BRANCH  10  16
HETATM   16  O1  UNL     1      23.487   5.187  48.616  1.00  0.00    -0.381 OA
HETATM   17  C1  UNL     1      22.705   4.122  48.269  1.00  0.00     0.202 C 
ENDBRANCH  10  16
ENDBRANCH   7   9
ENDBRANCH   1   7
BRANCH   3  18
HETATM   18  N2  UNL     1      24.956   0.937  53.374  1.00  0.00    -0.370 N 
HETATM   19  H11 UNL     1      25.154   0.854  54.411  1.00  0.00     0.161 HD
BRANCH  18  20
HETATM   20  C11 UNL     1      25.712   0.042  52.527  1.00  0.00     0.160 C 
BRANCH  20  21
HETATM   21  C12 UNL     1      27.117   0.069  52.937  1.00  0.00    -0.041 A 
HETATM   22  C13 UNL     1      27.681  -1.212  52.929  1.00  0.00     0.009 A 
HETATM   23  C14 UNL     1      29.010  -1.424  53.293  1.00  0.00     0.001 A 
HETATM   24  C15 UNL     1      29.810  -0.366  53.673  1.00  0.00     0.000 A 
HETATM   25  C16 UNL     1      29.251   0.874  53.676  1.00  0.00     0.001 A 
HETATM   26  C17 UNL     1      27.940   1.104  53.319  1.00  0.00     0.009 A 
ENDBRANCH  20  21
ENDBRANCH  18  20
ENDBRANCH   3  18
TORSDOF 6
ENDMDL
MODEL 5
REMARK VINA RESULT:      -7.6      1.854      3.372
REMARK  6 active torsions:
REMARK  status: ('A' for Active; 'I' for Inactive)
REMARK    1  A    between atoms: O1_2  and  C2_3 
REMARK    2  A    between atoms: C7_8  and  N1_10 
REMARK    3  A    between atoms: N1_10  and  C8_11 
REMARK    4  A    between atoms: C10_13  and  N2_14 
REMARK    5  A    between atoms: N2_14  and  C11_15 
REMARK    6  A    between atoms: C11_15  and  C12_16 
ROOT
HETATM    1  C8  UNL     1      24.811   3.164  51.045  1.00  0.00     0.131 A 
HETATM    2  C9  UNL     1      25.873   3.631  50.307  1.00  0.00     0.100 A 
HETATM    3  C10 UNL     1      25.916   4.895  49.756  1.00  0.00     0.128 A 
HETATM    4  N3  UNL     1      24.831   5.609  50.009  1.00  0.00    -0.225 NA
HETATM    5  C18 UNL     1      23.770   5.200  50.723  1.00  0.00     0.237 A 
HETATM    6  N4  UNL     1      23.752   3.968  51.249  1.00  0.00    -0.225 NA
ENDROOT
BRANCH   1   7
HETATM    7  N1  UNL     1      24.822   1.843  51.590  1.00  0.00    -0.334 N 
HETATM    8  H9  UNL     1      24.518   1.051  50.952  1.00  0.00     0.164 HD
BRANCH   7   9
HETATM    9  C7  UNL     1      25.229   1.597  52.957  1.00  0.00     0.227 C 
HETATM   10  C2  UNL     1      26.636   1.131  53.003  1.00  0.00     0.215 C 
HETATM   11  C3  UNL     1      26.479  -0.366  53.082  1.00  0.00    -0.039 C 
HETATM   12  C4  UNL     1      27.231  -1.594  52.690  1.00  0.00     0.047 C 
HETATM   13  C5  UNL     1      25.314  -0.471  53.684  1.00  0.00    -0.020 C 
HETATM   14  C6  UNL     1      24.413   0.445  53.458  1.00  0.00     0.054 C 
HETATM   15  F1  UNL     1      24.993   2.734  53.696  1.00  0.00    -0.211 F 
BRANCH  10  16
HETATM   16  O1  UNL     1      27.378   1.616  54.055  1.00  0.00    -0.381 OA
HETATM   17  C1  UNL     1      28.607   2.130  53.757  1.00  0.00     0.202 C 
ENDBRANCH  10  16
ENDBRANCH   7   9
ENDBRANCH   1   7
BRANCH   3  18
HETATM   18  N2  UNL     1      27.040   5.313  49.008  1.00  0.00    -0.370 N 
HETATM   19  H11 UNL     1      27.855   4.639  48.946  1.00  0.00     0.161 HD
BRANCH  18  20
HETATM   20  C11 UNL     1      27.221   6.564  48.306  1.00  0.00     0.160 C 
BRANCH  20  21
HETATM   21  C12 UNL     1      28.597   6.640  47.810  1.00  0.00    -0.041 A 
HETATM   22  C13 UNL     1      29.345   5.521  48.192  1.00  0.00     0.009 A 
HETATM   23  C14 UNL     1      30.686   5.386  47.835  1.00  0.00     0.001 A 
HETATM   24  C15 UNL     1      31.313   6.362  47.089  1.00  0.00     0.000 A 
HETATM   25  C16 UNL     1      30.577   7.444  46.723  1.00  0.00     0.001 A 
HETATM   26  C17 UNL     1      29.250   7.595  47.066  1.00  0.00     0.009 A 
ENDBRANCH  20  21
ENDBRANCH  18  20
ENDBRANCH   3  18
TORSDOF 6
ENDMDL
MODEL 6
REMARK VINA RESULT:      -7.5      2.599      4.791
REMARK  6 active torsions:
REMARK  status: ('A' for Active; 'I' for Inactive)
REMARK    1  A    between atoms: O1_2  and  C2_3 
REMARK    2  A    between atoms: C7_8  and  N1_10 
REMARK    3  A    between atoms: N1_10  and  C8_11 
REMARK    4  A    between atoms: C10_13  and  N2_14 
REMARK    5  A    between atoms: N2_14  and  C11_15 
REMARK    6  A    between atoms: C11_15  and  C12_16 
ROOT
HETATM    1  C8  UNL     1      24.697   0.477  52.990  1.00  0.00     0.131 A 
HETATM    2  C9  UNL     1      25.003   1.629  52.305  1.00  0.00     0.100 A 
HETATM    3  C10 UNL     1      26.175   1.804  51.600  1.00  0.00     0.128 A 
HETATM    4  N3  UNL     1      26.975   0.750  51.651  1.00  0.00    -0.225 NA
HETATM    5  C18 UNL     1      26.723  -0.395  52.304  1.00  0.00     0.237 A 
HETATM    6  N4  UNL     1      25.576  -0.542  52.982  1.00  0.00    -0.225 NA
ENDROOT
BRANCH   1   7
HETATM    7  N1  UNL     1      23.466   0.353  53.706  1.00  0.00    -0.334 N 
HETATM    8  H9  UNL     1      23.463   0.659  54.722  1.00  0.00     0.164 HD
BRANCH   7   9
HETATM    9  C7  UNL     1      22.276  -0.168  53.069  1.00  0.00     0.227 C 
HETATM   10  C2  UNL     1      21.857   0.713  51.952  1.00  0.00     0.215 C 
HETATM   11  C3  UNL     1      20.794   1.567  52.595  1.00  0.00    -0.039 C 
HETATM   12  C4  UNL     1      20.213   2.934  52.447  1.00  0.00     0.047 C 
HETATM   13  C5  UNL     1      20.339   0.755  53.524  1.00  0.00    -0.020 C 
HETATM   14  C6  UNL     1      21.169  -0.086  54.076  1.00  0.00     0.054 C 
HETATM   15  F1  UNL     1      22.514  -1.471  52.694  1.00  0.00    -0.211 F 
BRANCH  10  16
HETATM   16  O1  UNL     1      21.375   0.059  50.842  1.00  0.00    -0.381 OA
HETATM   17  C1  UNL     1      21.352   0.765  49.673  1.00  0.00     0.202 C 
ENDBRANCH  10  16
ENDBRANCH   7   9
ENDBRANCH   1   7
BRANCH   3  18
HETATM   18  N2  UNL     1      26.426   3.015  50.915  1.00  0.00    -0.370 N 
HETATM   19  H11 UNL     1      27.283   3.565  51.210  1.00  0.00     0.161 HD
BRANCH  18  20
HETATM   20  C11 UNL     1      25.651   3.606  49.848  1.00  0.00     0.160 C 
BRANCH  20  21
HETATM   21  C12 UNL     1      26.441   4.660  49.209  1.00  0.00    -0.041 A 
HETATM   22  C13 UNL     1      25.672   5.805  48.966  1.00  0.00     0.009 A 
HETATM   23  C14 UNL     1      26.220   6.933  48.357  1.00  0.00     0.001 A 
HETATM   24  C15 UNL     1      27.546   6.949  47.977  1.00  0.00     0.000 A 
HETATM   25  C16 UNL     1      28.283   5.832  48.219  1.00  0.00     0.001 A 
HETATM   26  C17 UNL     1      27.759   4.708  48.820  1.00  0.00     0.009 A 
ENDBRANCH  20  21
ENDBRANCH  18  20
ENDBRANCH   3  18
TORSDOF 6
ENDMDL
MODEL 7
REMARK VINA RESULT:      -7.5      5.627      8.518
REMARK  6 active torsions:
REMARK  status: ('A' for Active; 'I' for Inactive)
REMARK    1  A    between atoms: O1_2  and  C2_3 
REMARK    2  A    between atoms: C7_8  and  N1_10 
REMARK    3  A    between atoms: N1_10  and  C8_11 
REMARK    4  A    between atoms: C10_13  and  N2_14 
REMARK    5  A    between atoms: N2_14  and  C11_15 
REMARK    6  A    between atoms: C11_15  and  C12_16 
ROOT
HETATM    1  C8  UNL     1      31.303   7.146  47.698  1.00  0.00     0.131 A 
HETATM    2  C9  UNL     1      30.022   6.840  48.094  1.00  0.00     0.100 A 
HETATM    3  C10 UNL     1      29.185   7.743  48.716  1.00  0.00     0.128 A 
HETATM    4  N3  UNL     1      29.740   8.931  48.892  1.00  0.00    -0.225 NA
HETATM    5  C18 UNL     1      30.983   9.279  48.525  1.00  0.00     0.237 A 
HETATM    6  N4  UNL     1      31.778   8.385  47.922  1.00  0.00    -0.225 NA
ENDROOT
BRANCH   1   7
HETATM    7  N1  UNL     1      32.127   6.168  47.060  1.00  0.00    -0.334 N 
HETATM    8  H9  UNL     1      32.218   6.223  46.005  1.00  0.00     0.164 HD
BRANCH   7   9
HETATM    9  C7  UNL     1      32.809   5.146  47.825  1.00  0.00     0.227 C 
HETATM   10  C2  UNL     1      34.261   5.158  47.528  1.00  0.00     0.215 C 
HETATM   11  C3  UNL     1      34.390   4.068  46.494  1.00  0.00    -0.039 C 
HETATM   12  C4  UNL     1      35.266   3.717  45.339  1.00  0.00     0.047 C 
HETATM   13  C5  UNL     1      33.388   3.282  46.824  1.00  0.00    -0.020 C 
HETATM   14  C6  UNL     1      32.313   3.823  47.327  1.00  0.00     0.054 C 
HETATM   15  F1  UNL     1      32.509   5.322  49.157  1.00  0.00    -0.211 F 
BRANCH  10  16
HETATM   16  O1  UNL     1      35.080   4.926  48.609  1.00  0.00    -0.381 OA
HETATM   17  C1  UNL     1      35.775   5.996  49.096  1.00  0.00     0.202 C 
ENDBRANCH  10  16
ENDBRANCH   7   9
ENDBRANCH   1   7
BRANCH   3  18
HETATM   18  N2  UNL     1      27.877   7.363  49.096  1.00  0.00    -0.370 N 
HETATM   19  H11 UNL     1      27.680   7.289  50.134  1.00  0.00     0.161 HD
BRANCH  18  20
HETATM   20  C11 UNL     1      26.757   7.060  48.232  1.00  0.00     0.160 C 
BRANCH  20  21
HETATM   21  C12 UNL     1      26.093   5.849  48.719  1.00  0.00    -0.041 A 
HETATM   22  C13 UNL     1      27.013   4.830  48.993  1.00  0.00     0.009 A 
HETATM   23  C14 UNL     1      26.601   3.583  49.461  1.00  0.00     0.001 A 
HETATM   24  C15 UNL     1      25.262   3.322  49.668  1.00  0.00     0.000 A 
HETATM   25  C16 UNL     1      24.377   4.319  49.400  1.00  0.00     0.001 A 
HETATM   26  C17 UNL     1      24.766   5.558  48.937  1.00  0.00     0.009 A 
ENDBRANCH  20  21
ENDBRANCH  18  20
ENDBRANCH   3  18
TORSDOF 6
ENDMDL
MODEL 8
REMARK VINA RESULT:      -7.5      3.067      7.343
REMARK  6 active torsions:
REMARK  status: ('A' for Active; 'I' for Inactive)
REMARK    1  A    between atoms: O1_2  and  C2_3 
REMARK    2  A    between atoms: C7_8  and  N1_10 
REMARK    3  A    between atoms: N1_10  and  C8_11 
REMARK    4  A    between atoms: C10_13  and  N2_14 
REMARK    5  A    between atoms: N2_14  and  C11_15 
REMARK    6  A    between atoms: C11_15  and  C12_16 
ROOT
HETATM    1  C8  UNL     1      26.180   1.216  52.820  1.00  0.00     0.131 A 
HETATM    2  C9  UNL     1      25.377   0.771  53.843  1.00  0.00     0.100 A 
HETATM    3  C10 UNL     1      25.425  -0.515  54.341  1.00  0.00     0.128 A 
HETATM    4  N3  UNL     1      26.323  -1.274  53.733  1.00  0.00    -0.225 NA
HETATM    5  C18 UNL     1      27.129  -0.888  52.732  1.00  0.00     0.237 A 
HETATM    6  N4  UNL     1      27.064   0.367  52.266  1.00  0.00    -0.225 NA
ENDROOT
BRANCH   1   7
HETATM    7  N1  UNL     1      26.084   2.560  52.344  1.00  0.00    -0.334 N 
HETATM    8  H9  UNL     1      26.543   3.317  52.928  1.00  0.00     0.164 HD
BRANCH   7   9
HETATM    9  C7  UNL     1      25.388   2.873  51.114  1.00  0.00     0.227 C 
HETATM   10  C2  UNL     1      24.813   4.238  51.177  1.00  0.00     0.215 C 
HETATM   11  C3  UNL     1      23.385   3.969  51.582  1.00  0.00    -0.039 C 
HETATM   12  C4  UNL     1      22.283   4.652  52.321  1.00  0.00     0.047 C 
HETATM   13  C5  UNL     1      23.197   2.769  51.079  1.00  0.00    -0.020 C 
HETATM   14  C6  UNL     1      24.211   1.950  51.029  1.00  0.00     0.054 C 
HETATM   15  F1  UNL     1      26.251   2.678  50.060  1.00  0.00    -0.211 F 
BRANCH  10  16
HETATM   16  O1  UNL     1      24.877   4.953  50.003  1.00  0.00    -0.381 OA
HETATM   17  C1  UNL     1      25.167   6.284  50.109  1.00  0.00     0.202 C 
ENDBRANCH  10  16
ENDBRANCH   7   9
ENDBRANCH   1   7
BRANCH   3  18
HETATM   18  N2  UNL     1      24.571  -0.908  55.397  1.00  0.00    -0.370 N 
HETATM   19  H11 UNL     1      24.873  -0.654  56.380  1.00  0.00     0.161 HD
BRANCH  18  20
HETATM   20  C11 UNL     1      23.318  -1.623  55.302  1.00  0.00     0.160 C 
BRANCH  20  21
HETATM   21  C12 UNL     1      22.465  -0.963  54.311  1.00  0.00    -0.041 A 
HETATM   22  C13 UNL     1      21.503  -0.148  54.919  1.00  0.00     0.009 A 
HETATM   23  C14 UNL     1      20.578   0.572  54.164  1.00  0.00     0.001 A 
HETATM   24  C15 UNL     1      20.588   0.497  52.787  1.00  0.00     0.000 A 
HETATM   25  C16 UNL     1      21.527  -0.298  52.207  1.00  0.00     0.001 A 
HETATM   26  C17 UNL     1      22.450  -1.016  52.936  1.00  0.00     0.009 A 
ENDBRANCH  20  21
ENDBRANCH  18  20
ENDBRANCH   3  18
TORSDOF 6
ENDMDL
MODEL 9
REMARK VINA RESULT:      -7.3      3.272      7.400
REMARK  6 active torsions:
REMARK  status: ('A' for Active; 'I' for Inactive)
REMARK    1  A    between atoms: O1_2  and  C2_3 
REMARK    2  A    between atoms: C7_8  and  N1_10 
REMARK    3  A    between atoms: N1_10  and  C8_11 
REMARK    4  A    between atoms: C10_13  and  N2_14 
REMARK    5  A    between atoms: N2_14  and  C11_15 
REMARK    6  A    between atoms: C11_15  and  C12_16 
ROOT
HETATM    1  C8  UNL     1      26.639   2.008  51.554  1.00  0.00     0.131 A 
HETATM    2  C9  UNL     1      25.883   0.956  52.015  1.00  0.00     0.100 A 
HETATM    3  C10 UNL     1      26.170   0.267  53.176  1.00  0.00     0.128 A 
HETATM    4  N3  UNL     1      27.246   0.722  53.798  1.00  0.00    -0.225 NA
HETATM    5  C18 UNL     1      28.015   1.744  53.390  1.00  0.00     0.237 A 
HETATM    6  N4  UNL     1      27.716   2.398  52.259  1.00  0.00    -0.225 NA
ENDROOT
BRANCH   1   7
HETATM    7  N1  UNL     1      26.295   2.683  50.342  1.00  0.00    -0.334 N 
HETATM    8  H9  UNL     1      26.869   2.456  49.480  1.00  0.00     0.164 HD
BRANCH   7   9
HETATM    9  C7  UNL     1      25.208   3.638  50.297  1.00  0.00     0.227 C 
HETATM   10  C2  UNL     1      24.060   3.156  51.102  1.00  0.00     0.215 C 
HETATM   11  C3  UNL     1      23.173   2.527  50.056  1.00  0.00    -0.039 C 
HETATM   12  C4  UNL     1      22.156   1.440  49.956  1.00  0.00     0.047 C 
HETATM   13  C5  UNL     1      23.493   3.231  48.992  1.00  0.00    -0.020 C 
HETATM   14  C6  UNL     1      24.715   3.673  48.883  1.00  0.00     0.054 C 
HETATM   15  F1  UNL     1      25.688   4.867  50.689  1.00  0.00    -0.211 F 
BRANCH  10  16
HETATM   16  O1  UNL     1      23.393   4.129  51.809  1.00  0.00    -0.381 OA
HETATM   17  C1  UNL     1      23.674   4.222  53.142  1.00  0.00     0.202 C 
ENDBRANCH  10  16
ENDBRANCH   7   9
ENDBRANCH   1   7
BRANCH   3  18
HETATM   18  N2  UNL     1      25.350  -0.805  53.594  1.00  0.00    -0.370 N 
HETATM   19  H11 UNL     1      25.303  -1.652  52.958  1.00  0.00     0.161 HD
BRANCH  18  20
HETATM   20  C11 UNL     1      24.555  -0.895  54.798  1.00  0.00     0.160 C 
BRANCH  20  21
HETATM   21  C12 UNL     1      23.136  -0.864  54.438  1.00  0.00    -0.041 A 
HETATM   22  C13 UNL     1      22.799   0.317  53.767  1.00  0.00     0.009 A 
HETATM   23  C14 UNL     1      21.496   0.563  53.337  1.00  0.00     0.001 A 
HETATM   24  C15 UNL     1      20.498  -0.362  53.562  1.00  0.00     0.000 A 
HETATM   25  C16 UNL     1      20.837  -1.506  54.214  1.00  0.00     0.001 A 
HETATM   26  C17 UNL     1      22.119  -1.767  54.647  1.00  0.00     0.009 A 
ENDBRANCH  20  21
ENDBRANCH  18  20
ENDBRANCH   3  18
TORSDOF 6
ENDMDL
