MODEL 1
REMARK VINA RESULT:      -7.3      0.000      0.000
REMARK  0 active torsions:
REMARK  status: ('A' for Active; 'I' for Inactive)
ROOT
HETATM    1  C1  UNL     1      24.136   3.338  53.437  1.00  0.00     0.045 C 
HETATM    2  C2  UNL     1      24.529   3.285  52.038  1.00  0.00    -0.060 C 
HETATM    3  C3  UNL     1      25.577   2.452  51.798  1.00  0.00    -0.006 A 
HETATM    4  C4  UNL     1      26.587   1.770  51.028  1.00  0.00     0.023 A 
HETATM    5  C5  UNL     1      26.991   0.829  51.814  1.00  0.00     0.036 A 
HETATM    6  S1  UNL     1      25.912   1.285  53.074  1.00  0.00    -0.142 SA
HETATM    7  C6  UNL     1      24.412   0.416  53.342  1.00  0.00     0.219 A 
HETATM    8  N1  UNL     1      24.080  -0.646  54.095  1.00  0.00    -0.115 NA
HETATM    9  N2  UNL     1      22.771  -0.815  53.866  1.00  0.00    -0.114 NA
HETATM   10  C7  UNL     1      22.349   0.123  53.004  1.00  0.00     0.232 A 
HETATM   11  O1  UNL     1      23.364   0.859  52.696  1.00  0.00    -0.259 OA
HETATM   12  S2  UNL     1      20.793   0.546  52.248  1.00  0.00    -0.078 SA
HETATM   13  C8  UNL     1      20.730   2.299  51.741  1.00  0.00     0.122 C 
HETATM   14  C9  UNL     1      21.644   2.465  50.566  1.00  0.00    -0.042 A 
HETATM   15  C10 UNL     1      20.968   1.712  49.585  1.00  0.00     0.008 A 
HETATM   16  C11 UNL     1      21.366   1.513  48.252  1.00  0.00     0.001 A 
HETATM   17  C12 UNL     1      22.565   2.143  47.892  1.00  0.00     0.001 A 
HETATM   18  C13 UNL     1      23.183   2.874  48.914  1.00  0.00     0.008 A 
HETATM   19  C14 UNL     1      22.800   3.085  50.259  1.00  0.00    -0.043 A 
HETATM   20  C15 UNL     1      23.818   3.904  50.892  1.00  0.00     0.045 C 
HETATM   21  C16 UNL     1      23.049   5.145  51.419  1.00  0.00     0.020 C 
HETATM   22  H6  UNL     1      26.646   1.850  54.396  1.00  0.00     0.099 HD
ENDROOT
TORSDOF 0
ENDMDL
MODEL 2
REMARK VINA RESULT:      -6.8      5.198      6.485
REMARK  0 active torsions:
REMARK  status: ('A' for Active; 'I' for Inactive)
ROOT
HETATM    1  C1  UNL     1      25.904   7.917  50.070  1.00  0.00     0.045 C 
HETATM    2  C2  UNL     1      24.830   7.756  49.102  1.00  0.00    -0.060 C 
HETATM    3  C3  UNL     1      25.180   8.112  47.838  1.00  0.00    -0.006 A 
HETATM    4  C4  UNL     1      25.014   8.341  46.423  1.00  0.00     0.023 A 
HETATM    5  C5  UNL     1      26.223   8.455  45.986  1.00  0.00     0.036 A 
HETATM    6  S1  UNL     1      26.914   8.216  47.543  1.00  0.00    -0.142 SA
HETATM    7  C6  UNL     1      27.579   6.663  48.011  1.00  0.00     0.219 A 
HETATM    8  N1  UNL     1      28.801   6.111  47.913  1.00  0.00    -0.115 NA
HETATM    9  N2  UNL     1      28.660   4.898  48.462  1.00  0.00    -0.114 NA
HETATM   10  C7  UNL     1      27.391   4.744  48.871  1.00  0.00     0.232 A 
HETATM   11  O1  UNL     1      26.751   5.828  48.585  1.00  0.00    -0.259 OA
HETATM   12  S2  UNL     1      26.463   3.454  49.675  1.00  0.00    -0.078 SA
HETATM   13  C8  UNL     1      25.010   4.107  50.567  1.00  0.00     0.122 C 
HETATM   14  C9  UNL     1      24.009   4.548  49.544  1.00  0.00    -0.042 A 
HETATM   15  C10 UNL     1      23.640   3.314  48.972  1.00  0.00     0.008 A 
HETATM   16  C11 UNL     1      22.707   3.106  47.942  1.00  0.00     0.001 A 
HETATM   17  C12 UNL     1      22.097   4.269  47.453  1.00  0.00     0.001 A 
HETATM   18  C13 UNL     1      22.509   5.460  48.065  1.00  0.00     0.008 A 
HETATM   19  C14 UNL     1      23.445   5.688  49.100  1.00  0.00    -0.043 A 
HETATM   20  C15 UNL     1      23.511   7.120  49.337  1.00  0.00     0.045 C 
HETATM   21  C16 UNL     1      23.160   7.283  50.840  1.00  0.00     0.020 C 
HETATM   22  H6  UNL     1      27.671   9.515  48.133  1.00  0.00     0.099 HD
ENDROOT
TORSDOF 0
ENDMDL
MODEL 3
REMARK VINA RESULT:      -6.6      9.696     11.835
REMARK  0 active torsions:
REMARK  status: ('A' for Active; 'I' for Inactive)
ROOT
HETATM    1  C1  UNL     1      30.528   8.143  45.339  1.00  0.00     0.045 C 
HETATM    2  C2  UNL     1      31.549   8.803  46.137  1.00  0.00    -0.060 C 
HETATM    3  C3  UNL     1      31.056   9.436  47.234  1.00  0.00    -0.006 A 
HETATM    4  C4  UNL     1      31.082  10.227  48.440  1.00  0.00     0.023 A 
HETATM    5  C5  UNL     1      29.931  10.003  48.980  1.00  0.00     0.036 A 
HETATM    6  S1  UNL     1      29.437   8.940  47.721  1.00  0.00    -0.142 SA
HETATM    7  C6  UNL     1      29.504   7.200  47.924  1.00  0.00     0.219 A 
HETATM    8  N1  UNL     1      28.631   6.287  48.383  1.00  0.00    -0.115 NA
HETATM    9  N2  UNL     1      29.285   5.123  48.277  1.00  0.00    -0.114 NA
HETATM   10  C7  UNL     1      30.507   5.348  47.770  1.00  0.00     0.232 A 
HETATM   11  O1  UNL     1      30.620   6.618  47.565  1.00  0.00    -0.259 OA
HETATM   12  S2  UNL     1      31.910   4.339  47.341  1.00  0.00    -0.078 SA
HETATM   13  C8  UNL     1      32.965   5.130  46.078  1.00  0.00     0.122 C 
HETATM   14  C9  UNL     1      33.664   6.285  46.728  1.00  0.00    -0.042 A 
HETATM   15  C10 UNL     1      34.511   5.617  47.635  1.00  0.00     0.008 A 
HETATM   16  C11 UNL     1      35.424   6.205  48.527  1.00  0.00     0.001 A 
HETATM   17  C12 UNL     1      35.472   7.605  48.487  1.00  0.00     0.001 A 
HETATM   18  C13 UNL     1      34.605   8.204  47.564  1.00  0.00     0.008 A 
HETATM   19  C14 UNL     1      33.681   7.630  46.660  1.00  0.00    -0.043 A 
HETATM   20  C15 UNL     1      33.017   8.711  45.951  1.00  0.00     0.045 C 
HETATM   21  C16 UNL     1      33.295   8.421  44.452  1.00  0.00     0.020 C 
HETATM   22  H6  UNL     1      28.212   9.500  46.831  1.00  0.00     0.099 HD
ENDROOT
TORSDOF 0
ENDMDL
MODEL 4
REMARK VINA RESULT:      -6.5      4.085      5.863
REMARK  0 active torsions:
REMARK  status: ('A' for Active; 'I' for Inactive)
ROOT
HETATM    1  C1  UNL     1      21.192   4.730  51.304  1.00  0.00     0.045 C 
HETATM    2  C2  UNL     1      22.180   3.668  51.204  1.00  0.00    -0.060 C 
HETATM    3  C3  UNL     1      21.785   2.628  50.423  1.00  0.00    -0.006 A 
HETATM    4  C4  UNL     1      21.871   1.349  49.763  1.00  0.00     0.023 A 
HETATM    5  C5  UNL     1      20.924   1.388  48.888  1.00  0.00     0.036 A 
HETATM    6  S1  UNL     1      20.437   2.974  49.342  1.00  0.00    -0.142 SA
HETATM    7  C6  UNL     1      20.918   4.375  48.402  1.00  0.00     0.219 A 
HETATM    8  N1  UNL     1      20.369   5.023  47.361  1.00  0.00    -0.115 NA
HETATM    9  N2  UNL     1      21.226   6.020  47.105  1.00  0.00    -0.114 NA
HETATM   10  C7  UNL     1      22.248   5.957  47.973  1.00  0.00     0.232 A 
HETATM   11  O1  UNL     1      22.042   4.947  48.750  1.00  0.00    -0.259 OA
HETATM   12  S2  UNL     1      23.727   6.905  48.266  1.00  0.00    -0.078 SA
HETATM   13  C8  UNL     1      24.319   6.739  49.985  1.00  0.00     0.122 C 
HETATM   14  C9  UNL     1      24.864   5.353  50.145  1.00  0.00    -0.042 A 
HETATM   15  C10 UNL     1      25.995   5.404  49.306  1.00  0.00     0.008 A 
HETATM   16  C11 UNL     1      26.914   4.369  49.064  1.00  0.00     0.001 A 
HETATM   17  C12 UNL     1      26.649   3.172  49.744  1.00  0.00     0.001 A 
HETATM   18  C13 UNL     1      25.511   3.190  50.560  1.00  0.00     0.008 A 
HETATM   19  C14 UNL     1      24.576   4.220  50.815  1.00  0.00    -0.043 A 
HETATM   20  C15 UNL     1      23.569   3.697  51.723  1.00  0.00     0.045 C 
HETATM   21  C16 UNL     1      23.607   4.658  52.942  1.00  0.00     0.020 C 
HETATM   22  H6  UNL     1      18.971   3.045  50.015  1.00  0.00     0.099 HD
ENDROOT
TORSDOF 0
ENDMDL
MODEL 5
REMARK VINA RESULT:      -6.4      1.887      4.916
REMARK  0 active torsions:
REMARK  status: ('A' for Active; 'I' for Inactive)
ROOT
HETATM    1  C1  UNL     1      20.855   0.746  49.572  1.00  0.00     0.045 C 
HETATM    2  C2  UNL     1      20.852   2.167  49.883  1.00  0.00    -0.060 C 
HETATM    3  C3  UNL     1      19.686   2.602  50.429  1.00  0.00    -0.006 A 
HETATM    4  C4  UNL     1      18.744   3.541  50.986  1.00  0.00     0.023 A 
HETATM    5  C5  UNL     1      17.850   2.792  51.537  1.00  0.00     0.036 A 
HETATM    6  S1  UNL     1      18.646   1.337  51.079  1.00  0.00    -0.142 SA
HETATM    7  C6  UNL     1      19.629   0.442  52.222  1.00  0.00     0.219 A 
HETATM    8  N1  UNL     1      19.366  -0.544  53.097  1.00  0.00    -0.115 NA
HETATM    9  N2  UNL     1      20.548  -0.798  53.672  1.00  0.00    -0.114 NA
HETATM   10  C7  UNL     1      21.478   0.016  53.149  1.00  0.00     0.232 A 
HETATM   11  O1  UNL     1      20.897   0.763  52.271  1.00  0.00    -0.259 OA
HETATM   12  S2  UNL     1      23.225   0.266  53.385  1.00  0.00    -0.078 SA
HETATM   13  C8  UNL     1      24.017   1.006  51.915  1.00  0.00     0.122 C 
HETATM   14  C9  UNL     1      23.561   2.429  51.821  1.00  0.00    -0.042 A 
HETATM   15  C10 UNL     1      24.171   2.989  52.962  1.00  0.00     0.008 A 
HETATM   16  C11 UNL     1      24.096   4.325  53.390  1.00  0.00     0.001 A 
HETATM   17  C12 UNL     1      23.326   5.165  52.574  1.00  0.00     0.001 A 
HETATM   18  C13 UNL     1      22.750   4.545  51.458  1.00  0.00     0.008 A 
HETATM   19  C14 UNL     1      22.812   3.204  51.013  1.00  0.00    -0.043 A 
HETATM   20  C15 UNL     1      22.008   3.094  49.808  1.00  0.00     0.045 C 
HETATM   21  C16 UNL     1      22.988   2.554  48.733  1.00  0.00     0.020 C 
HETATM   22  H6  UNL     1      17.829   0.450  50.005  1.00  0.00     0.099 HD
ENDROOT
TORSDOF 0
ENDMDL
MODEL 6
REMARK VINA RESULT:      -6.4      1.938      4.694
REMARK  0 active torsions:
REMARK  status: ('A' for Active; 'I' for Inactive)
ROOT
HETATM    1  C1  UNL     1      22.244   1.762  49.045  1.00  0.00     0.045 C 
HETATM    2  C2  UNL     1      21.734   3.044  49.505  1.00  0.00    -0.060 C 
HETATM    3  C3  UNL     1      21.043   2.967  50.674  1.00  0.00    -0.006 A 
HETATM    4  C4  UNL     1      20.268   3.433  51.797  1.00  0.00     0.023 A 
HETATM    5  C5  UNL     1      20.334   2.460  52.642  1.00  0.00     0.036 A 
HETATM    6  S1  UNL     1      21.313   1.497  51.607  1.00  0.00    -0.142 SA
HETATM    7  C6  UNL     1      23.047   1.386  51.844  1.00  0.00     0.219 A 
HETATM    8  N1  UNL     1      23.833   0.562  52.559  1.00  0.00    -0.115 NA
HETATM    9  N2  UNL     1      25.075   0.998  52.315  1.00  0.00    -0.114 NA
HETATM   10  C7  UNL     1      25.019   2.049  51.482  1.00  0.00     0.232 A 
HETATM   11  O1  UNL     1      23.776   2.268  51.210  1.00  0.00    -0.259 OA
HETATM   12  S2  UNL     1      26.210   3.129  50.716  1.00  0.00    -0.078 SA
HETATM   13  C8  UNL     1      25.566   3.884  49.183  1.00  0.00     0.122 C 
HETATM   14  C9  UNL     1      24.521   4.884  49.574  1.00  0.00    -0.042 A 
HETATM   15  C10 UNL     1      25.303   5.854  50.233  1.00  0.00     0.008 A 
HETATM   16  C11 UNL     1      24.850   7.050  50.816  1.00  0.00     0.001 A 
HETATM   17  C12 UNL     1      23.470   7.271  50.715  1.00  0.00     0.001 A 
HETATM   18  C13 UNL     1      22.754   6.269  50.049  1.00  0.00     0.008 A 
HETATM   19  C14 UNL     1      23.191   5.061  49.457  1.00  0.00    -0.043 A 
HETATM   20  C15 UNL     1      22.027   4.376  48.923  1.00  0.00     0.045 C 
HETATM   21  C16 UNL     1      22.345   4.182  47.416  1.00  0.00     0.020 C 
HETATM   22  H6  UNL     1      20.586   0.158  51.073  1.00  0.00     0.099 HD
ENDROOT
TORSDOF 0
ENDMDL
MODEL 7
REMARK VINA RESULT:      -6.3      3.230      5.379
REMARK  0 active torsions:
REMARK  status: ('A' for Active; 'I' for Inactive)
ROOT
HETATM    1  C1  UNL     1      20.048   3.287  48.005  1.00  0.00     0.045 C 
HETATM    2  C2  UNL     1      21.327   3.794  48.477  1.00  0.00    -0.060 C 
HETATM    3  C3  UNL     1      21.260   5.057  48.978  1.00  0.00    -0.006 A 
HETATM    4  C4  UNL     1      21.738   6.284  49.565  1.00  0.00     0.023 A 
HETATM    5  C5  UNL     1      20.661   6.879  49.955  1.00  0.00     0.036 A 
HETATM    6  S1  UNL     1      19.641   5.612  49.394  1.00  0.00    -0.142 SA
HETATM    7  C6  UNL     1      18.989   4.417  50.500  1.00  0.00     0.219 A 
HETATM    8  N1  UNL     1      17.864   4.350  51.232  1.00  0.00    -0.115 NA
HETATM    9  N2  UNL     1      17.952   3.172  51.863  1.00  0.00    -0.114 NA
HETATM   10  C7  UNL     1      19.097   2.567  51.512  1.00  0.00     0.232 A 
HETATM   11  O1  UNL     1      19.713   3.343  50.684  1.00  0.00    -0.259 OA
HETATM   12  S2  UNL     1      19.894   1.025  51.910  1.00  0.00    -0.078 SA
HETATM   13  C8  UNL     1      21.050   0.492  50.601  1.00  0.00     0.122 C 
HETATM   14  C9  UNL     1      22.232   1.411  50.637  1.00  0.00    -0.042 A 
HETATM   15  C10 UNL     1      22.806   1.072  51.879  1.00  0.00     0.008 A 
HETATM   16  C11 UNL     1      23.966   1.621  52.451  1.00  0.00     0.001 A 
HETATM   17  C12 UNL     1      24.595   2.608  51.680  1.00  0.00     0.001 A 
HETATM   18  C13 UNL     1      23.973   2.896  50.459  1.00  0.00     0.008 A 
HETATM   19  C14 UNL     1      22.807   2.356  49.868  1.00  0.00    -0.043 A 
HETATM   20  C15 UNL     1      22.593   3.032  48.600  1.00  0.00     0.045 C 
HETATM   21  C16 UNL     1      22.570   1.890  47.549  1.00  0.00     0.020 C 
HETATM   22  H6  UNL     1      18.683   6.034  48.165  1.00  0.00     0.099 HD
ENDROOT
TORSDOF 0
ENDMDL
MODEL 8
REMARK VINA RESULT:      -6.3      5.609      7.415
REMARK  0 active torsions:
REMARK  status: ('A' for Active; 'I' for Inactive)
ROOT
HETATM    1  C1  UNL     1      21.926   6.521  49.327  1.00  0.00     0.045 C 
HETATM    2  C2  UNL     1      22.804   5.367  49.433  1.00  0.00    -0.060 C 
HETATM    3  C3  UNL     1      22.477   4.355  48.586  1.00  0.00    -0.006 A 
HETATM    4  C4  UNL     1      22.572   3.060  47.957  1.00  0.00     0.023 A 
HETATM    5  C5  UNL     1      21.834   3.174  46.905  1.00  0.00     0.036 A 
HETATM    6  S1  UNL     1      21.422   4.809  47.250  1.00  0.00    -0.142 SA
HETATM    7  C6  UNL     1      22.223   6.137  46.431  1.00  0.00     0.219 A 
HETATM    8  N1  UNL     1      21.967   6.816  45.299  1.00  0.00    -0.115 NA
HETATM    9  N2  UNL     1      22.952   7.719  45.228  1.00  0.00    -0.114 NA
HETATM   10  C7  UNL     1      23.763   7.574  46.288  1.00  0.00     0.232 A 
HETATM   11  O1  UNL     1      23.301   6.605  47.005  1.00  0.00    -0.259 OA
HETATM   12  S2  UNL     1      25.235   8.381  46.882  1.00  0.00    -0.078 SA
HETATM   13  C8  UNL     1      25.441   8.192  48.686  1.00  0.00     0.122 C 
HETATM   14  C9  UNL     1      25.802   6.763  48.955  1.00  0.00    -0.042 A 
HETATM   15  C10 UNL     1      27.081   6.688  48.368  1.00  0.00     0.008 A 
HETATM   16  C11 UNL     1      27.923   5.564  48.321  1.00  0.00     0.001 A 
HETATM   17  C12 UNL     1      27.407   4.412  48.930  1.00  0.00     0.001 A 
HETATM   18  C13 UNL     1      26.132   4.557  49.493  1.00  0.00     0.008 A 
HETATM   19  C14 UNL     1      25.271   5.677  49.549  1.00  0.00    -0.043 A 
HETATM   20  C15 UNL     1      24.052   5.272  50.229  1.00  0.00     0.045 C 
HETATM   21  C16 UNL     1      23.932   6.247  51.429  1.00  0.00     0.020 C 
HETATM   22  H6  UNL     1      19.863   5.034  47.604  1.00  0.00     0.099 HD
ENDROOT
TORSDOF 0
ENDMDL
MODEL 9
REMARK VINA RESULT:      -6.3     10.040     12.052
REMARK  0 active torsions:
REMARK  status: ('A' for Active; 'I' for Inactive)
ROOT
HETATM    1  C1  UNL     1      32.044   8.024  49.275  1.00  0.00     0.045 C 
HETATM    2  C2  UNL     1      31.839   6.719  48.667  1.00  0.00    -0.060 C 
HETATM    3  C3  UNL     1      30.529   6.406  48.480  1.00  0.00    -0.006 A 
HETATM    4  C4  UNL     1      29.392   5.610  48.089  1.00  0.00     0.023 A 
HETATM    5  C5  UNL     1      28.416   6.454  48.074  1.00  0.00     0.036 A 
HETATM    6  S1  UNL     1      29.417   7.771  48.545  1.00  0.00    -0.142 SA
HETATM    7  C6  UNL     1      30.004   8.930  47.368  1.00  0.00     0.219 A 
HETATM    8  N1  UNL     1      29.523  10.092  46.893  1.00  0.00    -0.115 NA
HETATM    9  N2  UNL     1      30.449  10.497  46.014  1.00  0.00    -0.114 NA
HETATM   10  C7  UNL     1      31.445   9.598  45.976  1.00  0.00     0.232 A 
HETATM   11  O1  UNL     1      31.153   8.653  46.805  1.00  0.00    -0.259 OA
HETATM   12  S2  UNL     1      32.983   9.442  45.092  1.00  0.00    -0.078 SA
HETATM   13  C8  UNL     1      34.181   8.387  45.979  1.00  0.00     0.122 C 
HETATM   14  C9  UNL     1      33.690   6.975  45.898  1.00  0.00    -0.042 A 
HETATM   15  C10 UNL     1      33.830   6.715  44.520  1.00  0.00     0.008 A 
HETATM   16  C11 UNL     1      33.523   5.518  43.851  1.00  0.00     0.001 A 
HETATM   17  C12 UNL     1      33.026   4.494  44.668  1.00  0.00     0.001 A 
HETATM   18  C13 UNL     1      32.912   4.819  46.026  1.00  0.00     0.008 A 
HETATM   19  C14 UNL     1      33.215   6.016  46.716  1.00  0.00    -0.043 A 
HETATM   20  C15 UNL     1      32.884   5.822  48.117  1.00  0.00     0.045 C 
HETATM   21  C16 UNL     1      34.209   6.107  48.874  1.00  0.00     0.020 C 
HETATM   22  H6  UNL     1      29.082   8.361  50.010  1.00  0.00     0.099 HD
ENDROOT
TORSDOF 0
ENDMDL
