MODEL 1
REMARK VINA RESULT:      -8.2      0.000      0.000
REMARK  5 active torsions:
REMARK  status: ('A' for Active; 'I' for Inactive)
REMARK    1  A    between atoms: C1_2  and  C2_3 
REMARK       I    between atoms: C1_2  and  N5_18 
REMARK    2  A    between atoms: C3_4  and  N1_5 
REMARK    3  A    between atoms: N1_5  and  C4_6 
REMARK    4  A    between atoms: N5_18  and  C13_19 
REMARK    5  A    between atoms: C13_19  and  C14_20 
ROOT
HETATM    1  N1  UNL     1      22.573   3.979  49.715  1.00  0.00    -0.325 N 
HETATM    2  H3  UNL     1      21.989   4.297  48.920  1.00  0.00     0.169 HD
ENDROOT
BRANCH   1   3
HETATM    3  C3  UNL     1      23.767   3.724  50.483  1.00  0.00     0.097 C 
HETATM    4  C2  UNL     1      24.883   3.452  49.799  1.00  0.00     0.091 C 
BRANCH   4   5
HETATM    5  C1  UNL     1      26.123   3.188  50.547  1.00  0.00     0.242 C 
HETATM    6  O1  UNL     1      27.170   3.588  49.963  1.00  0.00    -0.269 OA
HETATM    7  N5  UNL     1      26.281   2.572  51.772  1.00  0.00    -0.353 N 
HETATM    8  H10 UNL     1      25.384   2.251  52.237  1.00  0.00     0.163 HD
BRANCH   7   9
HETATM    9  C13 UNL     1      27.466   2.294  52.533  1.00  0.00     0.161 C 
BRANCH   9  10
HETATM   10  C14 UNL     1      27.605   0.816  52.770  1.00  0.00    -0.038 A 
HETATM   11  C15 UNL     1      28.717   0.501  53.481  1.00  0.00     0.028 A 
HETATM   12  C16 UNL     1      28.922  -0.855  53.740  1.00  0.00     0.116 A 
HETATM   13  N6  UNL     1      28.033  -1.758  53.288  1.00  0.00    -0.273 NA
HETATM   14  C17 UNL     1      26.956  -1.308  52.586  1.00  0.00     0.116 A 
HETATM   15  C18 UNL     1      26.632   0.020  52.257  1.00  0.00     0.028 A 
ENDBRANCH   9  10
ENDBRANCH   7   9
ENDBRANCH   4   5
ENDBRANCH   1   3
BRANCH   1  16
HETATM   16  C4  UNL     1      21.649   3.461  50.654  1.00  0.00     0.281 A 
HETATM   17  N2  UNL     1      20.384   3.785  50.888  1.00  0.00    -0.215 NA
HETATM   18  C5  UNL     1      19.626   3.171  51.852  1.00  0.00     0.125 A 
HETATM   19  C6  UNL     1      20.368   2.171  52.543  1.00  0.00     0.065 A 
HETATM   20  C7  UNL     1      21.760   1.743  52.362  1.00  0.00     0.124 A 
HETATM   21  C8  UNL     1      21.763   0.751  53.375  1.00  0.00     0.022 A 
HETATM   22  N4  UNL     1      21.759   2.594  51.492  1.00  0.00    -0.369 NA
HETATM   23  C9  UNL     1      23.076   0.251  53.220  1.00  0.00     0.018 A 
HETATM   24  C12 UNL     1      21.017   0.192  54.346  1.00  0.00     0.131 A 
HETATM   25  C10 UNL     1      23.512  -0.764  54.061  1.00  0.00     0.020 A 
HETATM   26  C11 UNL     1      22.732  -1.313  55.039  1.00  0.00     0.116 A 
HETATM   27  N3  UNL     1      21.464  -0.777  55.132  1.00  0.00    -0.272 NA
ENDBRANCH   1  16
TORSDOF 5
ENDMDL
MODEL 2
REMARK VINA RESULT:      -8.1      2.937      5.732
REMARK  5 active torsions:
REMARK  status: ('A' for Active; 'I' for Inactive)
REMARK    1  A    between atoms: C1_2  and  C2_3 
REMARK       I    between atoms: C1_2  and  N5_18 
REMARK    2  A    between atoms: C3_4  and  N1_5 
REMARK    3  A    between atoms: N1_5  and  C4_6 
REMARK    4  A    between atoms: N5_18  and  C13_19 
REMARK    5  A    between atoms: C13_19  and  C14_20 
ROOT
HETATM    1  N1  UNL     1      26.954  -0.186  52.807  1.00  0.00    -0.325 N 
HETATM    2  H3  UNL     1      27.730  -0.750  53.198  1.00  0.00     0.169 HD
ENDROOT
BRANCH   1   3
HETATM    3  C3  UNL     1      26.279   0.739  51.930  1.00  0.00     0.097 C 
HETATM    4  C2  UNL     1      26.816   1.957  51.803  1.00  0.00     0.091 C 
BRANCH   4   5
HETATM    5  C1  UNL     1      26.158   2.930  50.915  1.00  0.00     0.242 C 
HETATM    6  O1  UNL     1      24.908   2.771  50.816  1.00  0.00    -0.269 OA
HETATM    7  N5  UNL     1      26.721   3.964  50.195  1.00  0.00    -0.353 N 
HETATM    8  H10 UNL     1      27.770   4.073  50.301  1.00  0.00     0.163 HD
BRANCH   7   9
HETATM    9  C13 UNL     1      26.119   4.930  49.321  1.00  0.00     0.161 C 
BRANCH   9  10
HETATM   10  C14 UNL     1      27.176   5.736  48.618  1.00  0.00    -0.038 A 
HETATM   11  C15 UNL     1      28.374   5.100  48.568  1.00  0.00     0.028 A 
HETATM   12  C16 UNL     1      29.411   5.786  47.936  1.00  0.00     0.116 A 
HETATM   13  N6  UNL     1      29.182   7.007  47.420  1.00  0.00    -0.273 NA
HETATM   14  C17 UNL     1      27.931   7.532  47.537  1.00  0.00     0.116 A 
HETATM   15  C18 UNL     1      26.804   6.954  48.146  1.00  0.00     0.028 A 
ENDBRANCH   9  10
ENDBRANCH   7   9
ENDBRANCH   4   5
ENDBRANCH   1   3
BRANCH   1  16
HETATM   16  C4  UNL     1      25.841  -0.491  53.627  1.00  0.00     0.281 A 
HETATM   17  N2  UNL     1      25.786  -0.950  54.871  1.00  0.00    -0.215 NA
HETATM   18  C5  UNL     1      24.602  -1.192  55.521  1.00  0.00     0.125 A 
HETATM   19  C6  UNL     1      23.481  -0.892  54.697  1.00  0.00     0.065 A 
HETATM   20  C7  UNL     1      23.437  -0.386  53.319  1.00  0.00     0.124 A 
HETATM   21  C8  UNL     1      22.025  -0.347  53.200  1.00  0.00     0.022 A 
HETATM   22  N4  UNL     1      24.650  -0.420  53.420  1.00  0.00    -0.369 NA
HETATM   23  C9  UNL     1      21.907   0.189  51.898  1.00  0.00     0.018 A 
HETATM   24  C12 UNL     1      20.875  -0.634  53.839  1.00  0.00     0.131 A 
HETATM   25  C10 UNL     1      20.641   0.384  51.364  1.00  0.00     0.020 A 
HETATM   26  C11 UNL     1      19.491   0.082  52.035  1.00  0.00     0.116 A 
HETATM   27  N3  UNL     1      19.681  -0.436  53.300  1.00  0.00    -0.272 NA
ENDBRANCH   1  16
TORSDOF 5
ENDMDL
MODEL 3
REMARK VINA RESULT:      -8.0      2.454      4.839
REMARK  5 active torsions:
REMARK  status: ('A' for Active; 'I' for Inactive)
REMARK    1  A    between atoms: C1_2  and  C2_3 
REMARK       I    between atoms: C1_2  and  N5_18 
REMARK    2  A    between atoms: C3_4  and  N1_5 
REMARK    3  A    between atoms: N1_5  and  C4_6 
REMARK    4  A    between atoms: N5_18  and  C13_19 
REMARK    5  A    between atoms: C13_19  and  C14_20 
ROOT
HETATM    1  N1  UNL     1      20.859  -0.480  54.857  1.00  0.00    -0.325 N 
HETATM    2  H3  UNL     1      20.099  -0.481  55.562  1.00  0.00     0.169 HD
ENDROOT
BRANCH   1   3
HETATM    3  C3  UNL     1      22.201  -0.554  54.333  1.00  0.00     0.097 C 
HETATM    4  C2  UNL     1      23.157  -0.971  55.170  1.00  0.00     0.091 C 
BRANCH   4   5
HETATM    5  C1  UNL     1      24.540  -1.062  54.673  1.00  0.00     0.242 C 
HETATM    6  O1  UNL     1      25.416  -1.036  55.583  1.00  0.00    -0.269 OA
HETATM    7  N5  UNL     1      24.987  -1.165  53.370  1.00  0.00    -0.353 N 
HETATM    8  H10 UNL     1      24.227  -1.187  52.630  1.00  0.00     0.163 HD
BRANCH   7   9
HETATM    9  C13 UNL     1      26.319  -1.254  52.844  1.00  0.00     0.161 C 
BRANCH   9  10
HETATM   10  C14 UNL     1      26.932   0.114  52.730  1.00  0.00    -0.038 A 
HETATM   11  C15 UNL     1      28.064   0.245  53.469  1.00  0.00     0.028 A 
HETATM   12  C16 UNL     1      28.692   1.490  53.421  1.00  0.00     0.116 A 
HETATM   13  N6  UNL     1      28.164   2.471  52.668  1.00  0.00    -0.273 NA
HETATM   14  C17 UNL     1      27.023   2.208  51.972  1.00  0.00     0.116 A 
HETATM   15  C18 UNL     1      26.293   1.007  51.932  1.00  0.00     0.028 A 
ENDBRANCH   9  10
ENDBRANCH   7   9
ENDBRANCH   4   5
ENDBRANCH   1   3
BRANCH   1  16
HETATM   16  C4  UNL     1      20.201  -0.288  53.619  1.00  0.00     0.281 A 
HETATM   17  N2  UNL     1      18.975  -0.621  53.233  1.00  0.00    -0.215 NA
HETATM   18  C5  UNL     1      18.494  -0.353  51.976  1.00  0.00     0.125 A 
HETATM   19  C6  UNL     1      19.466   0.310  51.174  1.00  0.00     0.065 A 
HETATM   20  C7  UNL     1      20.837   0.717  51.505  1.00  0.00     0.124 A 
HETATM   21  C8  UNL     1      21.151   1.289  50.246  1.00  0.00     0.022 A 
HETATM   22  N4  UNL     1      20.569   0.225  52.586  1.00  0.00    -0.369 NA
HETATM   23  C9  UNL     1      22.458   1.757  50.512  1.00  0.00     0.018 A 
HETATM   24  C12 UNL     1      20.676   1.502  49.005  1.00  0.00     0.131 A 
HETATM   25  C10 UNL     1      23.162   2.394  49.500  1.00  0.00     0.020 A 
HETATM   26  C11 UNL     1      22.655   2.596  48.248  1.00  0.00     0.116 A 
HETATM   27  N3  UNL     1      21.375   2.114  48.060  1.00  0.00    -0.272 NA
ENDBRANCH   1  16
TORSDOF 5
ENDMDL
MODEL 4
REMARK VINA RESULT:      -8.0      2.531      7.386
REMARK  5 active torsions:
REMARK  status: ('A' for Active; 'I' for Inactive)
REMARK    1  A    between atoms: C1_2  and  C2_3 
REMARK       I    between atoms: C1_2  and  N5_18 
REMARK    2  A    between atoms: C3_4  and  N1_5 
REMARK    3  A    between atoms: N1_5  and  C4_6 
REMARK    4  A    between atoms: N5_18  and  C13_19 
REMARK    5  A    between atoms: C13_19  and  C14_20 
ROOT
HETATM    1  N1  UNL     1      25.591  -0.938  55.665  1.00  0.00    -0.325 N 
HETATM    2  H3  UNL     1      26.194  -1.127  56.486  1.00  0.00     0.169 HD
ENDROOT
BRANCH   1   3
HETATM    3  C3  UNL     1      24.404  -0.937  54.845  1.00  0.00     0.097 C 
HETATM    4  C2  UNL     1      23.238  -1.142  55.465  1.00  0.00     0.091 C 
BRANCH   4   5
HETATM    5  C1  UNL     1      22.003  -1.147  54.663  1.00  0.00     0.242 C 
HETATM    6  O1  UNL     1      21.217  -2.097  54.936  1.00  0.00    -0.269 OA
HETATM    7  N5  UNL     1      21.609  -0.268  53.674  1.00  0.00    -0.353 N 
HETATM    8  H10 UNL     1      22.289   0.520  53.470  1.00  0.00     0.163 HD
BRANCH   7   9
HETATM    9  C13 UNL     1      20.421  -0.237  52.869  1.00  0.00     0.161 C 
BRANCH   9  10
HETATM   10  C14 UNL     1      20.373   1.021  52.048  1.00  0.00    -0.038 A 
HETATM   11  C15 UNL     1      20.501   2.144  52.799  1.00  0.00     0.028 A 
HETATM   12  C16 UNL     1      20.462   3.356  52.111  1.00  0.00     0.116 A 
HETATM   13  N6  UNL     1      20.305   3.356  50.775  1.00  0.00    -0.273 NA
HETATM   14  C17 UNL     1      20.189   2.157  50.139  1.00  0.00     0.116 A 
HETATM   15  C18 UNL     1      20.211   0.871  50.708  1.00  0.00     0.028 A 
ENDBRANCH   9  10
ENDBRANCH   7   9
ENDBRANCH   4   5
ENDBRANCH   1   3
BRANCH   1  16
HETATM   16  C4  UNL     1      26.428  -0.245  54.758  1.00  0.00     0.281 A 
HETATM   17  N2  UNL     1      27.751  -0.146  54.708  1.00  0.00    -0.215 NA
HETATM   18  C5  UNL     1      28.405   0.578  53.745  1.00  0.00     0.125 A 
HETATM   19  C6  UNL     1      27.493   1.191  52.839  1.00  0.00     0.065 A 
HETATM   20  C7  UNL     1      26.026   1.144  52.811  1.00  0.00     0.124 A 
HETATM   21  C8  UNL     1      25.854   1.964  51.667  1.00  0.00     0.022 A 
HETATM   22  N4  UNL     1      26.171   0.441  53.794  1.00  0.00    -0.369 NA
HETATM   23  C9  UNL     1      24.447   1.920  51.547  1.00  0.00     0.018 A 
HETATM   24  C12 UNL     1      26.513   2.707  50.758  1.00  0.00     0.131 A 
HETATM   25  C10 UNL     1      23.838   2.630  50.521  1.00  0.00     0.020 A 
HETATM   26  C11 UNL     1      24.533   3.377  49.613  1.00  0.00     0.116 A 
HETATM   27  N3  UNL     1      25.901   3.374  49.791  1.00  0.00    -0.272 NA
ENDBRANCH   1  16
TORSDOF 5
ENDMDL
MODEL 5
REMARK VINA RESULT:      -7.9      1.824      2.188
REMARK  5 active torsions:
REMARK  status: ('A' for Active; 'I' for Inactive)
REMARK    1  A    between atoms: C1_2  and  C2_3 
REMARK       I    between atoms: C1_2  and  N5_18 
REMARK    2  A    between atoms: C3_4  and  N1_5 
REMARK    3  A    between atoms: N1_5  and  C4_6 
REMARK    4  A    between atoms: N5_18  and  C13_19 
REMARK    5  A    between atoms: C13_19  and  C14_20 
ROOT
HETATM    1  N1  UNL     1      20.405   2.276  49.264  1.00  0.00    -0.325 N 
HETATM    2  H3  UNL     1      19.742   2.234  48.469  1.00  0.00     0.169 HD
ENDROOT
BRANCH   1   3
HETATM    3  C3  UNL     1      21.560   2.686  50.026  1.00  0.00     0.097 C 
HETATM    4  C2  UNL     1      22.758   2.488  49.465  1.00  0.00     0.091 C 
BRANCH   4   5
HETATM    5  C1  UNL     1      23.961   2.894  50.211  1.00  0.00     0.242 C 
HETATM    6  O1  UNL     1      24.371   4.056  49.932  1.00  0.00    -0.269 OA
HETATM    7  N5  UNL     1      24.680   2.180  51.149  1.00  0.00    -0.353 N 
HETATM    8  H10 UNL     1      24.310   1.210  51.363  1.00  0.00     0.163 HD
BRANCH   7   9
HETATM    9  C13 UNL     1      25.854   2.536  51.895  1.00  0.00     0.161 C 
BRANCH   9  10
HETATM   10  C14 UNL     1      26.346   1.361  52.694  1.00  0.00    -0.038 A 
HETATM   11  C15 UNL     1      26.478   0.235  51.947  1.00  0.00     0.028 A 
HETATM   12  C16 UNL     1      26.925  -0.903  52.618  1.00  0.00     0.116 A 
HETATM   13  N6  UNL     1      27.198  -0.833  53.933  1.00  0.00    -0.273 NA
HETATM   14  C17 UNL     1      27.024   0.360  54.566  1.00  0.00     0.116 A 
HETATM   15  C18 UNL     1      26.582   1.576  54.014  1.00  0.00     0.028 A 
ENDBRANCH   9  10
ENDBRANCH   7   9
ENDBRANCH   4   5
ENDBRANCH   1   3
BRANCH   1  16
HETATM   16  C4  UNL     1      19.874   1.382  50.223  1.00  0.00     0.281 A 
HETATM   17  N2  UNL     1      18.646   0.897  50.363  1.00  0.00    -0.215 NA
HETATM   18  C5  UNL     1      18.302   0.026  51.365  1.00  0.00     0.125 A 
HETATM   19  C6  UNL     1      19.412  -0.270  52.206  1.00  0.00     0.065 A 
HETATM   20  C7  UNL     1      20.797   0.212  52.137  1.00  0.00     0.124 A 
HETATM   21  C8  UNL     1      21.278  -0.497  53.266  1.00  0.00     0.022 A 
HETATM   22  N4  UNL     1      20.385   0.822  51.167  1.00  0.00    -0.369 NA
HETATM   23  C9  UNL     1      22.638  -0.117  53.229  1.00  0.00     0.018 A 
HETATM   24  C12 UNL     1      20.909  -1.316  54.269  1.00  0.00     0.131 A 
HETATM   25  C10 UNL     1      23.497  -0.598  54.207  1.00  0.00     0.020 A 
HETATM   26  C11 UNL     1      23.095  -1.428  55.215  1.00  0.00     0.116 A 
HETATM   27  N3  UNL     1      21.755  -1.757  55.189  1.00  0.00    -0.272 NA
ENDBRANCH   1  16
TORSDOF 5
ENDMDL
MODEL 6
REMARK VINA RESULT:      -7.7      2.011      4.958
REMARK  5 active torsions:
REMARK  status: ('A' for Active; 'I' for Inactive)
REMARK    1  A    between atoms: C1_2  and  C2_3 
REMARK       I    between atoms: C1_2  and  N5_18 
REMARK    2  A    between atoms: C3_4  and  N1_5 
REMARK    3  A    between atoms: N1_5  and  C4_6 
REMARK    4  A    between atoms: N5_18  and  C13_19 
REMARK    5  A    between atoms: C13_19  and  C14_20 
ROOT
HETATM    1  N1  UNL     1      20.323   1.464  52.099  1.00  0.00    -0.325 N 
HETATM    2  H3  UNL     1      19.370   1.058  52.108  1.00  0.00     0.169 HD
ENDROOT
BRANCH   1   3
HETATM    3  C3  UNL     1      21.392   2.370  51.754  1.00  0.00     0.097 C 
HETATM    4  C2  UNL     1      21.247   3.647  52.122  1.00  0.00     0.091 C 
BRANCH   4   5
HETATM    5  C1  UNL     1      22.317   4.603  51.789  1.00  0.00     0.242 C 
HETATM    6  O1  UNL     1      22.822   5.179  52.793  1.00  0.00    -0.269 OA
HETATM    7  N5  UNL     1      22.821   4.941  50.548  1.00  0.00    -0.353 N 
HETATM    8  H10 UNL     1      22.379   4.438  49.726  1.00  0.00     0.163 HD
BRANCH   7   9
HETATM    9  C13 UNL     1      23.857   5.864  50.181  1.00  0.00     0.161 C 
BRANCH   9  10
HETATM   10  C14 UNL     1      25.112   5.126  49.806  1.00  0.00    -0.038 A 
HETATM   11  C15 UNL     1      25.984   5.894  49.106  1.00  0.00     0.028 A 
HETATM   12  C16 UNL     1      27.174   5.279  48.716  1.00  0.00     0.116 A 
HETATM   13  N6  UNL     1      27.394   3.993  49.043  1.00  0.00    -0.273 NA
HETATM   14  C17 UNL     1      26.436   3.334  49.751  1.00  0.00     0.116 A 
HETATM   15  C18 UNL     1      25.200   3.830  50.204  1.00  0.00     0.028 A 
ENDBRANCH   9  10
ENDBRANCH   7   9
ENDBRANCH   4   5
ENDBRANCH   1   3
BRANCH   1  16
HETATM   16  C4  UNL     1      21.078   0.626  52.955  1.00  0.00     0.281 A 
HETATM   17  N2  UNL     1      20.689  -0.184  53.931  1.00  0.00    -0.215 NA
HETATM   18  C5  UNL     1      21.569  -0.934  54.669  1.00  0.00     0.125 A 
HETATM   19  C6  UNL     1      22.914  -0.724  54.252  1.00  0.00     0.065 A 
HETATM   20  C7  UNL     1      23.443   0.145  53.194  1.00  0.00     0.124 A 
HETATM   21  C8  UNL     1      24.811  -0.176  53.382  1.00  0.00     0.022 A 
HETATM   22  N4  UNL     1      22.269   0.423  53.032  1.00  0.00    -0.369 NA
HETATM   23  C9  UNL     1      25.385   0.595  52.346  1.00  0.00     0.018 A 
HETATM   24  C12 UNL     1      25.662  -0.885  54.147  1.00  0.00     0.131 A 
HETATM   25  C10 UNL     1      26.763   0.579  52.181  1.00  0.00     0.020 A 
HETATM   26  C11 UNL     1      27.603  -0.150  52.974  1.00  0.00     0.116 A 
HETATM   27  N3  UNL     1      26.974  -0.878  53.963  1.00  0.00    -0.272 NA
ENDBRANCH   1  16
TORSDOF 5
ENDMDL
MODEL 7
REMARK VINA RESULT:      -7.7      2.088      5.565
REMARK  5 active torsions:
REMARK  status: ('A' for Active; 'I' for Inactive)
REMARK    1  A    between atoms: C1_2  and  C2_3 
REMARK       I    between atoms: C1_2  and  N5_18 
REMARK    2  A    between atoms: C3_4  and  N1_5 
REMARK    3  A    between atoms: N1_5  and  C4_6 
REMARK    4  A    between atoms: N5_18  and  C13_19 
REMARK    5  A    between atoms: C13_19  and  C14_20 
ROOT
HETATM    1  N1  UNL     1      26.448  -0.275  53.433  1.00  0.00    -0.325 N 
HETATM    2  H3  UNL     1      27.097  -1.041  53.688  1.00  0.00     0.169 HD
ENDROOT
BRANCH   1   3
HETATM    3  C3  UNL     1      25.995   0.951  52.823  1.00  0.00     0.097 C 
HETATM    4  C2  UNL     1      26.763   1.468  51.858  1.00  0.00     0.091 C 
BRANCH   4   5
HETATM    5  C1  UNL     1      26.334   2.718  51.208  1.00  0.00     0.242 C 
HETATM    6  O1  UNL     1      27.207   3.228  50.449  1.00  0.00    -0.269 OA
HETATM    7  N5  UNL     1      25.132   3.386  51.324  1.00  0.00    -0.353 N 
HETATM    8  H10 UNL     1      24.420   2.932  51.965  1.00  0.00     0.163 HD
BRANCH   7   9
HETATM    9  C13 UNL     1      24.675   4.602  50.713  1.00  0.00     0.161 C 
BRANCH   9  10
HETATM   10  C14 UNL     1      23.774   4.300  49.548  1.00  0.00    -0.038 A 
HETATM   11  C15 UNL     1      23.585   5.373  48.738  1.00  0.00     0.028 A 
HETATM   12  C16 UNL     1      22.755   5.175  47.635  1.00  0.00     0.116 A 
HETATM   13  N6  UNL     1      22.200   3.968  47.430  1.00  0.00    -0.273 NA
HETATM   14  C17 UNL     1      22.472   2.973  48.319  1.00  0.00     0.116 A 
HETATM   15  C18 UNL     1      23.285   3.036  49.465  1.00  0.00     0.028 A 
ENDBRANCH   9  10
ENDBRANCH   7   9
ENDBRANCH   4   5
ENDBRANCH   1   3
BRANCH   1  16
HETATM   16  C4  UNL     1      25.228  -0.611  54.068  1.00  0.00     0.281 A 
HETATM   17  N2  UNL     1      24.996  -1.141  55.263  1.00  0.00    -0.215 NA
HETATM   18  C5  UNL     1      23.731  -1.405  55.724  1.00  0.00     0.125 A 
HETATM   19  C6  UNL     1      22.739  -1.043  54.769  1.00  0.00     0.065 A 
HETATM   20  C7  UNL     1      22.893  -0.458  53.432  1.00  0.00     0.124 A 
HETATM   21  C8  UNL     1      21.512  -0.394  53.117  1.00  0.00     0.022 A 
HETATM   22  N4  UNL     1      24.079  -0.513  53.701  1.00  0.00    -0.369 NA
HETATM   23  C9  UNL     1      21.582   0.218  51.845  1.00  0.00     0.018 A 
HETATM   24  C12 UNL     1      20.282  -0.703  53.569  1.00  0.00     0.131 A 
HETATM   25  C10 UNL     1      20.405   0.459  51.150  1.00  0.00     0.020 A 
HETATM   26  C11 UNL     1      19.170   0.135  51.634  1.00  0.00     0.116 A 
HETATM   27  N3  UNL     1      19.178  -0.459  52.880  1.00  0.00    -0.272 NA
ENDBRANCH   1  16
TORSDOF 5
ENDMDL
MODEL 8
REMARK VINA RESULT:      -7.5      4.724      6.972
REMARK  5 active torsions:
REMARK  status: ('A' for Active; 'I' for Inactive)
REMARK    1  A    between atoms: C1_2  and  C2_3 
REMARK       I    between atoms: C1_2  and  N5_18 
REMARK    2  A    between atoms: C3_4  and  N1_5 
REMARK    3  A    between atoms: N1_5  and  C4_6 
REMARK    4  A    between atoms: N5_18  and  C13_19 
REMARK    5  A    between atoms: C13_19  and  C14_20 
ROOT
HETATM    1  N1  UNL     1      25.465   3.405  49.744  1.00  0.00    -0.325 N 
HETATM    2  H3  UNL     1      24.446   3.249  49.637  1.00  0.00     0.169 HD
ENDROOT
BRANCH   1   3
HETATM    3  C3  UNL     1      26.776   3.938  49.466  1.00  0.00     0.097 C 
HETATM    4  C2  UNL     1      26.832   5.144  48.891  1.00  0.00     0.091 C 
BRANCH   4   5
HETATM    5  C1  UNL     1      28.152   5.724  48.592  1.00  0.00     0.242 C 
HETATM    6  O1  UNL     1      28.992   4.889  48.152  1.00  0.00    -0.269 OA
HETATM    7  N5  UNL     1      28.576   7.030  48.733  1.00  0.00    -0.353 N 
HETATM    8  H10 UNL     1      27.848   7.707  49.102  1.00  0.00     0.163 HD
BRANCH   7   9
HETATM    9  C13 UNL     1      29.848   7.634  48.456  1.00  0.00     0.161 C 
BRANCH   9  10
HETATM   10  C14 UNL     1      29.770   9.126  48.624  1.00  0.00    -0.038 A 
HETATM   11  C15 UNL     1      28.573   9.636  48.239  1.00  0.00     0.028 A 
HETATM   12  C16 UNL     1      28.422  11.017  48.359  1.00  0.00     0.116 A 
HETATM   13  N6  UNL     1      29.439  11.757  48.837  1.00  0.00    -0.273 NA
HETATM   14  C17 UNL     1      30.590  11.120  49.190  1.00  0.00     0.116 A 
HETATM   15  C18 UNL     1      30.873   9.744  49.120  1.00  0.00     0.028 A 
ENDBRANCH   9  10
ENDBRANCH   7   9
ENDBRANCH   4   5
ENDBRANCH   1   3
BRANCH   1  16
HETATM   16  C4  UNL     1      25.835   2.606  50.852  1.00  0.00     0.281 A 
HETATM   17  N2  UNL     1      27.020   2.414  51.419  1.00  0.00    -0.215 NA
HETATM   18  C5  UNL     1      27.200   1.593  52.503  1.00  0.00     0.125 A 
HETATM   19  C6  UNL     1      25.976   0.995  52.916  1.00  0.00     0.065 A 
HETATM   20  C7  UNL     1      24.626   1.141  52.359  1.00  0.00     0.124 A 
HETATM   21  C8  UNL     1      23.974   0.272  53.271  1.00  0.00     0.022 A 
HETATM   22  N4  UNL     1      25.184   1.887  51.575  1.00  0.00    -0.369 NA
HETATM   23  C9  UNL     1      22.641   0.406  52.821  1.00  0.00     0.018 A 
HETATM   24  C12 UNL     1      24.179  -0.565  54.305  1.00  0.00     0.131 A 
HETATM   25  C10 UNL     1      21.641  -0.317  53.458  1.00  0.00     0.020 A 
HETATM   26  C11 UNL     1      21.879  -1.160  54.506  1.00  0.00     0.116 A 
HETATM   27  N3  UNL     1      23.202  -1.241  54.891  1.00  0.00    -0.272 NA
ENDBRANCH   1  16
TORSDOF 5
ENDMDL
MODEL 9
REMARK VINA RESULT:      -7.5      2.368      4.808
REMARK  5 active torsions:
REMARK  status: ('A' for Active; 'I' for Inactive)
REMARK    1  A    between atoms: C1_2  and  C2_3 
REMARK       I    between atoms: C1_2  and  N5_18 
REMARK    2  A    between atoms: C3_4  and  N1_5 
REMARK    3  A    between atoms: N1_5  and  C4_6 
REMARK    4  A    between atoms: N5_18  and  C13_19 
REMARK    5  A    between atoms: C13_19  and  C14_20 
ROOT
HETATM    1  N1  UNL     1      20.492   0.203  52.160  1.00  0.00    -0.325 N 
HETATM    2  H3  UNL     1      19.538  -0.011  51.815  1.00  0.00     0.169 HD
ENDROOT
BRANCH   1   3
HETATM    3  C3  UNL     1      21.795  -0.033  52.730  1.00  0.00     0.097 C 
HETATM    4  C2  UNL     1      21.833  -0.560  53.959  1.00  0.00     0.091 C 
BRANCH   4   5
HETATM    5  C1  UNL     1      23.145  -0.818  54.576  1.00  0.00     0.242 C 
HETATM    6  O1  UNL     1      23.093  -1.534  55.615  1.00  0.00    -0.269 OA
HETATM    7  N5  UNL     1      24.392  -0.382  54.173  1.00  0.00    -0.353 N 
HETATM    8  H10 UNL     1      24.404   0.215  53.297  1.00  0.00     0.163 HD
BRANCH   7   9
HETATM    9  C13 UNL     1      25.690  -0.608  54.743  1.00  0.00     0.161 C 
BRANCH   9  10
HETATM   10  C14 UNL     1      26.703   0.320  54.131  1.00  0.00    -0.038 A 
HETATM   11  C15 UNL     1      27.954   0.129  54.622  1.00  0.00     0.028 A 
HETATM   12  C16 UNL     1      28.952   0.956  54.107  1.00  0.00     0.116 A 
HETATM   13  N6  UNL     1      28.638   1.874  53.175  1.00  0.00    -0.273 NA
HETATM   14  C17 UNL     1      27.342   1.962  52.767  1.00  0.00     0.116 A 
HETATM   15  C18 UNL     1      26.245   1.197  53.201  1.00  0.00     0.028 A 
ENDBRANCH   9  10
ENDBRANCH   7   9
ENDBRANCH   4   5
ENDBRANCH   1   3
BRANCH   1  16
HETATM   16  C4  UNL     1      20.641   1.596  51.960  1.00  0.00     0.281 A 
HETATM   17  N2  UNL     1      19.801   2.596  52.196  1.00  0.00    -0.215 NA
HETATM   18  C5  UNL     1      20.115   3.906  51.939  1.00  0.00     0.125 A 
HETATM   19  C6  UNL     1      21.425   4.034  51.398  1.00  0.00     0.065 A 
HETATM   20  C7  UNL     1      22.422   2.999  51.099  1.00  0.00     0.124 A 
HETATM   21  C8  UNL     1      23.426   3.870  50.606  1.00  0.00     0.022 A 
HETATM   22  N4  UNL     1      21.561   2.249  51.522  1.00  0.00    -0.369 NA
HETATM   23  C9  UNL     1      24.452   2.934  50.345  1.00  0.00     0.018 A 
HETATM   24  C12 UNL     1      23.698   5.157  50.317  1.00  0.00     0.131 A 
HETATM   25  C10 UNL     1      25.654   3.385  49.817  1.00  0.00     0.020 A 
HETATM   26  C11 UNL     1      25.902   4.698  49.533  1.00  0.00     0.116 A 
HETATM   27  N3  UNL     1      24.857   5.554  49.814  1.00  0.00    -0.272 NA
ENDBRANCH   1  16
TORSDOF 5
ENDMDL
