MODEL 1
REMARK VINA RESULT:      -7.1      0.000      0.000
REMARK  7 active torsions:
REMARK  status: ('A' for Active; 'I' for Inactive)
REMARK    1  A    between atoms: C2_2  and  C3_3 
REMARK    2  A    between atoms: C5_5  and  O1_6 
REMARK    3  A    between atoms: O1_6  and  C6_7 
REMARK    4  A    between atoms: C6_7  and  N1_9 
REMARK    5  A    between atoms: N1_9  and  C8_10 
REMARK    6  A    between atoms: C14_17  and  N3_18 
REMARK    7  A    between atoms: N3_18  and  C15_19 
ROOT
HETATM    1  C3  UNL     1      24.531   0.480  52.944  1.00  0.00    -0.029 A 
HETATM    2  C4  UNL     1      23.710   1.159  52.088  1.00  0.00     0.046 A 
HETATM    3  C5  UNL     1      24.243   2.062  51.201  1.00  0.00     0.072 A 
HETATM    4  C12 UNL     1      25.587   2.305  51.147  1.00  0.00     0.039 A 
HETATM    5  C13 UNL     1      26.456   1.615  52.024  1.00  0.00     0.032 A 
HETATM    6  C14 UNL     1      25.865   0.692  52.924  1.00  0.00     0.036 A 
ENDROOT
BRANCH   3   7
HETATM    7  O1  UNL     1      23.202   2.596  50.478  1.00  0.00    -0.316 OA
BRANCH   7   8
HETATM    8  C6  UNL     1      23.344   3.372  49.288  1.00  0.00     0.358 C 
HETATM    9  C7  UNL     1      22.761   2.592  48.163  1.00  0.00     0.074 C 
BRANCH   8  10
HETATM   10  N1  UNL     1      22.709   4.626  49.584  1.00  0.00     0.118 N 
HETATM   11  H11 UNL     1      21.872   4.440  50.165  1.00  0.00     0.319 HD
BRANCH  10  12
HETATM   12  C8  UNL     1      23.453   5.691  50.060  1.00  0.00     0.253 C 
HETATM   13  C9  UNL     1      24.925   5.734  49.821  1.00  0.00     0.067 C 
HETATM   14  C10 UNL     1      25.199   7.078  50.531  1.00  0.00     0.272 C 
HETATM   15  N2  UNL     1      24.536   6.846  51.798  1.00  0.00     0.085 N 
HETATM   16  C11 UNL     1      23.445   5.909  51.560  1.00  0.00     0.305 C 
HETATM   17  H17 UNL     1      25.227   6.511  52.487  1.00  0.00     0.315 HD
ENDBRANCH  10  12
ENDBRANCH   8  10
ENDBRANCH   7   8
ENDBRANCH   3   7
BRANCH   1  18
HETATM   18  C2  UNL     1      24.164  -0.526  53.972  1.00  0.00     0.036 C 
HETATM   19  C1  UNL     1      22.711  -0.853  54.021  1.00  0.00     0.010 C 
ENDBRANCH   1  18
BRANCH   6  20
HETATM   20  N3  UNL     1      27.033   0.259  53.588  1.00  0.00    -0.366 N 
HETATM   21  H22 UNL     1      27.324  -0.384  52.779  1.00  0.00     0.161 HD
BRANCH  20  22
HETATM   22  C15 UNL     1      28.190  -0.145  54.302  1.00  0.00     0.209 A 
HETATM   23  C16 UNL     1      29.471   0.477  53.805  1.00  0.00     0.095 A 
HETATM   24  C17 UNL     1      29.768  -0.855  53.403  1.00  0.00     0.089 A 
HETATM   25  N4  UNL     1      28.738  -1.381  53.798  1.00  0.00    -0.280 NA
ENDBRANCH  20  22
ENDBRANCH   6  20
TORSDOF 7
ENDMDL
MODEL 2
REMARK VINA RESULT:      -6.9      3.335      5.467
REMARK  7 active torsions:
REMARK  status: ('A' for Active; 'I' for Inactive)
REMARK    1  A    between atoms: C2_2  and  C3_3 
REMARK    2  A    between atoms: C5_5  and  O1_6 
REMARK    3  A    between atoms: O1_6  and  C6_7 
REMARK    4  A    between atoms: C6_7  and  N1_9 
REMARK    5  A    between atoms: N1_9  and  C8_10 
REMARK    6  A    between atoms: C14_17  and  N3_18 
REMARK    7  A    between atoms: N3_18  and  C15_19 
ROOT
HETATM    1  C3  UNL     1      25.435   1.580  51.958  1.00  0.00    -0.029 A 
HETATM    2  C4  UNL     1      24.128   1.686  51.575  1.00  0.00     0.046 A 
HETATM    3  C5  UNL     1      23.169   0.925  52.198  1.00  0.00     0.072 A 
HETATM    4  C12 UNL     1      23.487   0.053  53.201  1.00  0.00     0.039 A 
HETATM    5  C13 UNL     1      24.834  -0.075  53.614  1.00  0.00     0.032 A 
HETATM    6  C14 UNL     1      25.792   0.729  52.945  1.00  0.00     0.036 A 
ENDROOT
BRANCH   3   7
HETATM    7  O1  UNL     1      21.959   1.225  51.615  1.00  0.00    -0.316 OA
BRANCH   7   8
HETATM    8  C6  UNL     1      20.695   1.159  52.274  1.00  0.00     0.358 C 
HETATM    9  C7  UNL     1      20.231   2.553  52.511  1.00  0.00     0.074 C 
BRANCH   8  10
HETATM   10  N1  UNL     1      19.870   0.355  51.415  1.00  0.00     0.118 N 
HETATM   11  H11 UNL     1      20.485  -0.165  50.763  1.00  0.00     0.319 HD
BRANCH  10  12
HETATM   12  C8  UNL     1      18.875  -0.444  51.949  1.00  0.00     0.253 C 
HETATM   13  C9  UNL     1      17.476   0.067  52.027  1.00  0.00     0.067 C 
HETATM   14  C10 UNL     1      16.845  -1.191  52.665  1.00  0.00     0.272 C 
HETATM   15  N2  UNL     1      17.750  -1.406  53.776  1.00  0.00     0.085 N 
HETATM   16  C11 UNL     1      19.055  -0.882  53.388  1.00  0.00     0.305 C 
HETATM   17  H17 UNL     1      17.361  -0.963  54.622  1.00  0.00     0.315 HD
ENDBRANCH  10  12
ENDBRANCH   8  10
ENDBRANCH   7   8
ENDBRANCH   3   7
BRANCH   1  18
HETATM   18  C2  UNL     1      26.616   2.300  51.420  1.00  0.00     0.036 C 
HETATM   19  C1  UNL     1      26.368   3.012  50.135  1.00  0.00     0.010 C 
ENDBRANCH   1  18
BRANCH   6  20
HETATM   20  N3  UNL     1      26.950   0.299  53.627  1.00  0.00    -0.366 N 
HETATM   21  H22 UNL     1      26.889  -0.695  53.224  1.00  0.00     0.161 HD
BRANCH  20  22
HETATM   22  C15 UNL     1      28.117  -0.081  54.339  1.00  0.00     0.209 A 
HETATM   23  C16 UNL     1      29.394   0.506  53.789  1.00  0.00     0.095 A 
HETATM   24  C17 UNL     1      29.672  -0.846  53.446  1.00  0.00     0.089 A 
HETATM   25  N4  UNL     1      28.647  -1.344  53.884  1.00  0.00    -0.280 NA
ENDBRANCH  20  22
ENDBRANCH   6  20
TORSDOF 7
ENDMDL
MODEL 3
REMARK VINA RESULT:      -6.8      1.445      2.537
REMARK  7 active torsions:
REMARK  status: ('A' for Active; 'I' for Inactive)
REMARK    1  A    between atoms: C2_2  and  C3_3 
REMARK    2  A    between atoms: C5_5  and  O1_6 
REMARK    3  A    between atoms: O1_6  and  C6_7 
REMARK    4  A    between atoms: C6_7  and  N1_9 
REMARK    5  A    between atoms: N1_9  and  C8_10 
REMARK    6  A    between atoms: C14_17  and  N3_18 
REMARK    7  A    between atoms: N3_18  and  C15_19 
ROOT
HETATM    1  C3  UNL     1      25.509   1.449  52.011  1.00  0.00    -0.029 A 
HETATM    2  C4  UNL     1      24.209   1.522  51.599  1.00  0.00     0.046 A 
HETATM    3  C5  UNL     1      23.248   0.770  52.230  1.00  0.00     0.072 A 
HETATM    4  C12 UNL     1      23.557  -0.061  53.270  1.00  0.00     0.039 A 
HETATM    5  C13 UNL     1      24.897  -0.154  53.713  1.00  0.00     0.032 A 
HETATM    6  C14 UNL     1      25.858   0.639  53.035  1.00  0.00     0.036 A 
ENDROOT
BRANCH   3   7
HETATM    7  O1  UNL     1      22.046   1.032  51.613  1.00  0.00    -0.316 OA
BRANCH   7   8
HETATM    8  C6  UNL     1      21.879   1.861  50.464  1.00  0.00     0.358 C 
HETATM    9  C7  UNL     1      21.275   1.031  49.386  1.00  0.00     0.074 C 
BRANCH   8  10
HETATM   10  N1  UNL     1      21.093   2.974  50.920  1.00  0.00     0.118 N 
HETATM   11  H11 UNL     1      20.631   2.706  51.808  1.00  0.00     0.319 HD
BRANCH  10  12
HETATM   12  C8  UNL     1      21.644   4.243  50.976  1.00  0.00     0.253 C 
HETATM   13  C9  UNL     1      22.792   4.592  50.091  1.00  0.00     0.067 C 
HETATM   14  C10 UNL     1      22.962   6.054  50.562  1.00  0.00     0.272 C 
HETATM   15  N2  UNL     1      23.004   5.865  51.998  1.00  0.00     0.085 N 
HETATM   16  C11 UNL     1      22.223   4.673  52.309  1.00  0.00     0.305 C 
HETATM   17  H17 UNL     1      23.987   5.807  52.305  1.00  0.00     0.315 HD
ENDBRANCH  10  12
ENDBRANCH   8  10
ENDBRANCH   7   8
ENDBRANCH   3   7
BRANCH   1  18
HETATM   18  C2  UNL     1      26.691   2.167  51.471  1.00  0.00     0.036 C 
HETATM   19  C1  UNL     1      26.422   2.942  50.227  1.00  0.00     0.010 C 
ENDBRANCH   1  18
BRANCH   6  20
HETATM   20  N3  UNL     1      27.007   0.250  53.754  1.00  0.00    -0.366 N 
HETATM   21  H22 UNL     1      26.463  -0.449  54.360  1.00  0.00     0.161 HD
BRANCH  20  22
HETATM   22  C15 UNL     1      28.194  -0.101  54.448  1.00  0.00     0.209 A 
HETATM   23  C16 UNL     1      29.426   0.630  53.973  1.00  0.00     0.095 A 
HETATM   24  C17 UNL     1      29.813  -0.660  53.515  1.00  0.00     0.089 A 
HETATM   25  N4  UNL     1      28.826  -1.272  53.891  1.00  0.00    -0.280 NA
ENDBRANCH  20  22
ENDBRANCH   6  20
TORSDOF 7
ENDMDL
MODEL 4
REMARK VINA RESULT:      -6.8      3.130      4.863
REMARK  7 active torsions:
REMARK  status: ('A' for Active; 'I' for Inactive)
REMARK    1  A    between atoms: C2_2  and  C3_3 
REMARK    2  A    between atoms: C5_5  and  O1_6 
REMARK    3  A    between atoms: O1_6  and  C6_7 
REMARK    4  A    between atoms: C6_7  and  N1_9 
REMARK    5  A    between atoms: N1_9  and  C8_10 
REMARK    6  A    between atoms: C14_17  and  N3_18 
REMARK    7  A    between atoms: N3_18  and  C15_19 
ROOT
HETATM    1  C3  UNL     1      24.170  -0.035  53.689  1.00  0.00    -0.029 A 
HETATM    2  C4  UNL     1      23.121   0.379  52.917  1.00  0.00     0.046 A 
HETATM    3  C5  UNL     1      23.329   1.299  51.918  1.00  0.00     0.072 A 
HETATM    4  C12 UNL     1      24.568   1.820  51.671  1.00  0.00     0.039 A 
HETATM    5  C13 UNL     1      25.668   1.407  52.459  1.00  0.00     0.032 A 
HETATM    6  C14 UNL     1      25.410   0.456  53.479  1.00  0.00     0.036 A 
ENDROOT
BRANCH   3   7
HETATM    7  O1  UNL     1      22.116   1.535  51.314  1.00  0.00    -0.316 OA
BRANCH   7   8
HETATM    8  C6  UNL     1      20.871   1.666  52.000  1.00  0.00     0.358 C 
HETATM    9  C7  UNL     1      20.563   3.117  52.114  1.00  0.00     0.074 C 
BRANCH   8  10
HETATM   10  N1  UNL     1      19.942   0.880  51.235  1.00  0.00     0.118 N 
HETATM   11  H11 UNL     1      20.422   0.546  50.380  1.00  0.00     0.319 HD
BRANCH  10  12
HETATM   12  C8  UNL     1      19.200  -0.116  51.845  1.00  0.00     0.253 C 
HETATM   13  C9  UNL     1      17.723   0.039  51.984  1.00  0.00     0.067 C 
HETATM   14  C10 UNL     1      17.452  -1.308  52.692  1.00  0.00     0.272 C 
HETATM   15  N2  UNL     1      18.432  -1.246  53.758  1.00  0.00     0.085 N 
HETATM   16  C11 UNL     1      19.548  -0.435  53.285  1.00  0.00     0.305 C 
HETATM   17  H17 UNL     1      17.983  -0.877  54.611  1.00  0.00     0.315 HD
ENDBRANCH  10  12
ENDBRANCH   8  10
ENDBRANCH   7   8
ENDBRANCH   3   7
BRANCH   1  18
HETATM   18  C2  UNL     1      24.162  -1.008  54.810  1.00  0.00     0.036 C 
HETATM   19  C1  UNL     1      22.802  -1.386  55.287  1.00  0.00     0.010 C 
ENDBRANCH   1  18
BRANCH   6  20
HETATM   20  N3  UNL     1      26.715   0.340  54.002  1.00  0.00    -0.366 N 
HETATM   21  H22 UNL     1      27.104   1.108  53.360  1.00  0.00     0.161 HD
BRANCH  20  22
HETATM   22  C15 UNL     1      28.009   0.178  54.562  1.00  0.00     0.209 A 
HETATM   23  C16 UNL     1      29.093   0.945  53.845  1.00  0.00     0.095 A 
HETATM   24  C17 UNL     1      29.545  -0.354  53.485  1.00  0.00     0.089 A 
HETATM   25  N4  UNL     1      28.678  -0.996  54.059  1.00  0.00    -0.280 NA
ENDBRANCH  20  22
ENDBRANCH   6  20
TORSDOF 7
ENDMDL
MODEL 5
REMARK VINA RESULT:      -6.5      2.334      3.770
REMARK  7 active torsions:
REMARK  status: ('A' for Active; 'I' for Inactive)
REMARK    1  A    between atoms: C2_2  and  C3_3 
REMARK    2  A    between atoms: C5_5  and  O1_6 
REMARK    3  A    between atoms: O1_6  and  C6_7 
REMARK    4  A    between atoms: C6_7  and  N1_9 
REMARK    5  A    between atoms: N1_9  and  C8_10 
REMARK    6  A    between atoms: C14_17  and  N3_18 
REMARK    7  A    between atoms: N3_18  and  C15_19 
ROOT
HETATM    1  C3  UNL     1      25.522   1.695  51.863  1.00  0.00    -0.029 A 
HETATM    2  C4  UNL     1      24.238   1.795  51.406  1.00  0.00     0.046 A 
HETATM    3  C5  UNL     1      23.242   1.061  52.002  1.00  0.00     0.072 A 
HETATM    4  C12 UNL     1      23.499   0.223  53.050  1.00  0.00     0.039 A 
HETATM    5  C13 UNL     1      24.820   0.102  53.539  1.00  0.00     0.032 A 
HETATM    6  C14 UNL     1      25.819   0.877  52.897  1.00  0.00     0.036 A 
ENDROOT
BRANCH   3   7
HETATM    7  O1  UNL     1      22.068   1.347  51.345  1.00  0.00    -0.316 OA
BRANCH   7   8
HETATM    8  C6  UNL     1      21.208   0.379  50.744  1.00  0.00     0.358 C 
HETATM    9  C7  UNL     1      19.855   0.536  51.343  1.00  0.00     0.074 C 
BRANCH   8  10
HETATM   10  N1  UNL     1      21.307   0.620  49.331  1.00  0.00     0.118 N 
HETATM   11  H11 UNL     1      20.558   0.085  48.855  1.00  0.00     0.319 HD
BRANCH  10  12
HETATM   12  C8  UNL     1      21.420   1.911  48.849  1.00  0.00     0.253 C 
HETATM   13  C9  UNL     1      20.244   2.570  48.210  1.00  0.00     0.067 C 
HETATM   14  C10 UNL     1      20.925   3.921  47.894  1.00  0.00     0.272 C 
HETATM   15  N2  UNL     1      22.126   3.460  47.227  1.00  0.00     0.085 N 
HETATM   16  C11 UNL     1      22.449   2.141  47.760  1.00  0.00     0.305 C 
HETATM   17  H17 UNL     1      21.972   3.468  46.206  1.00  0.00     0.315 HD
ENDBRANCH  10  12
ENDBRANCH   8  10
ENDBRANCH   7   8
ENDBRANCH   3   7
BRANCH   1  18
HETATM   18  C2  UNL     1      26.736   2.390  51.366  1.00  0.00     0.036 C 
HETATM   19  C1  UNL     1      26.542   3.120  50.081  1.00  0.00     0.010 C 
ENDBRANCH   1  18
BRANCH   6  20
HETATM   20  N3  UNL     1      26.935   0.464  53.655  1.00  0.00    -0.366 N 
HETATM   21  H22 UNL     1      26.481   0.748  54.586  1.00  0.00     0.161 HD
BRANCH  20  22
HETATM   22  C15 UNL     1      28.086   0.037  54.367  1.00  0.00     0.209 A 
HETATM   23  C16 UNL     1      29.385   0.581  53.826  1.00  0.00     0.095 A 
HETATM   24  C17 UNL     1      29.615  -0.777  53.472  1.00  0.00     0.089 A 
HETATM   25  N4  UNL     1      28.570  -1.241  53.903  1.00  0.00    -0.280 NA
ENDBRANCH  20  22
ENDBRANCH   6  20
TORSDOF 7
ENDMDL
MODEL 6
REMARK VINA RESULT:      -6.4      1.945      2.173
REMARK  7 active torsions:
REMARK  status: ('A' for Active; 'I' for Inactive)
REMARK    1  A    between atoms: C2_2  and  C3_3 
REMARK    2  A    between atoms: C5_5  and  O1_6 
REMARK    3  A    between atoms: O1_6  and  C6_7 
REMARK    4  A    between atoms: C6_7  and  N1_9 
REMARK    5  A    between atoms: N1_9  and  C8_10 
REMARK    6  A    between atoms: C14_17  and  N3_18 
REMARK    7  A    between atoms: N3_18  and  C15_19 
ROOT
HETATM    1  C3  UNL     1      23.059  -0.026  53.263  1.00  0.00    -0.029 A 
HETATM    2  C4  UNL     1      22.124   0.349  52.340  1.00  0.00     0.046 A 
HETATM    3  C5  UNL     1      22.471   1.205  51.324  1.00  0.00     0.072 A 
HETATM    4  C12 UNL     1      23.740   1.699  51.206  1.00  0.00     0.039 A 
HETATM    5  C13 UNL     1      24.725   1.325  52.150  1.00  0.00     0.032 A 
HETATM    6  C14 UNL     1      24.325   0.440  53.183  1.00  0.00     0.036 A 
ENDROOT
BRANCH   3   7
HETATM    7  O1  UNL     1      21.348   1.416  50.557  1.00  0.00    -0.316 OA
BRANCH   7   8
HETATM    8  C6  UNL     1      21.037   2.632  49.878  1.00  0.00     0.358 C 
HETATM    9  C7  UNL     1      20.243   2.288  48.668  1.00  0.00     0.074 C 
BRANCH   8  10
HETATM   10  N1  UNL     1      20.375   3.446  50.860  1.00  0.00     0.118 N 
HETATM   11  H11 UNL     1      20.260   2.888  51.725  1.00  0.00     0.319 HD
BRANCH  10  12
HETATM   12  C8  UNL     1      20.819   4.731  51.117  1.00  0.00     0.253 C 
HETATM   13  C9  UNL     1      21.253   5.606  49.990  1.00  0.00     0.067 C 
HETATM   14  C10 UNL     1      21.612   6.848  50.835  1.00  0.00     0.272 C 
HETATM   15  N2  UNL     1      22.465   6.245  51.839  1.00  0.00     0.085 N 
HETATM   16  C11 UNL     1      22.036   4.862  52.010  1.00  0.00     0.305 C 
HETATM   17  H17 UNL     1      23.451   6.340  51.550  1.00  0.00     0.315 HD
ENDBRANCH  10  12
ENDBRANCH   8  10
ENDBRANCH   7   8
ENDBRANCH   3   7
BRANCH   1  18
HETATM   18  C2  UNL     1      22.894  -0.929  54.429  1.00  0.00     0.036 C 
HETATM   19  C1  UNL     1      21.617  -1.697  54.436  1.00  0.00     0.010 C 
ENDBRANCH   1  18
BRANCH   6  20
HETATM   20  N3  UNL     1      25.551   0.344  53.874  1.00  0.00    -0.366 N 
HETATM   21  H22 UNL     1      25.768   1.389  53.753  1.00  0.00     0.161 HD
BRANCH  20  22
HETATM   22  C15 UNL     1      26.776   0.189  54.573  1.00  0.00     0.209 A 
HETATM   23  C16 UNL     1      27.910   1.018  54.024  1.00  0.00     0.095 A 
HETATM   24  C17 UNL     1      28.442  -0.250  53.661  1.00  0.00     0.089 A 
HETATM   25  N4  UNL     1      27.536  -0.942  54.099  1.00  0.00    -0.280 NA
ENDBRANCH  20  22
ENDBRANCH   6  20
TORSDOF 7
ENDMDL
MODEL 7
REMARK VINA RESULT:      -6.4      2.558      6.931
REMARK  7 active torsions:
REMARK  status: ('A' for Active; 'I' for Inactive)
REMARK    1  A    between atoms: C2_2  and  C3_3 
REMARK    2  A    between atoms: C5_5  and  O1_6 
REMARK    3  A    between atoms: O1_6  and  C6_7 
REMARK    4  A    between atoms: C6_7  and  N1_9 
REMARK    5  A    between atoms: N1_9  and  C8_10 
REMARK    6  A    between atoms: C14_17  and  N3_18 
REMARK    7  A    between atoms: N3_18  and  C15_19 
ROOT
HETATM    1  C3  UNL     1      24.886   5.349  49.761  1.00  0.00    -0.029 A 
HETATM    2  C4  UNL     1      24.504   4.174  50.344  1.00  0.00     0.046 A 
HETATM    3  C5  UNL     1      25.358   3.098  50.338  1.00  0.00     0.072 A 
HETATM    4  C12 UNL     1      26.594   3.169  49.760  1.00  0.00     0.039 A 
HETATM    5  C13 UNL     1      27.011   4.375  49.150  1.00  0.00     0.032 A 
HETATM    6  C14 UNL     1      26.099   5.461  49.177  1.00  0.00     0.036 A 
ENDROOT
BRANCH   3   7
HETATM    7  O1  UNL     1      24.722   2.060  50.978  1.00  0.00    -0.316 OA
BRANCH   7   8
HETATM    8  C6  UNL     1      24.991   1.633  52.313  1.00  0.00     0.358 C 
HETATM    9  C7  UNL     1      23.710   1.169  52.911  1.00  0.00     0.074 C 
BRANCH   8  10
HETATM   10  N1  UNL     1      26.024   0.642  52.184  1.00  0.00     0.118 N 
HETATM   11  H11 UNL     1      26.237   0.520  51.177  1.00  0.00     0.319 HD
BRANCH  10  12
HETATM   12  C8  UNL     1      27.169   0.721  52.957  1.00  0.00     0.253 C 
HETATM   13  C9  UNL     1      27.148   0.227  54.365  1.00  0.00     0.067 C 
HETATM   14  C10 UNL     1      28.622   0.546  54.704  1.00  0.00     0.272 C 
HETATM   15  N2  UNL     1      28.698   1.927  54.273  1.00  0.00     0.085 N 
HETATM   16  C11 UNL     1      27.735   2.106  53.193  1.00  0.00     0.305 C 
HETATM   17  H17 UNL     1      28.533   2.546  55.083  1.00  0.00     0.315 HD
ENDBRANCH  10  12
ENDBRANCH   8  10
ENDBRANCH   7   8
ENDBRANCH   3   7
BRANCH   1  18
HETATM   18  C2  UNL     1      24.122   6.617  49.655  1.00  0.00     0.036 C 
HETATM   19  C1  UNL     1      24.090   7.422  50.909  1.00  0.00     0.010 C 
ENDBRANCH   1  18
BRANCH   6  20
HETATM   20  N3  UNL     1      26.874   6.413  48.482  1.00  0.00    -0.366 N 
HETATM   21  H22 UNL     1      27.087   5.738  47.676  1.00  0.00     0.161 HD
BRANCH  20  22
HETATM   22  C15 UNL     1      27.645   7.409  47.829  1.00  0.00     0.209 A 
HETATM   23  C16 UNL     1      29.026   6.954  47.424  1.00  0.00     0.095 A 
HETATM   24  C17 UNL     1      29.442   7.881  48.419  1.00  0.00     0.089 A 
HETATM   25  N4  UNL     1      28.335   8.265  48.762  1.00  0.00    -0.280 NA
ENDBRANCH  20  22
ENDBRANCH   6  20
TORSDOF 7
ENDMDL
MODEL 8
REMARK VINA RESULT:      -6.2      3.030      8.157
REMARK  7 active torsions:
REMARK  status: ('A' for Active; 'I' for Inactive)
REMARK    1  A    between atoms: C2_2  and  C3_3 
REMARK    2  A    between atoms: C5_5  and  O1_6 
REMARK    3  A    between atoms: O1_6  and  C6_7 
REMARK    4  A    between atoms: C6_7  and  N1_9 
REMARK    5  A    between atoms: N1_9  and  C8_10 
REMARK    6  A    between atoms: C14_17  and  N3_18 
REMARK    7  A    between atoms: N3_18  and  C15_19 
ROOT
HETATM    1  C3  UNL     1      27.567   5.827  48.556  1.00  0.00    -0.029 A 
HETATM    2  C4  UNL     1      27.219   4.576  48.981  1.00  0.00     0.046 A 
HETATM    3  C5  UNL     1      26.062   4.395  49.697  1.00  0.00     0.072 A 
HETATM    4  C12 UNL     1      25.237   5.441  50.001  1.00  0.00     0.039 A 
HETATM    5  C13 UNL     1      25.577   6.746  49.573  1.00  0.00     0.032 A 
HETATM    6  C14 UNL     1      26.780   6.889  48.836  1.00  0.00     0.036 A 
ENDROOT
BRANCH   3   7
HETATM    7  O1  UNL     1      25.965   3.056  49.998  1.00  0.00    -0.316 OA
BRANCH   7   8
HETATM    8  C6  UNL     1      25.821   2.521  51.313  1.00  0.00     0.358 C 
HETATM    9  C7  UNL     1      24.460   1.929  51.418  1.00  0.00     0.074 C 
BRANCH   8  10
HETATM   10  N1  UNL     1      26.921   1.608  51.465  1.00  0.00     0.118 N 
HETATM   11  H11 UNL     1      27.773   2.056  51.080  1.00  0.00     0.319 HD
BRANCH  10  12
HETATM   12  C8  UNL     1      27.154   0.991  52.681  1.00  0.00     0.253 C 
HETATM   13  C9  UNL     1      28.434   1.238  53.405  1.00  0.00     0.067 C 
HETATM   14  C10 UNL     1      28.142   0.343  54.630  1.00  0.00     0.272 C 
HETATM   15  N2  UNL     1      27.745  -0.884  53.970  1.00  0.00     0.085 N 
HETATM   16  C11 UNL     1      27.163  -0.524  52.682  1.00  0.00     0.305 C 
HETATM   17  H17 UNL     1      28.563  -1.509  53.894  1.00  0.00     0.315 HD
ENDBRANCH  10  12
ENDBRANCH   8  10
ENDBRANCH   7   8
ENDBRANCH   3   7
BRANCH   1  18
HETATM   18  C2  UNL     1      28.764   6.239  47.780  1.00  0.00     0.036 C 
HETATM   19  C1  UNL     1      30.061   5.834  48.391  1.00  0.00     0.010 C 
ENDBRANCH   1  18
BRANCH   6  20
HETATM   20  N3  UNL     1      26.743   8.284  48.628  1.00  0.00    -0.366 N 
HETATM   21  H22 UNL     1      26.415   8.182  47.611  1.00  0.00     0.161 HD
BRANCH  20  22
HETATM   22  C15 UNL     1      26.727   9.694  48.474  1.00  0.00     0.209 A 
HETATM   23  C16 UNL     1      27.915  10.248  47.727  1.00  0.00     0.095 A 
HETATM   24  C17 UNL     1      28.238  10.811  48.992  1.00  0.00     0.089 A 
HETATM   25  N4  UNL     1      27.284  10.375  49.617  1.00  0.00    -0.280 NA
ENDBRANCH  20  22
ENDBRANCH   6  20
TORSDOF 7
ENDMDL
MODEL 9
REMARK VINA RESULT:      -6.2      3.752      7.748
REMARK  7 active torsions:
REMARK  status: ('A' for Active; 'I' for Inactive)
REMARK    1  A    between atoms: C2_2  and  C3_3 
REMARK    2  A    between atoms: C5_5  and  O1_6 
REMARK    3  A    between atoms: O1_6  and  C6_7 
REMARK    4  A    between atoms: C6_7  and  N1_9 
REMARK    5  A    between atoms: N1_9  and  C8_10 
REMARK    6  A    between atoms: C14_17  and  N3_18 
REMARK    7  A    between atoms: N3_18  and  C15_19 
ROOT
HETATM    1  C3  UNL     1      28.320   5.796  48.321  1.00  0.00    -0.029 A 
HETATM    2  C4  UNL     1      27.576   4.712  48.695  1.00  0.00     0.046 A 
HETATM    3  C5  UNL     1      26.290   4.887  49.143  1.00  0.00     0.072 A 
HETATM    4  C12 UNL     1      25.724   6.128  49.229  1.00  0.00     0.039 A 
HETATM    5  C13 UNL     1      26.475   7.265  48.849  1.00  0.00     0.032 A 
HETATM    6  C14 UNL     1      27.798   7.040  48.392  1.00  0.00     0.036 A 
ENDROOT
BRANCH   3   7
HETATM    7  O1  UNL     1      25.787   3.645  49.453  1.00  0.00    -0.316 OA
BRANCH   7   8
HETATM    8  C6  UNL     1      24.514   3.403  50.053  1.00  0.00     0.358 C 
HETATM    9  C7  UNL     1      23.553   3.073  48.966  1.00  0.00     0.074 C 
BRANCH   8  10
HETATM   10  N1  UNL     1      24.751   2.371  51.024  1.00  0.00     0.118 N 
HETATM   11  H11 UNL     1      24.751   1.457  50.536  1.00  0.00     0.319 HD
BRANCH  10  12
HETATM   12  C8  UNL     1      25.794   2.486  51.926  1.00  0.00     0.253 C 
HETATM   13  C9  UNL     1      26.863   1.446  51.960  1.00  0.00     0.067 C 
HETATM   14  C10 UNL     1      27.709   2.074  53.091  1.00  0.00     0.272 C 
HETATM   15  N2  UNL     1      26.686   2.295  54.092  1.00  0.00     0.085 N 
HETATM   16  C11 UNL     1      25.422   2.500  53.395  1.00  0.00     0.305 C 
HETATM   17  H17 UNL     1      26.673   1.497  54.747  1.00  0.00     0.315 HD
ENDBRANCH  10  12
ENDBRANCH   8  10
ENDBRANCH   7   8
ENDBRANCH   3   7
BRANCH   1  18
HETATM   18  C2  UNL     1      29.715   5.828  47.816  1.00  0.00     0.036 C 
HETATM   19  C1  UNL     1      30.750   5.976  48.878  1.00  0.00     0.010 C 
ENDBRANCH   1  18
BRANCH   6  20
HETATM   20  N3  UNL     1      28.172   8.378  48.141  1.00  0.00    -0.366 N 
HETATM   21  H22 UNL     1      27.153   8.711  48.074  1.00  0.00     0.161 HD
BRANCH  20  22
HETATM   22  C15 UNL     1      28.604   9.705  47.889  1.00  0.00     0.209 A 
HETATM   23  C16 UNL     1      30.093   9.845  47.696  1.00  0.00     0.095 A 
HETATM   24  C17 UNL     1      30.021  10.549  48.929  1.00  0.00     0.089 A 
HETATM   25  N4  UNL     1      28.817  10.450  49.107  1.00  0.00    -0.280 NA
ENDBRANCH  20  22
ENDBRANCH   6  20
TORSDOF 7
ENDMDL
