MODEL 1
REMARK VINA RESULT:     -10.3      0.000      0.000
REMARK  4 active torsions:
REMARK  status: ('A' for Active; 'I' for Inactive)
REMARK    1  A    between atoms: C6_6  and  C7_7 
REMARK    2  A    between atoms: C8_8  and  C9_9 
REMARK    3  A    between atoms: C9_9  and  C10_11 
REMARK    4  A    between atoms: N5_28  and  C23_29 
ROOT
HETATM    1  C10 UNL     1      25.964   2.665  50.859  1.00  0.00     0.282 C 
HETATM    2  N1  UNL     1      26.760   1.913  51.735  1.00  0.00    -0.266 NA
HETATM    3  C11 UNL     1      27.630   2.199  52.585  1.00  0.00     0.143 C 
HETATM    4  C12 UNL     1      27.982   0.851  53.074  1.00  0.00     0.078 A 
HETATM    5  N2  UNL     1      29.216   0.481  53.276  1.00  0.00    -0.243 NA
HETATM    6  C13 UNL     1      29.234  -0.858  53.741  1.00  0.00     0.228 A 
HETATM    7  N3  UNL     1      28.045  -1.325  53.832  1.00  0.00    -0.271 NA
HETATM    8  C14 UNL     1      27.109  -0.321  53.429  1.00  0.00     0.169 A 
HETATM    9  C15 UNL     1      26.167   0.100  54.523  1.00  0.00     0.107 C 
HETATM   10  C16 UNL     1      24.757  -0.215  54.281  1.00  0.00     0.092 A 
HETATM   11  N4  UNL     1      24.010  -0.928  54.897  1.00  0.00    -0.422 NA
HETATM   12  C17 UNL     1      23.088  -1.639  55.428  1.00  0.00     0.182 A 
HETATM   13  C18 UNL     1      22.101  -1.260  54.472  1.00  0.00     0.032 A 
HETATM   14  C19 UNL     1      22.460  -0.363  53.435  1.00  0.00     0.012 A 
HETATM   15  C20 UNL     1      23.778   0.136  53.369  1.00  0.00    -0.020 A 
HETATM   16  C21 UNL     1      24.056   1.083  52.232  1.00  0.00     0.061 C 
HETATM   17  C22 UNL     1      24.427   2.453  52.643  1.00  0.00     0.129 C 
HETATM   18  N5  UNL     1      24.744   3.241  51.451  1.00  0.00    -0.361 N 
ENDROOT
BRANCH   1  19
HETATM   19  C9  UNL     1      26.650   3.572  49.946  1.00  0.00     0.193 C 
HETATM   20  O1  UNL     1      26.934   2.542  49.272  1.00  0.00    -0.289 OA
BRANCH  19  21
HETATM   21  C8  UNL     1      27.276   4.585  49.150  1.00  0.00     0.051 C 
HETATM   22  C7  UNL     1      26.589   5.707  49.056  1.00  0.00    -0.014 C 
BRANCH  22  23
HETATM   23  C6  UNL     1      26.947   6.919  48.322  1.00  0.00     0.036 C 
HETATM   24  C2  UNL     1      27.057   8.149  49.138  1.00  0.00    -0.082 C 
HETATM   25  C1  UNL     1      26.146   8.715  49.951  1.00  0.00     0.015 C 
HETATM   26  C3  UNL     1      28.418   8.759  48.953  1.00  0.00     0.034 C 
HETATM   27  C4  UNL     1      28.850   8.207  47.632  1.00  0.00     0.005 C 
HETATM   28  C5  UNL     1      28.342   6.772  47.710  1.00  0.00     0.013 C 
ENDBRANCH  22  23
ENDBRANCH  19  21
ENDBRANCH   1  19
BRANCH  18  29
HETATM   29  C23 UNL     1      24.099   4.351  50.860  1.00  0.00     0.083 C 
HETATM   30  C24 UNL     1      23.075   5.166  50.733  1.00  0.00    -0.014 C 
HETATM   31  C25 UNL     1      21.711   5.495  51.207  1.00  0.00     0.037 C 
ENDBRANCH  18  29
TORSDOF 4
ENDMDL
MODEL 2
REMARK VINA RESULT:     -10.0      1.895      5.025
REMARK  4 active torsions:
REMARK  status: ('A' for Active; 'I' for Inactive)
REMARK    1  A    between atoms: C6_6  and  C7_7 
REMARK    2  A    between atoms: C8_8  and  C9_9 
REMARK    3  A    between atoms: C9_9  and  C10_11 
REMARK    4  A    between atoms: N5_28  and  C23_29 
ROOT
HETATM    1  C10 UNL     1      24.603   3.020  52.216  1.00  0.00     0.282 C 
HETATM    2  N1  UNL     1      24.281   1.792  52.814  1.00  0.00    -0.266 NA
HETATM    3  C11 UNL     1      23.533   0.841  52.501  1.00  0.00     0.143 C 
HETATM    4  C12 UNL     1      23.754  -0.061  53.649  1.00  0.00     0.078 A 
HETATM    5  N2  UNL     1      22.777  -0.686  54.245  1.00  0.00    -0.243 NA
HETATM    6  C13 UNL     1      23.298  -1.472  55.303  1.00  0.00     0.228 A 
HETATM    7  N3  UNL     1      24.572  -1.351  55.377  1.00  0.00    -0.271 NA
HETATM    8  C14 UNL     1      25.022  -0.456  54.356  1.00  0.00     0.169 A 
HETATM    9  C15 UNL     1      25.945  -1.097  53.357  1.00  0.00     0.107 C 
HETATM   10  C16 UNL     1      27.310  -0.566  53.346  1.00  0.00     0.092 A 
HETATM   11  N4  UNL     1      28.353  -1.116  53.584  1.00  0.00    -0.422 NA
HETATM   12  C17 UNL     1      29.541  -1.538  53.802  1.00  0.00     0.182 A 
HETATM   13  C18 UNL     1      30.152  -0.282  53.517  1.00  0.00     0.032 A 
HETATM   14  C19 UNL     1      29.329   0.812  53.151  1.00  0.00     0.012 A 
HETATM   15  C20 UNL     1      27.932   0.640  53.074  1.00  0.00    -0.020 A 
HETATM   16  C21 UNL     1      27.149   1.863  52.675  1.00  0.00     0.061 C 
HETATM   17  C22 UNL     1      26.415   1.739  51.398  1.00  0.00     0.129 C 
HETATM   18  N5  UNL     1      25.640   2.960  51.171  1.00  0.00    -0.361 N 
ENDROOT
BRANCH   1  19
HETATM   19  C9  UNL     1      23.497   3.912  51.887  1.00  0.00     0.193 C 
HETATM   20  O1  UNL     1      23.621   4.360  53.061  1.00  0.00    -0.289 OA
BRANCH  19  21
HETATM   21  C8  UNL     1      22.412   4.717  51.413  1.00  0.00     0.051 C 
HETATM   22  C7  UNL     1      22.732   5.971  51.160  1.00  0.00    -0.014 C 
BRANCH  22  23
HETATM   23  C6  UNL     1      21.861   7.039  50.674  1.00  0.00     0.036 C 
HETATM   24  C2  UNL     1      22.393   7.828  49.539  1.00  0.00    -0.082 C 
HETATM   25  C1  UNL     1      23.550   8.506  49.443  1.00  0.00     0.015 C 
HETATM   26  C3  UNL     1      21.419   7.787  48.395  1.00  0.00     0.034 C 
HETATM   27  C4  UNL     1      20.126   7.468  49.074  1.00  0.00     0.005 C 
HETATM   28  C5  UNL     1      20.562   6.448  50.119  1.00  0.00     0.013 C 
ENDBRANCH  22  23
ENDBRANCH  19  21
ENDBRANCH   1  19
BRANCH  18  29
HETATM   29  C23 UNL     1      25.752   3.976  50.195  1.00  0.00     0.083 C 
HETATM   30  C24 UNL     1      26.436   4.654  49.299  1.00  0.00    -0.014 C 
HETATM   31  C25 UNL     1      27.746   4.815  48.629  1.00  0.00     0.037 C 
ENDBRANCH  18  29
TORSDOF 4
ENDMDL
MODEL 3
REMARK VINA RESULT:      -9.7      2.046      6.005
REMARK  4 active torsions:
REMARK  status: ('A' for Active; 'I' for Inactive)
REMARK    1  A    between atoms: C6_6  and  C7_7 
REMARK    2  A    between atoms: C8_8  and  C9_9 
REMARK    3  A    between atoms: C9_9  and  C10_11 
REMARK    4  A    between atoms: N5_28  and  C23_29 
ROOT
HETATM    1  C10 UNL     1      24.535   3.021  52.318  1.00  0.00     0.282 C 
HETATM    2  N1  UNL     1      24.230   1.788  52.912  1.00  0.00    -0.266 NA
HETATM    3  C11 UNL     1      23.483   0.833  52.604  1.00  0.00     0.143 C 
HETATM    4  C12 UNL     1      23.727  -0.076  53.742  1.00  0.00     0.078 A 
HETATM    5  N2  UNL     1      22.764  -0.711  54.348  1.00  0.00    -0.243 NA
HETATM    6  C13 UNL     1      23.307  -1.501  55.392  1.00  0.00     0.228 A 
HETATM    7  N3  UNL     1      24.580  -1.372  55.447  1.00  0.00    -0.271 NA
HETATM    8  C14 UNL     1      25.009  -0.467  54.426  1.00  0.00     0.169 A 
HETATM    9  C15 UNL     1      25.920  -1.095  53.407  1.00  0.00     0.107 C 
HETATM   10  C16 UNL     1      27.282  -0.555  53.379  1.00  0.00     0.092 A 
HETATM   11  N4  UNL     1      28.332  -1.099  53.597  1.00  0.00    -0.422 NA
HETATM   12  C17 UNL     1      29.525  -1.516  53.793  1.00  0.00     0.182 A 
HETATM   13  C18 UNL     1      30.124  -0.254  53.508  1.00  0.00     0.032 A 
HETATM   14  C19 UNL     1      29.289   0.838  53.162  1.00  0.00     0.012 A 
HETATM   15  C20 UNL     1      27.891   0.657  53.106  1.00  0.00    -0.020 A 
HETATM   16  C21 UNL     1      27.094   1.878  52.728  1.00  0.00     0.061 C 
HETATM   17  C22 UNL     1      26.341   1.759  51.462  1.00  0.00     0.129 C 
HETATM   18  N5  UNL     1      25.555   2.976  51.257  1.00  0.00    -0.361 N 
ENDROOT
BRANCH   1  19
HETATM   19  C9  UNL     1      23.418   3.908  52.012  1.00  0.00     0.193 C 
HETATM   20  O1  UNL     1      23.703   4.499  53.092  1.00  0.00    -0.289 OA
BRANCH  19  21
HETATM   21  C8  UNL     1      22.301   4.690  51.574  1.00  0.00     0.051 C 
HETATM   22  C7  UNL     1      21.252   3.982  51.201  1.00  0.00    -0.014 C 
BRANCH  22  23
HETATM   23  C6  UNL     1      19.969   4.475  50.703  1.00  0.00     0.036 C 
HETATM   24  C2  UNL     1      19.711   4.238  49.265  1.00  0.00    -0.082 C 
HETATM   25  C1  UNL     1      20.447   4.597  48.198  1.00  0.00     0.015 C 
HETATM   26  C3  UNL     1      18.423   3.481  49.101  1.00  0.00     0.034 C 
HETATM   27  C4  UNL     1      17.694   3.790  50.369  1.00  0.00     0.005 C 
HETATM   28  C5  UNL     1      18.818   3.742  51.397  1.00  0.00     0.013 C 
ENDBRANCH  22  23
ENDBRANCH  19  21
ENDBRANCH   1  19
BRANCH  18  29
HETATM   29  C23 UNL     1      25.646   3.999  50.286  1.00  0.00     0.083 C 
HETATM   30  C24 UNL     1      26.307   4.680  49.375  1.00  0.00    -0.014 C 
HETATM   31  C25 UNL     1      27.597   4.837  48.666  1.00  0.00     0.037 C 
ENDBRANCH  18  29
TORSDOF 4
ENDMDL
MODEL 4
REMARK VINA RESULT:      -9.4      0.939      1.391
REMARK  4 active torsions:
REMARK  status: ('A' for Active; 'I' for Inactive)
REMARK    1  A    between atoms: C6_6  and  C7_7 
REMARK    2  A    between atoms: C8_8  and  C9_9 
REMARK    3  A    between atoms: C9_9  and  C10_11 
REMARK    4  A    between atoms: N5_28  and  C23_29 
ROOT
HETATM    1  C10 UNL     1      25.549   2.879  50.678  1.00  0.00     0.282 C 
HETATM    2  N1  UNL     1      26.231   1.966  51.496  1.00  0.00    -0.266 NA
HETATM    3  C11 UNL     1      27.086   2.077  52.402  1.00  0.00     0.143 C 
HETATM    4  C12 UNL     1      27.287   0.657  52.755  1.00  0.00     0.078 A 
HETATM    5  N2  UNL     1      28.470   0.149  52.960  1.00  0.00    -0.243 NA
HETATM    6  C13 UNL     1      28.341  -1.226  53.280  1.00  0.00     0.228 A 
HETATM    7  N3  UNL     1      27.109  -1.581  53.280  1.00  0.00    -0.271 NA
HETATM    8  C14 UNL     1      26.292  -0.454  52.953  1.00  0.00     0.169 A 
HETATM    9  C15 UNL     1      25.346  -0.056  54.053  1.00  0.00     0.107 C 
HETATM   10  C16 UNL     1      23.925  -0.204  53.730  1.00  0.00     0.092 A 
HETATM   11  N4  UNL     1      23.087  -0.900  54.240  1.00  0.00    -0.422 NA
HETATM   12  C17 UNL     1      22.079  -1.567  54.660  1.00  0.00     0.182 A 
HETATM   13  C18 UNL     1      21.176  -0.996  53.717  1.00  0.00     0.032 A 
HETATM   14  C19 UNL     1      21.664  -0.038  52.795  1.00  0.00     0.012 A 
HETATM   15  C20 UNL     1      23.024   0.333  52.827  1.00  0.00    -0.020 A 
HETATM   16  C21 UNL     1      23.441   1.360  51.808  1.00  0.00     0.061 C 
HETATM   17  C22 UNL     1      23.921   2.637  52.375  1.00  0.00     0.129 C 
HETATM   18  N5  UNL     1      24.364   3.508  51.286  1.00  0.00    -0.361 N 
ENDROOT
BRANCH   1  19
HETATM   19  C9  UNL     1      26.359   3.802  49.891  1.00  0.00     0.193 C 
HETATM   20  O1  UNL     1      26.594   2.818  49.135  1.00  0.00    -0.289 OA
BRANCH  19  21
HETATM   21  C8  UNL     1      27.109   4.827  49.228  1.00  0.00     0.051 C 
HETATM   22  C7  UNL     1      26.498   5.993  49.158  1.00  0.00    -0.014 C 
BRANCH  22  23
HETATM   23  C6  UNL     1      26.988   7.227  48.547  1.00  0.00     0.036 C 
HETATM   24  C2  UNL     1      28.272   7.111  47.819  1.00  0.00    -0.082 C 
HETATM   25  C1  UNL     1      29.462   6.664  48.258  1.00  0.00     0.015 C 
HETATM   26  C3  UNL     1      28.094   7.585  46.404  1.00  0.00     0.034 C 
HETATM   27  C4  UNL     1      26.899   8.478  46.502  1.00  0.00     0.005 C 
HETATM   28  C5  UNL     1      26.010   7.708  47.472  1.00  0.00     0.013 C 
ENDBRANCH  22  23
ENDBRANCH  19  21
ENDBRANCH   1  19
BRANCH  18  29
HETATM   29  C23 UNL     1      23.854   4.731  50.795  1.00  0.00     0.083 C 
HETATM   30  C24 UNL     1      22.878   5.477  50.324  1.00  0.00    -0.014 C 
HETATM   31  C25 UNL     1      21.448   5.516  49.942  1.00  0.00     0.037 C 
ENDBRANCH  18  29
TORSDOF 4
ENDMDL
MODEL 5
REMARK VINA RESULT:      -9.1      4.661      7.953
REMARK  4 active torsions:
REMARK  status: ('A' for Active; 'I' for Inactive)
REMARK    1  A    between atoms: C6_6  and  C7_7 
REMARK    2  A    between atoms: C8_8  and  C9_9 
REMARK    3  A    between atoms: C9_9  and  C10_11 
REMARK    4  A    between atoms: N5_28  and  C23_29 
ROOT
HETATM    1  C10 UNL     1      21.966   1.941  52.067  1.00  0.00     0.282 C 
HETATM    2  N1  UNL     1      21.804   2.150  50.690  1.00  0.00    -0.266 NA
HETATM    3  C11 UNL     1      21.959   1.435  49.676  1.00  0.00     0.143 C 
HETATM    4  C12 UNL     1      21.581   2.390  48.614  1.00  0.00     0.078 A 
HETATM    5  N2  UNL     1      22.262   2.511  47.509  1.00  0.00    -0.243 NA
HETATM    6  C13 UNL     1      21.659   3.500  46.693  1.00  0.00     0.228 A 
HETATM    7  N3  UNL     1      20.623   3.994  47.263  1.00  0.00    -0.271 NA
HETATM    8  C14 UNL     1      20.439   3.366  48.535  1.00  0.00     0.169 A 
HETATM    9  C15 UNL     1      19.150   2.600  48.649  1.00  0.00     0.107 C 
HETATM   10  C16 UNL     1      18.203   3.125  49.637  1.00  0.00     0.092 A 
HETATM   11  N4  UNL     1      17.094   3.564  49.484  1.00  0.00    -0.422 NA
HETATM   12  C17 UNL     1      15.913   4.055  49.504  1.00  0.00     0.182 A 
HETATM   13  C18 UNL     1      15.898   4.232  50.919  1.00  0.00     0.032 A 
HETATM   14  C19 UNL     1      17.039   3.853  51.669  1.00  0.00     0.012 A 
HETATM   15  C20 UNL     1      18.160   3.308  51.008  1.00  0.00    -0.020 A 
HETATM   16  C21 UNL     1      19.318   2.936  51.895  1.00  0.00     0.061 C 
HETATM   17  C22 UNL     1      19.649   1.495  51.910  1.00  0.00     0.129 C 
HETATM   18  N5  UNL     1      20.833   1.285  52.743  1.00  0.00    -0.361 N 
ENDROOT
BRANCH   1  19
HETATM   19  C9  UNL     1      23.268   1.466  52.521  1.00  0.00     0.193 C 
HETATM   20  O1  UNL     1      23.521   2.674  52.787  1.00  0.00    -0.289 OA
BRANCH  19  21
HETATM   21  C8  UNL     1      24.494   0.847  52.927  1.00  0.00     0.051 C 
HETATM   22  C7  UNL     1      25.465   0.925  52.038  1.00  0.00    -0.014 C 
BRANCH  22  23
HETATM   23  C6  UNL     1      26.823   0.395  52.145  1.00  0.00     0.036 C 
HETATM   24  C2  UNL     1      27.660   0.996  53.208  1.00  0.00    -0.082 C 
HETATM   25  C1  UNL     1      27.973   2.288  53.417  1.00  0.00     0.015 C 
HETATM   26  C3  UNL     1      28.170  -0.083  54.121  1.00  0.00     0.034 C 
HETATM   27  C4  UNL     1      28.097  -1.304  53.261  1.00  0.00     0.005 C 
HETATM   28  C5  UNL     1      26.783  -1.088  52.519  1.00  0.00     0.013 C 
ENDBRANCH  22  23
ENDBRANCH  19  21
ENDBRANCH   1  19
BRANCH  18  29
HETATM   29  C23 UNL     1      21.007   0.616  53.976  1.00  0.00     0.083 C 
HETATM   30  C24 UNL     1      21.385  -0.422  54.691  1.00  0.00    -0.014 C 
HETATM   31  C25 UNL     1      21.970  -1.781  54.653  1.00  0.00     0.037 C 
ENDBRANCH  18  29
TORSDOF 4
ENDMDL
MODEL 6
REMARK VINA RESULT:      -9.1      2.539      4.913
REMARK  4 active torsions:
REMARK  status: ('A' for Active; 'I' for Inactive)
REMARK    1  A    between atoms: C6_6  and  C7_7 
REMARK    2  A    between atoms: C8_8  and  C9_9 
REMARK    3  A    between atoms: C9_9  and  C10_11 
REMARK    4  A    between atoms: N5_28  and  C23_29 
ROOT
HETATM    1  C10 UNL     1      24.622   3.804  50.923  1.00  0.00     0.282 C 
HETATM    2  N1  UNL     1      24.110   2.607  51.444  1.00  0.00    -0.266 NA
HETATM    3  C11 UNL     1      23.464   1.652  50.961  1.00  0.00     0.143 C 
HETATM    4  C12 UNL     1      23.317   0.796  52.155  1.00  0.00     0.078 A 
HETATM    5  N2  UNL     1      22.194   0.208  52.460  1.00  0.00    -0.243 NA
HETATM    6  C13 UNL     1      22.363  -0.538  53.652  1.00  0.00     0.228 A 
HETATM    7  N3  UNL     1      23.561  -0.428  54.094  1.00  0.00    -0.271 NA
HETATM    8  C14 UNL     1      24.312   0.417  53.218  1.00  0.00     0.169 A 
HETATM    9  C15 UNL     1      25.472  -0.276  52.558  1.00  0.00     0.107 C 
HETATM   10  C16 UNL     1      26.793   0.238  52.930  1.00  0.00     0.092 A 
HETATM   11  N4  UNL     1      27.707  -0.313  53.485  1.00  0.00    -0.422 NA
HETATM   12  C17 UNL     1      28.768  -0.740  54.057  1.00  0.00     0.182 A 
HETATM   13  C18 UNL     1      29.465   0.496  53.919  1.00  0.00     0.032 A 
HETATM   14  C19 UNL     1      28.812   1.583  53.287  1.00  0.00     0.012 A 
HETATM   15  C20 UNL     1      27.495   1.424  52.808  1.00  0.00    -0.020 A 
HETATM   16  C21 UNL     1      26.893   2.638  52.152  1.00  0.00     0.061 C 
HETATM   17  C22 UNL     1      26.563   2.469  50.722  1.00  0.00     0.129 C 
HETATM   18  N5  UNL     1      25.918   3.688  50.232  1.00  0.00    -0.361 N 
ENDROOT
BRANCH   1  19
HETATM   19  C9  UNL     1      23.683   4.694  50.250  1.00  0.00     0.193 C 
HETATM   20  O1  UNL     1      23.625   5.322  51.345  1.00  0.00    -0.289 OA
BRANCH  19  21
HETATM   21  C8  UNL     1      22.782   5.474  49.454  1.00  0.00     0.051 C 
HETATM   22  C7  UNL     1      23.106   5.548  48.178  1.00  0.00    -0.014 C 
BRANCH  22  23
HETATM   23  C6  UNL     1      22.403   6.263  47.114  1.00  0.00     0.036 C 
HETATM   24  C2  UNL     1      23.204   7.275  46.389  1.00  0.00    -0.082 C 
HETATM   25  C1  UNL     1      23.881   8.331  46.875  1.00  0.00     0.015 C 
HETATM   26  C3  UNL     1      23.188   6.973  44.917  1.00  0.00     0.034 C 
HETATM   27  C4  UNL     1      21.945   6.157  44.762  1.00  0.00     0.005 C 
HETATM   28  C5  UNL     1      21.981   5.287  46.013  1.00  0.00     0.013 C 
ENDBRANCH  22  23
ENDBRANCH  19  21
ENDBRANCH   1  19
BRANCH  18  29
HETATM   29  C23 UNL     1      26.335   4.660  49.295  1.00  0.00     0.083 C 
HETATM   30  C24 UNL     1      27.267   5.292  48.615  1.00  0.00    -0.014 C 
HETATM   31  C25 UNL     1      28.720   5.409  48.354  1.00  0.00     0.037 C 
ENDBRANCH  18  29
TORSDOF 4
ENDMDL
MODEL 7
REMARK VINA RESULT:      -9.1      3.208      7.813
REMARK  4 active torsions:
REMARK  status: ('A' for Active; 'I' for Inactive)
REMARK    1  A    between atoms: C6_6  and  C7_7 
REMARK    2  A    between atoms: C8_8  and  C9_9 
REMARK    3  A    between atoms: C9_9  and  C10_11 
REMARK    4  A    between atoms: N5_28  and  C23_29 
ROOT
HETATM    1  C10 UNL     1      22.952   0.750  52.387  1.00  0.00     0.282 C 
HETATM    2  N1  UNL     1      23.844   1.718  51.902  1.00  0.00    -0.266 NA
HETATM    3  C11 UNL     1      23.988   2.945  52.097  1.00  0.00     0.143 C 
HETATM    4  C12 UNL     1      25.145   3.220  51.221  1.00  0.00     0.078 A 
HETATM    5  N2  UNL     1      25.199   4.266  50.444  1.00  0.00    -0.243 NA
HETATM    6  C13 UNL     1      26.424   4.257  49.731  1.00  0.00     0.228 A 
HETATM    7  N3  UNL     1      27.129   3.234  50.046  1.00  0.00    -0.271 NA
HETATM    8  C14 UNL     1      26.423   2.455  51.017  1.00  0.00     0.169 A 
HETATM    9  C15 UNL     1      27.133   2.351  52.338  1.00  0.00     0.107 C 
HETATM   10  C16 UNL     1      27.567   1.000  52.703  1.00  0.00     0.092 A 
HETATM   11  N4  UNL     1      28.675   0.570  52.889  1.00  0.00    -0.422 NA
HETATM   12  C17 UNL     1      29.771  -0.048  53.122  1.00  0.00     0.182 A 
HETATM   13  C18 UNL     1      29.132  -1.291  53.401  1.00  0.00     0.032 A 
HETATM   14  C19 UNL     1      27.719  -1.367  53.325  1.00  0.00     0.012 A 
HETATM   15  C20 UNL     1      26.975  -0.220  52.980  1.00  0.00    -0.020 A 
HETATM   16  C21 UNL     1      25.482  -0.406  52.929  1.00  0.00     0.061 C 
HETATM   17  C22 UNL     1      24.724   0.396  53.912  1.00  0.00     0.129 C 
HETATM   18  N5  UNL     1      23.291   0.181  53.703  1.00  0.00    -0.361 N 
ENDROOT
BRANCH   1  19
HETATM   19  C9  UNL     1      21.527   1.011  52.217  1.00  0.00     0.193 C 
HETATM   20  O1  UNL     1      21.595   0.251  51.210  1.00  0.00    -0.289 OA
BRANCH  19  21
HETATM   21  C8  UNL     1      20.139   1.362  52.185  1.00  0.00     0.051 C 
HETATM   22  C7  UNL     1      19.354   0.440  51.662  1.00  0.00    -0.014 C 
BRANCH  22  23
HETATM   23  C6  UNL     1      17.905   0.493  51.482  1.00  0.00     0.036 C 
HETATM   24  C2  UNL     1      17.443   0.759  50.101  1.00  0.00    -0.082 C 
HETATM   25  C1  UNL     1      17.745   1.785  49.286  1.00  0.00     0.015 C 
HETATM   26  C3  UNL     1      16.519  -0.340  49.657  1.00  0.00     0.034 C 
HETATM   27  C4  UNL     1      16.024  -0.898  50.953  1.00  0.00     0.005 C 
HETATM   28  C5  UNL     1      17.283  -0.866  51.810  1.00  0.00     0.013 C 
ENDBRANCH  22  23
ENDBRANCH  19  21
ENDBRANCH   1  19
BRANCH  18  29
HETATM   29  C23 UNL     1      22.308  -0.438  54.507  1.00  0.00     0.083 C 
HETATM   30  C24 UNL     1      21.243  -1.195  54.662  1.00  0.00    -0.014 C 
HETATM   31  C25 UNL     1      20.225  -2.023  53.978  1.00  0.00     0.037 C 
ENDBRANCH  18  29
TORSDOF 4
ENDMDL
MODEL 8
REMARK VINA RESULT:      -9.1      2.638      7.747
REMARK  4 active torsions:
REMARK  status: ('A' for Active; 'I' for Inactive)
REMARK    1  A    between atoms: C6_6  and  C7_7 
REMARK    2  A    between atoms: C8_8  and  C9_9 
REMARK    3  A    between atoms: C9_9  and  C10_11 
REMARK    4  A    between atoms: N5_28  and  C23_29 
ROOT
HETATM    1  C10 UNL     1      24.201   3.359  52.100  1.00  0.00     0.282 C 
HETATM    2  N1  UNL     1      24.967   3.876  51.046  1.00  0.00    -0.266 NA
HETATM    3  C11 UNL     1      25.476   3.383  50.015  1.00  0.00     0.143 C 
HETATM    4  C12 UNL     1      26.116   4.580  49.434  1.00  0.00     0.078 A 
HETATM    5  N2  UNL     1      27.320   4.556  48.934  1.00  0.00    -0.243 NA
HETATM    6  C13 UNL     1      27.655   5.847  48.456  1.00  0.00     0.228 A 
HETATM    7  N3  UNL     1      26.691   6.669  48.646  1.00  0.00    -0.271 NA
HETATM    8  C14 UNL     1      25.606   5.987  49.280  1.00  0.00     0.169 A 
HETATM    9  C15 UNL     1      24.350   5.950  48.452  1.00  0.00     0.107 C 
HETATM   10  C16 UNL     1      23.212   6.676  49.021  1.00  0.00     0.092 A 
HETATM   11  N4  UNL     1      22.610   7.624  48.592  1.00  0.00    -0.422 NA
HETATM   12  C17 UNL     1      21.866   8.619  48.286  1.00  0.00     0.182 A 
HETATM   13  C18 UNL     1      21.062   8.511  49.458  1.00  0.00     0.032 A 
HETATM   14  C19 UNL     1      21.347   7.485  50.393  1.00  0.00     0.012 A 
HETATM   15  C20 UNL     1      22.414   6.595  50.148  1.00  0.00    -0.020 A 
HETATM   16  C21 UNL     1      22.632   5.541  51.201  1.00  0.00     0.061 C 
HETATM   17  C22 UNL     1      22.440   4.152  50.736  1.00  0.00     0.129 C 
HETATM   18  N5  UNL     1      22.758   3.232  51.829  1.00  0.00    -0.361 N 
ENDROOT
BRANCH   1  19
HETATM   19  C9  UNL     1      24.755   2.228  52.836  1.00  0.00     0.193 C 
HETATM   20  O1  UNL     1      25.135   3.079  53.689  1.00  0.00    -0.289 OA
BRANCH  19  21
HETATM   21  C8  UNL     1      25.240   1.022  53.437  1.00  0.00     0.051 C 
HETATM   22  C7  UNL     1      26.554   0.909  53.451  1.00  0.00    -0.014 C 
BRANCH  22  23
HETATM   23  C6  UNL     1      27.354  -0.192  53.982  1.00  0.00     0.036 C 
HETATM   24  C2  UNL     1      27.668  -1.273  53.021  1.00  0.00    -0.082 C 
HETATM   25  C1  UNL     1      26.832  -2.023  52.280  1.00  0.00     0.015 C 
HETATM   26  C3  UNL     1      29.157  -1.465  52.945  1.00  0.00     0.034 C 
HETATM   27  C4  UNL     1      29.628  -0.907  54.249  1.00  0.00     0.005 C 
HETATM   28  C5  UNL     1      28.733   0.316  54.410  1.00  0.00     0.013 C 
ENDBRANCH  22  23
ENDBRANCH  19  21
ENDBRANCH   1  19
BRANCH  18  29
HETATM   29  C23 UNL     1      21.949   2.346  52.576  1.00  0.00     0.083 C 
HETATM   30  C24 UNL     1      21.542   1.137  52.897  1.00  0.00    -0.014 C 
HETATM   31  C25 UNL     1      21.695  -0.311  52.635  1.00  0.00     0.037 C 
ENDBRANCH  18  29
TORSDOF 4
ENDMDL
MODEL 9
REMARK VINA RESULT:      -8.7      3.283      7.987
REMARK  4 active torsions:
REMARK  status: ('A' for Active; 'I' for Inactive)
REMARK    1  A    between atoms: C6_6  and  C7_7 
REMARK    2  A    between atoms: C8_8  and  C9_9 
REMARK    3  A    between atoms: C9_9  and  C10_11 
REMARK    4  A    between atoms: N5_28  and  C23_29 
ROOT
HETATM    1  C10 UNL     1      22.533   4.213  50.759  1.00  0.00     0.282 C 
HETATM    2  N1  UNL     1      23.593   3.332  51.017  1.00  0.00    -0.266 NA
HETATM    3  C11 UNL     1      23.775   2.109  50.830  1.00  0.00     0.143 C 
HETATM    4  C12 UNL     1      25.140   1.955  51.371  1.00  0.00     0.078 A 
HETATM    5  N2  UNL     1      25.479   0.956  52.137  1.00  0.00    -0.243 NA
HETATM    6  C13 UNL     1      26.845   1.082  52.495  1.00  0.00     0.228 A 
HETATM    7  N3  UNL     1      27.359   2.132  51.970  1.00  0.00    -0.271 NA
HETATM    8  C14 UNL     1      26.364   2.812  51.201  1.00  0.00     0.169 A 
HETATM    9  C15 UNL     1      26.688   2.895  49.735  1.00  0.00     0.107 C 
HETATM   10  C16 UNL     1      26.904   4.252  49.224  1.00  0.00     0.092 A 
HETATM   11  N4  UNL     1      27.886   4.744  48.735  1.00  0.00    -0.422 NA
HETATM   12  C17 UNL     1      28.830   5.420  48.197  1.00  0.00     0.182 A 
HETATM   13  C18 UNL     1      28.046   6.603  48.062  1.00  0.00     0.032 A 
HETATM   14  C19 UNL     1      26.702   6.589  48.511  1.00  0.00     0.012 A 
HETATM   15  C20 UNL     1      26.167   5.414  49.079  1.00  0.00    -0.020 A 
HETATM   16  C21 UNL     1      24.731   5.504  49.522  1.00  0.00     0.061 C 
HETATM   17  C22 UNL     1      23.804   4.604  48.804  1.00  0.00     0.129 C 
HETATM   18  N5  UNL     1      22.466   4.735  49.383  1.00  0.00    -0.361 N 
ENDROOT
BRANCH   1  19
HETATM   19  C9  UNL     1      21.229   3.868  51.314  1.00  0.00     0.193 C 
HETATM   20  O1  UNL     1      21.655   4.358  52.397  1.00  0.00    -0.289 OA
BRANCH  19  21
HETATM   21  C8  UNL     1      19.910   3.471  51.707  1.00  0.00     0.051 C 
HETATM   22  C7  UNL     1      19.646   2.193  51.517  1.00  0.00    -0.014 C 
BRANCH  22  23
HETATM   23  C6  UNL     1      18.402   1.482  51.808  1.00  0.00     0.036 C 
HETATM   24  C2  UNL     1      17.415   1.448  50.705  1.00  0.00    -0.082 C 
HETATM   25  C1  UNL     1      16.863   2.470  50.026  1.00  0.00     0.015 C 
HETATM   26  C3  UNL     1      17.061   0.023  50.386  1.00  0.00     0.034 C 
HETATM   27  C4  UNL     1      17.400  -0.693  51.655  1.00  0.00     0.005 C 
HETATM   28  C5  UNL     1      18.691   0.002  52.072  1.00  0.00     0.013 C 
ENDBRANCH  22  23
ENDBRANCH  19  21
ENDBRANCH   1  19
BRANCH  18  29
HETATM   29  C23 UNL     1      21.260   5.246  48.854  1.00  0.00     0.083 C 
HETATM   30  C24 UNL     1      20.091   5.092  48.269  1.00  0.00    -0.014 C 
HETATM   31  C25 UNL     1      19.133   4.121  47.696  1.00  0.00     0.037 C 
ENDBRANCH  18  29
TORSDOF 4
ENDMDL
