MODEL 1
REMARK VINA RESULT:      -9.0      0.000      0.000
REMARK  2 active torsions:
REMARK  status: ('A' for Active; 'I' for Inactive)
REMARK    1  A    between atoms: O1_2  and  C2_3 
REMARK    2  A    between atoms: C3_4  and  C4_5 
ROOT
HETATM    1  C4  UNL     1      23.185   1.240  51.936  1.00  0.00     0.115 A 
HETATM    2  N1  UNL     1      22.175   0.673  52.583  1.00  0.00    -0.232 NA
HETATM    3  C5  UNL     1      20.967   0.387  52.250  1.00  0.00     0.115 A 
HETATM    4  S1  UNL     1      19.864  -0.441  53.551  1.00  0.00    -0.069 SA
HETATM    5  C6  UNL     1      18.404  -0.509  52.355  1.00  0.00     0.018 A 
HETATM    6  C7  UNL     1      17.134  -1.021  52.610  1.00  0.00     0.020 A 
HETATM    7  C8  UNL     1      16.234  -0.963  51.596  1.00  0.00     0.008 A 
HETATM    8  C9  UNL     1      16.682  -0.399  50.421  1.00  0.00    -0.061 A 
HETATM    9  C10 UNL     1      15.695  -0.334  49.277  1.00  0.00     0.048 C 
HETATM   10  C11 UNL     1      17.924   0.102  50.174  1.00  0.00     0.020 A 
HETATM   11  C12 UNL     1      18.873   0.068  51.162  1.00  0.00    -0.001 A 
HETATM   12  C13 UNL     1      20.171   0.492  51.194  1.00  0.00     0.069 A 
HETATM   13  C14 UNL     1      20.913   1.089  50.203  1.00  0.00     0.229 A 
HETATM   14  O2  UNL     1      20.429   1.339  49.040  1.00  0.00    -0.279 OA
HETATM   15  S2  UNL     1      22.524   1.557  50.404  1.00  0.00    -0.026 SA
ENDROOT
BRANCH   1  16
HETATM   16  C3  UNL     1      24.518   1.443  52.586  1.00  0.00     0.033 C 
HETATM   17  C2  UNL     1      25.401   2.230  51.998  1.00  0.00     0.085 C 
HETATM   18  C20 UNL     1      26.661   2.469  52.672  1.00  0.00     0.275 C 
HETATM   19  O5  UNL     1      27.857   2.105  52.148  1.00  0.00    -0.234 OA
HETATM   20  O4  UNL     1      28.735   1.733  53.100  1.00  0.00    -0.241 OA
HETATM   21  C19 UNL     1      29.228   0.443  52.901  1.00  0.00     0.212 C 
HETATM   22  C18 UNL     1      28.971  -0.431  54.207  1.00  0.00     0.056 C 
HETATM   23  C17 UNL     1      27.547  -0.158  54.332  1.00  0.00     0.176 C 
HETATM   24  O3  UNL     1      26.567  -0.578  55.174  1.00  0.00    -0.363 OA
HETATM   25  C16 UNL     1      25.285  -0.243  54.541  1.00  0.00     0.135 C 
HETATM   26  C15 UNL     1      24.655   0.485  53.631  1.00  0.00     0.041 C 
BRANCH  17  27
HETATM   27  O1  UNL     1      25.252   2.891  50.802  1.00  0.00    -0.357 OA
HETATM   28  C1  UNL     1      25.043   4.292  50.844  1.00  0.00     0.209 C 
ENDBRANCH  17  27
ENDBRANCH   1  16
TORSDOF 2
ENDMDL
MODEL 2
REMARK VINA RESULT:      -9.0      2.610      8.916
REMARK  2 active torsions:
REMARK  status: ('A' for Active; 'I' for Inactive)
REMARK    1  A    between atoms: O1_2  and  C2_3 
REMARK    2  A    between atoms: C3_4  and  C4_5 
ROOT
HETATM    1  C4  UNL     1      20.805   0.840  52.593  1.00  0.00     0.115 A 
HETATM    2  N1  UNL     1      21.875   1.485  52.148  1.00  0.00    -0.232 NA
HETATM    3  C5  UNL     1      23.128   1.403  52.419  1.00  0.00     0.115 A 
HETATM    4  S1  UNL     1      24.310   2.567  51.502  1.00  0.00    -0.069 SA
HETATM    5  C6  UNL     1      25.808   1.853  52.404  1.00  0.00     0.018 A 
HETATM    6  C7  UNL     1      27.139   2.234  52.252  1.00  0.00     0.020 A 
HETATM    7  C8  UNL     1      28.055   1.581  53.012  1.00  0.00     0.008 A 
HETATM    8  C9  UNL     1      27.559   0.608  53.853  1.00  0.00    -0.061 A 
HETATM    9  C10 UNL     1      28.567  -0.136  54.700  1.00  0.00     0.048 C 
HETATM   10  C11 UNL     1      26.257   0.237  54.001  1.00  0.00     0.020 A 
HETATM   11  C12 UNL     1      25.291   0.863  53.259  1.00  0.00    -0.001 A 
HETATM   12  C13 UNL     1      23.936   0.701  53.204  1.00  0.00     0.069 A 
HETATM   13  C14 UNL     1      23.139  -0.172  53.904  1.00  0.00     0.229 A 
HETATM   14  O2  UNL     1      23.616  -1.001  54.762  1.00  0.00    -0.279 OA
HETATM   15  S2  UNL     1      21.461  -0.249  53.719  1.00  0.00    -0.026 SA
ENDROOT
BRANCH   1  16
HETATM   16  C3  UNL     1      19.434   1.145  52.077  1.00  0.00     0.033 C 
HETATM   17  C2  UNL     1      19.074   2.408  51.929  1.00  0.00     0.085 C 
HETATM   18  C20 UNL     1      17.768   2.686  51.367  1.00  0.00     0.275 C 
HETATM   19  O5  UNL     1      16.798   3.344  52.049  1.00  0.00    -0.234 OA
HETATM   20  O4  UNL     1      15.567   2.896  51.736  1.00  0.00    -0.241 OA
HETATM   21  C19 UNL     1      14.855   2.458  52.854  1.00  0.00     0.212 C 
HETATM   22  C18 UNL     1      14.369   0.959  52.620  1.00  0.00     0.056 C 
HETATM   23  C17 UNL     1      15.665   0.402  52.261  1.00  0.00     0.176 C 
HETATM   24  O3  UNL     1      16.115  -0.844  51.961  1.00  0.00    -0.363 OA
HETATM   25  C16 UNL     1      17.580  -0.808  52.068  1.00  0.00     0.135 C 
HETATM   26  C15 UNL     1      18.671  -0.057  52.101  1.00  0.00     0.041 C 
BRANCH  17  27
HETATM   27  O1  UNL     1      19.823   3.521  52.227  1.00  0.00    -0.357 OA
HETATM   28  C1  UNL     1      20.145   4.403  51.166  1.00  0.00     0.209 C 
ENDBRANCH  17  27
ENDBRANCH   1  16
TORSDOF 2
ENDMDL
MODEL 3
REMARK VINA RESULT:      -8.7      3.622      8.393
REMARK  2 active torsions:
REMARK  status: ('A' for Active; 'I' for Inactive)
REMARK    1  A    between atoms: O1_2  and  C2_3 
REMARK    2  A    between atoms: C3_4  and  C4_5 
ROOT
HETATM    1  C4  UNL     1      23.965   3.537  51.230  1.00  0.00     0.115 A 
HETATM    2  N1  UNL     1      25.021   3.729  50.450  1.00  0.00    -0.232 NA
HETATM    3  C5  UNL     1      25.600   4.782  49.995  1.00  0.00     0.115 A 
HETATM    4  S1  UNL     1      27.120   4.548  48.887  1.00  0.00    -0.069 SA
HETATM    5  C6  UNL     1      27.331   6.413  48.681  1.00  0.00     0.018 A 
HETATM    6  C7  UNL     1      28.311   7.070  47.940  1.00  0.00     0.020 A 
HETATM    7  C8  UNL     1      28.268   8.426  47.932  1.00  0.00     0.008 A 
HETATM    8  C9  UNL     1      27.251   9.003  48.662  1.00  0.00    -0.061 A 
HETATM    9  C10 UNL     1      27.194  10.515  48.670  1.00  0.00     0.048 C 
HETATM   10  C11 UNL     1      26.293   8.359  49.384  1.00  0.00     0.020 A 
HETATM   11  C12 UNL     1      26.290   6.990  49.429  1.00  0.00    -0.001 A 
HETATM   12  C13 UNL     1      25.466   6.101  50.057  1.00  0.00     0.069 A 
HETATM   13  C14 UNL     1      24.373   6.345  50.854  1.00  0.00     0.229 A 
HETATM   14  O2  UNL     1      23.967   7.535  51.116  1.00  0.00    -0.279 OA
HETATM   15  S2  UNL     1      23.451   5.121  51.565  1.00  0.00    -0.026 SA
ENDROOT
BRANCH   1  16
HETATM   16  C3  UNL     1      23.513   2.164  51.616  1.00  0.00     0.033 C 
HETATM   17  C2  UNL     1      22.242   1.843  51.457  1.00  0.00     0.085 C 
HETATM   18  C20 UNL     1      21.833   0.490  51.773  1.00  0.00     0.275 C 
HETATM   19  O5  UNL     1      20.936   0.200  52.748  1.00  0.00    -0.234 OA
HETATM   20  O4  UNL     1      21.214  -0.967  53.361  1.00  0.00    -0.241 OA
HETATM   21  C19 UNL     1      21.370  -0.824  54.741  1.00  0.00     0.212 C 
HETATM   22  C18 UNL     1      22.786  -1.407  55.179  1.00  0.00     0.056 C 
HETATM   23  C17 UNL     1      23.593  -0.657  54.228  1.00  0.00     0.176 C 
HETATM   24  O3  UNL     1      24.926  -0.549  53.987  1.00  0.00    -0.363 OA
HETATM   25  C16 UNL     1      25.117   0.650  53.161  1.00  0.00     0.135 C 
HETATM   26  C15 UNL     1      24.559   1.543  52.357  1.00  0.00     0.041 C 
BRANCH  17  27
HETATM   27  O1  UNL     1      21.236   2.654  50.988  1.00  0.00    -0.357 OA
HETATM   28  C1  UNL     1      20.645   2.320  49.744  1.00  0.00     0.209 C 
ENDBRANCH  17  27
ENDBRANCH   1  16
TORSDOF 2
ENDMDL
MODEL 4
REMARK VINA RESULT:      -8.6      3.289      8.973
REMARK  2 active torsions:
REMARK  status: ('A' for Active; 'I' for Inactive)
REMARK    1  A    between atoms: O1_2  and  C2_3 
REMARK    2  A    between atoms: C3_4  and  C4_5 
ROOT
HETATM    1  C4  UNL     1      23.295   3.024  51.349  1.00  0.00     0.115 A 
HETATM    2  N1  UNL     1      23.294   4.112  50.590  1.00  0.00    -0.232 NA
HETATM    3  C5  UNL     1      24.219   4.749  49.965  1.00  0.00     0.115 A 
HETATM    4  S1  UNL     1      23.722   6.294  48.986  1.00  0.00    -0.069 SA
HETATM    5  C6  UNL     1      25.502   6.587  48.429  1.00  0.00     0.018 A 
HETATM    6  C7  UNL     1      25.969   7.620  47.620  1.00  0.00     0.020 A 
HETATM    7  C8  UNL     1      27.299   7.635  47.349  1.00  0.00     0.008 A 
HETATM    8  C9  UNL     1      28.042   6.618  47.911  1.00  0.00    -0.061 A 
HETATM    9  C10 UNL     1      29.524   6.614  47.612  1.00  0.00     0.048 C 
HETATM   10  C11 UNL     1      27.583   5.609  48.702  1.00  0.00     0.020 A 
HETATM   11  C12 UNL     1      26.249   5.545  49.007  1.00  0.00    -0.001 A 
HETATM   12  C13 UNL     1      25.528   4.666  49.763  1.00  0.00     0.069 A 
HETATM   13  C14 UNL     1      25.959   3.556  50.450  1.00  0.00     0.229 A 
HETATM   14  O2  UNL     1      27.191   3.192  50.462  1.00  0.00    -0.279 OA
HETATM   15  S2  UNL     1      24.929   2.561  51.346  1.00  0.00    -0.026 SA
ENDROOT
BRANCH   1  16
HETATM   16  C3  UNL     1      22.035   2.489  51.955  1.00  0.00     0.033 C 
HETATM   17  C2  UNL     1      22.011   1.237  52.373  1.00  0.00     0.085 C 
HETATM   18  C20 UNL     1      20.806   0.754  53.017  1.00  0.00     0.275 C 
HETATM   19  O5  UNL     1      20.058  -0.260  52.515  1.00  0.00    -0.234 OA
HETATM   20  O4  UNL     1      18.745  -0.090  52.762  1.00  0.00    -0.241 OA
HETATM   21  C19 UNL     1      17.975  -0.095  51.597  1.00  0.00     0.212 C 
HETATM   22  C18 UNL     1      17.113   1.242  51.526  1.00  0.00     0.056 C 
HETATM   23  C17 UNL     1      18.209   2.177  51.724  1.00  0.00     0.176 C 
HETATM   24  O3  UNL     1      18.314   3.532  51.744  1.00  0.00    -0.363 OA
HETATM   25  C16 UNL     1      19.740   3.854  51.607  1.00  0.00     0.135 C 
HETATM   26  C15 UNL     1      20.989   3.421  51.702  1.00  0.00     0.041 C 
BRANCH  17  27
HETATM   27  O1  UNL     1      23.030   0.318  52.295  1.00  0.00    -0.357 OA
HETATM   28  C1  UNL     1      23.448  -0.309  53.494  1.00  0.00     0.209 C 
ENDBRANCH  17  27
ENDBRANCH   1  16
TORSDOF 2
ENDMDL
MODEL 5
REMARK VINA RESULT:      -8.6      2.763      9.449
REMARK  2 active torsions:
REMARK  status: ('A' for Active; 'I' for Inactive)
REMARK    1  A    between atoms: O1_2  and  C2_3 
REMARK    2  A    between atoms: C3_4  and  C4_5 
ROOT
HETATM    1  C4  UNL     1      19.759  -0.462  52.900  1.00  0.00     0.115 A 
HETATM    2  N1  UNL     1      20.727   0.188  52.268  1.00  0.00    -0.232 NA
HETATM    3  C5  UNL     1      21.988   0.315  52.481  1.00  0.00     0.115 A 
HETATM    4  S1  UNL     1      22.988   1.376  51.270  1.00  0.00    -0.069 SA
HETATM    5  C6  UNL     1      24.588   1.061  52.223  1.00  0.00     0.018 A 
HETATM    6  C7  UNL     1      25.856   1.551  51.919  1.00  0.00     0.020 A 
HETATM    7  C8  UNL     1      26.867   1.196  52.751  1.00  0.00     0.008 A 
HETATM    8  C9  UNL     1      26.521   0.384  53.811  1.00  0.00    -0.061 A 
HETATM    9  C10 UNL     1      27.638  -0.029  54.743  1.00  0.00     0.048 C 
HETATM   10  C11 UNL     1      25.281  -0.094  54.106  1.00  0.00     0.020 A 
HETATM   11  C12 UNL     1      24.223   0.233  53.299  1.00  0.00    -0.001 A 
HETATM   12  C13 UNL     1      22.899  -0.094  53.355  1.00  0.00     0.069 A 
HETATM   13  C14 UNL     1      22.237  -0.876  54.271  1.00  0.00     0.229 A 
HETATM   14  O2  UNL     1      22.839  -1.431  55.262  1.00  0.00    -0.279 OA
HETATM   15  S2  UNL     1      20.578  -1.188  54.199  1.00  0.00    -0.026 SA
ENDROOT
BRANCH   1  16
HETATM   16  C3  UNL     1      18.347  -0.442  52.406  1.00  0.00     0.033 C 
HETATM   17  C2  UNL     1      17.472  -1.275  52.941  1.00  0.00     0.085 C 
HETATM   18  C20 UNL     1      16.095  -1.198  52.498  1.00  0.00     0.275 C 
HETATM   19  O5  UNL     1      15.462  -2.226  51.879  1.00  0.00    -0.234 OA
HETATM   20  O4  UNL     1      14.577  -1.794  50.960  1.00  0.00    -0.241 OA
HETATM   21  C19 UNL     1      14.826  -2.315  49.689  1.00  0.00     0.212 C 
HETATM   22  C18 UNL     1      14.975  -1.121  48.645  1.00  0.00     0.056 C 
HETATM   23  C17 UNL     1      15.976  -0.362  49.379  1.00  0.00     0.176 C 
HETATM   24  O3  UNL     1      16.675   0.778  49.136  1.00  0.00    -0.363 OA
HETATM   25  C16 UNL     1      17.796   0.804  50.083  1.00  0.00     0.135 C 
HETATM   26  C15 UNL     1      18.303   0.338  51.215  1.00  0.00     0.041 C 
BRANCH  17  27
HETATM   27  O1  UNL     1      17.713  -2.215  53.915  1.00  0.00    -0.357 OA
HETATM   28  C1  UNL     1      17.470  -3.573  53.596  1.00  0.00     0.209 C 
ENDBRANCH  17  27
ENDBRANCH   1  16
TORSDOF 2
ENDMDL
MODEL 6
REMARK VINA RESULT:      -8.6      3.728      8.454
REMARK  2 active torsions:
REMARK  status: ('A' for Active; 'I' for Inactive)
REMARK    1  A    between atoms: O1_2  and  C2_3 
REMARK    2  A    between atoms: C3_4  and  C4_5 
ROOT
HETATM    1  C4  UNL     1      24.738   2.902  50.452  1.00  0.00     0.115 A 
HETATM    2  N1  UNL     1      24.419   4.181  50.592  1.00  0.00    -0.232 NA
HETATM    3  C5  UNL     1      24.994   5.276  50.238  1.00  0.00     0.115 A 
HETATM    4  S1  UNL     1      24.133   6.908  50.672  1.00  0.00    -0.069 SA
HETATM    5  C6  UNL     1      25.511   7.918  49.867  1.00  0.00     0.018 A 
HETATM    6  C7  UNL     1      25.594   9.305  49.782  1.00  0.00     0.020 A 
HETATM    7  C8  UNL     1      26.684   9.818  49.156  1.00  0.00     0.008 A 
HETATM    8  C9  UNL     1      27.592   8.899  48.674  1.00  0.00    -0.061 A 
HETATM    9  C10 UNL     1      28.808   9.452  47.966  1.00  0.00     0.048 C 
HETATM   10  C11 UNL     1      27.509   7.542  48.759  1.00  0.00     0.020 A 
HETATM   11  C12 UNL     1      26.429   6.971  49.379  1.00  0.00    -0.001 A 
HETATM   12  C13 UNL     1      26.094   5.667  49.607  1.00  0.00     0.069 A 
HETATM   13  C14 UNL     1      26.772   4.524  49.259  1.00  0.00     0.229 A 
HETATM   14  O2  UNL     1      27.892   4.555  48.631  1.00  0.00    -0.279 OA
HETATM   15  S2  UNL     1      26.216   2.969  49.618  1.00  0.00    -0.026 SA
ENDROOT
BRANCH   1  16
HETATM   16  C3  UNL     1      23.852   1.812  50.968  1.00  0.00     0.033 C 
HETATM   17  C2  UNL     1      22.588   1.783  50.586  1.00  0.00     0.085 C 
HETATM   18  C20 UNL     1      21.761   0.684  51.042  1.00  0.00     0.275 C 
HETATM   19  O5  UNL     1      20.667   0.861  51.824  1.00  0.00    -0.234 OA
HETATM   20  O4  UNL     1      20.491  -0.160  52.685  1.00  0.00    -0.241 OA
HETATM   21  C19 UNL     1      20.446   0.262  54.015  1.00  0.00     0.212 C 
HETATM   22  C18 UNL     1      21.540  -0.529  54.860  1.00  0.00     0.056 C 
HETATM   23  C17 UNL     1      22.677  -0.245  53.997  1.00  0.00     0.176 C 
HETATM   24  O3  UNL     1      24.005  -0.526  54.049  1.00  0.00    -0.363 OA
HETATM   25  C16 UNL     1      24.669   0.360  53.084  1.00  0.00     0.135 C 
HETATM   26  C15 UNL     1      24.534   1.147  52.026  1.00  0.00     0.041 C 
BRANCH  17  27
HETATM   27  O1  UNL     1      21.952   2.680  49.762  1.00  0.00    -0.357 OA
HETATM   28  C1  UNL     1      21.638   2.261  48.446  1.00  0.00     0.209 C 
ENDBRANCH  17  27
ENDBRANCH   1  16
TORSDOF 2
ENDMDL
MODEL 7
REMARK VINA RESULT:      -8.4      3.229      9.056
REMARK  2 active torsions:
REMARK  status: ('A' for Active; 'I' for Inactive)
REMARK    1  A    between atoms: O1_2  and  C2_3 
REMARK    2  A    between atoms: C3_4  and  C4_5 
ROOT
HETATM    1  C4  UNL     1      19.023   0.989  51.490  1.00  0.00     0.115 A 
HETATM    2  N1  UNL     1      19.674   0.401  52.484  1.00  0.00    -0.232 NA
HETATM    3  C5  UNL     1      20.923   0.251  52.751  1.00  0.00     0.115 A 
HETATM    4  S1  UNL     1      21.383  -0.689  54.332  1.00  0.00    -0.069 SA
HETATM    5  C6  UNL     1      23.229  -0.472  53.994  1.00  0.00     0.018 A 
HETATM    6  C7  UNL     1      24.284  -0.933  54.776  1.00  0.00     0.020 A 
HETATM    7  C8  UNL     1      25.539  -0.663  54.336  1.00  0.00     0.008 A 
HETATM    8  C9  UNL     1      25.626   0.043  53.155  1.00  0.00    -0.061 A 
HETATM    9  C10 UNL     1      27.017   0.361  52.654  1.00  0.00     0.048 C 
HETATM   10  C11 UNL     1      24.592   0.492  52.391  1.00  0.00     0.020 A 
HETATM   11  C12 UNL     1      23.304   0.248  52.789  1.00  0.00    -0.001 A 
HETATM   12  C13 UNL     1      22.101   0.571  52.231  1.00  0.00     0.069 A 
HETATM   13  C14 UNL     1      21.841   1.262  51.071  1.00  0.00     0.229 A 
HETATM   14  O2  UNL     1      22.777   1.717  50.318  1.00  0.00    -0.279 OA
HETATM   15  S2  UNL     1      20.278   1.584  50.513  1.00  0.00    -0.026 SA
ENDROOT
BRANCH   1  16
HETATM   16  C3  UNL     1      17.527   1.020  51.442  1.00  0.00     0.033 C 
HETATM   17  C2  UNL     1      16.908   2.174  51.615  1.00  0.00     0.085 C 
HETATM   18  C20 UNL     1      15.464   2.199  51.501  1.00  0.00     0.275 C 
HETATM   19  O5  UNL     1      14.649   2.543  52.529  1.00  0.00    -0.234 OA
HETATM   20  O4  UNL     1      13.490   1.857  52.508  1.00  0.00    -0.241 OA
HETATM   21  C19 UNL     1      13.260   1.155  53.692  1.00  0.00     0.212 C 
HETATM   22  C18 UNL     1      13.018  -0.383  53.358  1.00  0.00     0.056 C 
HETATM   23  C17 UNL     1      14.217  -0.587  52.559  1.00  0.00     0.176 C 
HETATM   24  O3  UNL     1      14.778  -1.658  51.941  1.00  0.00    -0.363 OA
HETATM   25  C16 UNL     1      16.168  -1.297  51.633  1.00  0.00     0.135 C 
HETATM   26  C15 UNL     1      17.052  -0.322  51.480  1.00  0.00     0.041 C 
BRANCH  17  27
HETATM   27  O1  UNL     1      17.487   3.394  51.870  1.00  0.00    -0.357 OA
HETATM   28  C1  UNL     1      17.486   4.356  50.830  1.00  0.00     0.209 C 
ENDBRANCH  17  27
ENDBRANCH   1  16
TORSDOF 2
ENDMDL
MODEL 8
REMARK VINA RESULT:      -8.4      4.765      7.836
REMARK  2 active torsions:
REMARK  status: ('A' for Active; 'I' for Inactive)
REMARK    1  A    between atoms: O1_2  and  C2_3 
REMARK    2  A    between atoms: C3_4  and  C4_5 
ROOT
HETATM    1  C4  UNL     1      24.235   5.769  50.108  1.00  0.00     0.115 A 
HETATM    2  N1  UNL     1      25.053   4.756  50.359  1.00  0.00    -0.232 NA
HETATM    3  C5  UNL     1      24.921   3.659  51.015  1.00  0.00     0.115 A 
HETATM    4  S1  UNL     1      26.412   2.493  51.099  1.00  0.00    -0.069 SA
HETATM    5  C6  UNL     1      25.454   1.245  52.145  1.00  0.00     0.018 A 
HETATM    6  C7  UNL     1      25.921   0.032  52.641  1.00  0.00     0.020 A 
HETATM    7  C8  UNL     1      25.052  -0.707  53.376  1.00  0.00     0.008 A 
HETATM    8  C9  UNL     1      23.796  -0.167  53.549  1.00  0.00    -0.061 A 
HETATM    9  C10 UNL     1      22.811  -0.981  54.358  1.00  0.00     0.048 C 
HETATM   10  C11 UNL     1      23.340   1.021  53.063  1.00  0.00     0.020 A 
HETATM   11  C12 UNL     1      24.175   1.807  52.314  1.00  0.00    -0.001 A 
HETATM   12  C13 UNL     1      23.991   3.020  51.714  1.00  0.00     0.069 A 
HETATM   13  C14 UNL     1      22.871   3.816  51.694  1.00  0.00     0.229 A 
HETATM   14  O2  UNL     1      21.782   3.482  52.288  1.00  0.00    -0.279 OA
HETATM   15  S2  UNL     1      22.804   5.304  50.898  1.00  0.00    -0.026 SA
ENDROOT
BRANCH   1  16
HETATM   16  C3  UNL     1      24.666   6.942  49.285  1.00  0.00     0.033 C 
HETATM   17  C2  UNL     1      24.214   7.054  48.049  1.00  0.00     0.085 C 
HETATM   18  C20 UNL     1      24.589   8.229  47.288  1.00  0.00     0.275 C 
HETATM   19  O5  UNL     1      25.314   8.164  46.144  1.00  0.00    -0.234 OA
HETATM   20  O4  UNL     1      26.133   9.225  46.004  1.00  0.00    -0.241 OA
HETATM   21  C19 UNL     1      27.470   8.855  45.855  1.00  0.00     0.212 C 
HETATM   22  C18 UNL     1      28.350   9.588  46.961  1.00  0.00     0.056 C 
HETATM   23  C17 UNL     1      27.561   9.188  48.116  1.00  0.00     0.176 C 
HETATM   24  O3  UNL     1      27.678   9.367  49.458  1.00  0.00    -0.363 OA
HETATM   25  C16 UNL     1      26.779   8.400  50.100  1.00  0.00     0.135 C 
HETATM   26  C15 UNL     1      25.740   7.589  49.961  1.00  0.00     0.041 C 
BRANCH  17  27
HETATM   27  O1  UNL     1      23.385   6.180  47.389  1.00  0.00    -0.357 OA
HETATM   28  C1  UNL     1      22.091   6.637  47.036  1.00  0.00     0.209 C 
ENDBRANCH  17  27
ENDBRANCH   1  16
TORSDOF 2
ENDMDL
MODEL 9
REMARK VINA RESULT:      -8.3      2.345      8.699
REMARK  2 active torsions:
REMARK  status: ('A' for Active; 'I' for Inactive)
REMARK    1  A    between atoms: O1_2  and  C2_3 
REMARK    2  A    between atoms: C3_4  and  C4_5 
ROOT
HETATM    1  C4  UNL     1      20.777   1.232  51.378  1.00  0.00     0.115 A 
HETATM    2  N1  UNL     1      21.527   0.532  52.218  1.00  0.00    -0.232 NA
HETATM    3  C5  UNL     1      22.748   0.637  52.606  1.00  0.00     0.115 A 
HETATM    4  S1  UNL     1      23.393  -0.635  53.854  1.00  0.00    -0.069 SA
HETATM    5  C6  UNL     1      25.101   0.170  53.882  1.00  0.00     0.018 A 
HETATM    6  C7  UNL     1      26.208  -0.234  54.624  1.00  0.00     0.020 A 
HETATM    7  C8  UNL     1      27.342   0.498  54.485  1.00  0.00     0.008 A 
HETATM    8  C9  UNL     1      27.268   1.567  53.618  1.00  0.00    -0.061 A 
HETATM    9  C10 UNL     1      28.520   2.400  53.458  1.00  0.00     0.048 C 
HETATM   10  C11 UNL     1      26.185   1.961  52.893  1.00  0.00     0.020 A 
HETATM   11  C12 UNL     1      25.014   1.258  52.995  1.00  0.00    -0.001 A 
HETATM   12  C13 UNL     1      23.797   1.422  52.397  1.00  0.00     0.069 A 
HETATM   13  C14 UNL     1      23.397   2.377  51.494  1.00  0.00     0.229 A 
HETATM   14  O2  UNL     1      24.187   3.299  51.074  1.00  0.00    -0.279 OA
HETATM   15  S2  UNL     1      21.840   2.443  50.841  1.00  0.00    -0.026 SA
ENDROOT
BRANCH   1  16
HETATM   16  C3  UNL     1      19.346   0.877  51.121  1.00  0.00     0.033 C 
HETATM   17  C2  UNL     1      18.621   1.668  50.350  1.00  0.00     0.085 C 
HETATM   18  C20 UNL     1      17.258   1.276  50.057  1.00  0.00     0.275 C 
HETATM   19  O5  UNL     1      16.183   2.016  50.427  1.00  0.00    -0.234 OA
HETATM   20  O4  UNL     1      15.121   1.247  50.736  1.00  0.00    -0.241 OA
HETATM   21  C19 UNL     1      14.644   1.483  52.026  1.00  0.00     0.212 C 
HETATM   22  C18 UNL     1      14.608   0.114  52.838  1.00  0.00     0.056 C 
HETATM   23  C17 UNL     1      15.984  -0.286  52.583  1.00  0.00     0.176 C 
HETATM   24  O3  UNL     1      16.762  -1.328  52.976  1.00  0.00    -0.363 OA
HETATM   25  C16 UNL     1      18.154  -0.955  52.694  1.00  0.00     0.135 C 
HETATM   26  C15 UNL     1      18.975  -0.160  52.023  1.00  0.00     0.041 C 
BRANCH  17  27
HETATM   27  O1  UNL     1      19.026   2.837  49.752  1.00  0.00    -0.357 OA
HETATM   28  C1  UNL     1      18.943   2.920  48.340  1.00  0.00     0.209 C 
ENDBRANCH  17  27
ENDBRANCH   1  16
TORSDOF 2
ENDMDL
