MODEL 1
REMARK VINA RESULT:      -8.0      0.000      0.000
REMARK  7 active torsions:
REMARK  status: ('A' for Active; 'I' for Inactive)
REMARK    1  A    between atoms: O1_2  and  C2_3 
REMARK    2  A    between atoms: C7_8  and  O2_9 
REMARK    3  A    between atoms: O2_9  and  C8_10 
REMARK    4  A    between atoms: C8_10  and  C9_11 
REMARK    5  A    between atoms: C9_11  and  C10_12 
REMARK    6  A    between atoms: C10_12  and  N1_13 
REMARK    7  A    between atoms: C15_19  and  S1_20 
ROOT
HETATM    1  C2  UNL     1      26.137   3.252  50.320  1.00  0.00     0.103 A 
HETATM    2  C3  UNL     1      24.919   3.359  49.633  1.00  0.00     0.072 A 
HETATM    3  C4  UNL     1      23.762   2.706  49.990  1.00  0.00     0.074 A 
HETATM    4  C5  UNL     1      23.795   1.877  51.116  1.00  0.00     0.029 A 
HETATM    5  C6  UNL     1      25.014   1.809  51.751  1.00  0.00     0.056 A 
HETATM    6  C7  UNL     1      26.208   2.428  51.455  1.00  0.00     0.103 A 
HETATM    7  C15 UNL     1      22.973   1.111  51.813  1.00  0.00     0.080 C 
HETATM    8  N2  UNL     1      21.564   0.863  51.617  1.00  0.00    -0.350 N 
HETATM    9  C16 UNL     1      20.797   1.992  51.203  1.00  0.00     0.034 A 
HETATM   10  C17 UNL     1      19.787   1.623  50.289  1.00  0.00     0.031 A 
HETATM   11  C18 UNL     1      18.989   2.538  49.558  1.00  0.00     0.033 A 
HETATM   12  C19 UNL     1      19.751   3.438  50.244  1.00  0.00     0.081 A 
HETATM   13  C20 UNL     1      20.623   4.231  51.030  1.00  0.00     0.247 A 
HETATM   14  F1  UNL     1      20.521   5.616  50.963  1.00  0.00    -0.207 F 
HETATM   15  C21 UNL     1      21.362   3.192  51.714  1.00  0.00     0.075 A 
HETATM   16  N3  UNL     1      21.226   3.492  49.966  1.00  0.00    -0.294 N 
HETATM   17  C22 UNL     1      21.615   2.799  48.910  1.00  0.00     0.214 C 
HETATM   18  N4  UNL     1      22.941   3.120  49.074  1.00  0.00    -0.243 NA
HETATM   19  H21 UNL     1      21.079  -0.042  51.734  1.00  0.00     0.166 HD
ENDROOT
BRANCH   6  20
HETATM   20  O2  UNL     1      27.411   2.377  52.057  1.00  0.00    -0.348 OA
BRANCH  20  21
HETATM   21  C8  UNL     1      27.865   2.425  53.341  1.00  0.00     0.177 C 
BRANCH  21  22
HETATM   22  C9  UNL     1      29.078   1.566  53.577  1.00  0.00     0.046 C 
BRANCH  22  23
HETATM   23  C10 UNL     1      28.716   0.601  54.684  1.00  0.00     0.119 C 
BRANCH  23  24
HETATM   24  N1  UNL     1      28.284  -0.672  54.200  1.00  0.00    -0.408 N 
HETATM   25  C11 UNL     1      26.918  -0.785  53.830  1.00  0.00     0.143 C 
HETATM   26  C12 UNL     1      26.880  -1.365  52.414  1.00  0.00     0.187 C 
HETATM   27  O3  UNL     1      27.426  -2.623  52.408  1.00  0.00    -0.388 OA
HETATM   28  C13 UNL     1      28.650  -2.719  53.026  1.00  0.00     0.187 C 
HETATM   29  C14 UNL     1      29.233  -1.379  53.418  1.00  0.00     0.143 C 
ENDBRANCH  23  24
ENDBRANCH  22  23
ENDBRANCH  21  22
ENDBRANCH  20  21
ENDBRANCH   6  20
BRANCH   1  30
HETATM   30  O1  UNL     1      27.302   3.927  49.939  1.00  0.00    -0.353 OA
HETATM   31  C1  UNL     1      27.263   4.694  48.762  1.00  0.00     0.210 C 
ENDBRANCH   1  30
BRANCH   7  32
HETATM   32  S1  UNL     1      23.299   0.110  53.287  1.00  0.00    -0.124 SA
HETATM   33  H20 UNL     1      22.181   0.039  54.125  1.00  0.00     0.108 HD
ENDBRANCH   7  32
TORSDOF 7
ENDMDL
MODEL 2
REMARK VINA RESULT:      -7.8      3.141      5.124
REMARK  7 active torsions:
REMARK  status: ('A' for Active; 'I' for Inactive)
REMARK    1  A    between atoms: O1_2  and  C2_3 
REMARK    2  A    between atoms: C7_8  and  O2_9 
REMARK    3  A    between atoms: O2_9  and  C8_10 
REMARK    4  A    between atoms: C8_10  and  C9_11 
REMARK    5  A    between atoms: C9_11  and  C10_12 
REMARK    6  A    between atoms: C10_12  and  N1_13 
REMARK    7  A    between atoms: C15_19  and  S1_20 
ROOT
HETATM    1  C2  UNL     1      21.089   3.485  52.214  1.00  0.00     0.103 A 
HETATM    2  C3  UNL     1      21.475   4.756  51.764  1.00  0.00     0.072 A 
HETATM    3  C4  UNL     1      22.742   5.080  51.338  1.00  0.00     0.074 A 
HETATM    4  C5  UNL     1      23.717   4.079  51.352  1.00  0.00     0.029 A 
HETATM    5  C6  UNL     1      23.284   2.852  51.802  1.00  0.00     0.056 A 
HETATM    6  C7  UNL     1      22.042   2.454  52.242  1.00  0.00     0.103 A 
HETATM    7  C15 UNL     1      24.990   3.924  51.030  1.00  0.00     0.080 C 
HETATM    8  N2  UNL     1      25.914   4.878  50.461  1.00  0.00    -0.350 N 
HETATM    9  C16 UNL     1      25.362   5.751  49.478  1.00  0.00     0.034 A 
HETATM   10  C17 UNL     1      25.915   7.047  49.568  1.00  0.00     0.031 A 
HETATM   11  C18 UNL     1      25.437   8.178  48.860  1.00  0.00     0.033 A 
HETATM   12  C19 UNL     1      24.549   7.255  48.389  1.00  0.00     0.081 A 
HETATM   13  C20 UNL     1      23.712   6.178  48.004  1.00  0.00     0.247 A 
HETATM   14  F1  UNL     1      22.702   6.407  47.077  1.00  0.00    -0.207 F 
HETATM   15  C21 UNL     1      24.302   5.110  48.782  1.00  0.00     0.075 A 
HETATM   16  N3  UNL     1      23.580   6.631  49.353  1.00  0.00    -0.294 N 
HETATM   17  C22 UNL     1      23.538   7.206  50.542  1.00  0.00     0.214 C 
HETATM   18  N4  UNL     1      22.595   6.333  51.031  1.00  0.00    -0.243 NA
HETATM   19  H21 UNL     1      26.911   4.987  50.709  1.00  0.00     0.166 HD
ENDROOT
BRANCH   6  20
HETATM   20  O2  UNL     1      21.595   1.266  52.689  1.00  0.00    -0.348 OA
BRANCH  20  21
HETATM   21  C8  UNL     1      22.047   0.310  53.549  1.00  0.00     0.177 C 
BRANCH  21  22
HETATM   22  C9  UNL     1      23.235  -0.451  53.025  1.00  0.00     0.046 C 
BRANCH  22  23
HETATM   23  C10 UNL     1      24.245  -0.501  54.149  1.00  0.00     0.119 C 
BRANCH  23  24
HETATM   24  N1  UNL     1      25.568  -0.159  53.729  1.00  0.00    -0.408 N 
HETATM   25  C11 UNL     1      26.280   0.759  54.546  1.00  0.00     0.143 C 
HETATM   26  C12 UNL     1      27.635   0.122  54.865  1.00  0.00     0.187 C 
HETATM   27  O3  UNL     1      28.351  -0.060  53.710  1.00  0.00    -0.388 OA
HETATM   28  C13 UNL     1      27.657  -0.682  52.699  1.00  0.00     0.187 C 
HETATM   29  C14 UNL     1      26.307  -1.211  53.131  1.00  0.00     0.143 C 
ENDBRANCH  23  24
ENDBRANCH  22  23
ENDBRANCH  21  22
ENDBRANCH  20  21
ENDBRANCH   6  20
BRANCH   1  30
HETATM   30  O1  UNL     1      19.793   3.176  52.643  1.00  0.00    -0.353 OA
HETATM   31  C1  UNL     1      18.754   3.244  51.698  1.00  0.00     0.210 C 
ENDBRANCH   1  30
BRANCH   7  32
HETATM   32  S1  UNL     1      26.044   2.457  51.159  1.00  0.00    -0.124 SA
HETATM   33  H20 UNL     1      26.399   2.186  52.486  1.00  0.00     0.108 HD
ENDBRANCH   7  32
TORSDOF 7
ENDMDL
MODEL 3
REMARK VINA RESULT:      -7.5      4.710      9.154
REMARK  7 active torsions:
REMARK  status: ('A' for Active; 'I' for Inactive)
REMARK    1  A    between atoms: O1_2  and  C2_3 
REMARK    2  A    between atoms: C7_8  and  O2_9 
REMARK    3  A    between atoms: O2_9  and  C8_10 
REMARK    4  A    between atoms: C8_10  and  C9_11 
REMARK    5  A    between atoms: C9_11  and  C10_12 
REMARK    6  A    between atoms: C10_12  and  N1_13 
REMARK    7  A    between atoms: C15_19  and  S1_20 
ROOT
HETATM    1  C2  UNL     1      21.026   0.681  53.313  1.00  0.00     0.103 A 
HETATM    2  C3  UNL     1      22.167  -0.132  53.387  1.00  0.00     0.072 A 
HETATM    3  C4  UNL     1      23.410   0.226  52.921  1.00  0.00     0.074 A 
HETATM    4  C5  UNL     1      23.555   1.485  52.330  1.00  0.00     0.029 A 
HETATM    5  C6  UNL     1      22.405   2.240  52.283  1.00  0.00     0.056 A 
HETATM    6  C7  UNL     1      21.133   1.952  52.726  1.00  0.00     0.103 A 
HETATM    7  C15 UNL     1      24.506   2.228  51.791  1.00  0.00     0.080 C 
HETATM    8  N2  UNL     1      25.913   1.944  51.633  1.00  0.00    -0.350 N 
HETATM    9  C16 UNL     1      26.522   1.250  52.720  1.00  0.00     0.034 A 
HETATM   10  C17 UNL     1      27.488   0.326  52.268  1.00  0.00     0.031 A 
HETATM   11  C18 UNL     1      28.125  -0.640  53.087  1.00  0.00     0.033 A 
HETATM   12  C19 UNL     1      27.331  -0.064  54.035  1.00  0.00     0.081 A 
HETATM   13  C20 UNL     1      26.446   0.642  54.888  1.00  0.00     0.247 A 
HETATM   14  F1  UNL     1      26.398   0.305  56.236  1.00  0.00    -0.207 F 
HETATM   15  C21 UNL     1      25.878   1.579  53.943  1.00  0.00     0.075 A 
HETATM   16  N3  UNL     1      25.840  -0.198  53.904  1.00  0.00    -0.294 N 
HETATM   17  C22 UNL     1      25.442  -1.061  52.985  1.00  0.00     0.214 C 
HETATM   18  N4  UNL     1      24.107  -0.830  53.216  1.00  0.00    -0.243 NA
HETATM   19  H21 UNL     1      26.498   2.181  50.814  1.00  0.00     0.166 HD
ENDROOT
BRANCH   6  20
HETATM   20  O2  UNL     1      19.995   2.669  52.690  1.00  0.00    -0.348 OA
BRANCH  20  21
HETATM   21  C8  UNL     1      19.306   3.366  51.742  1.00  0.00     0.177 C 
BRANCH  21  22
HETATM   22  C9  UNL     1      17.924   2.827  51.493  1.00  0.00     0.046 C 
BRANCH  22  23
HETATM   23  C10 UNL     1      16.970   3.988  51.660  1.00  0.00     0.119 C 
BRANCH  23  24
HETATM   24  N1  UNL     1      15.630   3.579  51.942  1.00  0.00    -0.408 N 
HETATM   25  C11 UNL     1      15.280   2.251  51.583  1.00  0.00     0.143 C 
HETATM   26  C12 UNL     1      14.666   1.596  52.823  1.00  0.00     0.187 C 
HETATM   27  O3  UNL     1      13.518   2.255  53.181  1.00  0.00    -0.388 OA
HETATM   28  C13 UNL     1      13.645   3.621  53.267  1.00  0.00     0.187 C 
HETATM   29  C14 UNL     1      15.074   4.103  53.136  1.00  0.00     0.143 C 
ENDBRANCH  23  24
ENDBRANCH  22  23
ENDBRANCH  21  22
ENDBRANCH  20  21
ENDBRANCH   6  20
BRANCH   1  30
HETATM   30  O1  UNL     1      19.770   0.298  53.795  1.00  0.00    -0.353 OA
HETATM   31  C1  UNL     1      19.020  -0.612  53.029  1.00  0.00     0.210 C 
ENDBRANCH   1  30
BRANCH   7  32
HETATM   32  S1  UNL     1      24.406   3.889  51.076  1.00  0.00    -0.124 SA
HETATM   33  H20 UNL     1      25.554   4.208  50.339  1.00  0.00     0.108 HD
ENDBRANCH   7  32
TORSDOF 7
ENDMDL
MODEL 4
REMARK VINA RESULT:      -7.5      4.084      7.865
REMARK  7 active torsions:
REMARK  status: ('A' for Active; 'I' for Inactive)
REMARK    1  A    between atoms: O1_2  and  C2_3 
REMARK    2  A    between atoms: C7_8  and  O2_9 
REMARK    3  A    between atoms: O2_9  and  C8_10 
REMARK    4  A    between atoms: C8_10  and  C9_11 
REMARK    5  A    between atoms: C9_11  and  C10_12 
REMARK    6  A    between atoms: C10_12  and  N1_13 
REMARK    7  A    between atoms: C15_19  and  S1_20 
ROOT
HETATM    1  C2  UNL     1      21.710   2.865  51.318  1.00  0.00     0.103 A 
HETATM    2  C3  UNL     1      22.979   2.949  51.908  1.00  0.00     0.072 A 
HETATM    3  C4  UNL     1      23.492   2.026  52.789  1.00  0.00     0.074 A 
HETATM    4  C5  UNL     1      22.698   0.925  53.124  1.00  0.00     0.029 A 
HETATM    5  C6  UNL     1      21.464   0.892  52.517  1.00  0.00     0.056 A 
HETATM    6  C7  UNL     1      20.885   1.773  51.631  1.00  0.00     0.103 A 
HETATM    7  C15 UNL     1      22.773  -0.167  53.866  1.00  0.00     0.080 C 
HETATM    8  N2  UNL     1      23.867  -0.654  54.674  1.00  0.00    -0.350 N 
HETATM    9  C16 UNL     1      25.167  -0.464  54.120  1.00  0.00     0.034 A 
HETATM   10  C17 UNL     1      26.115  -0.155  55.119  1.00  0.00     0.031 A 
HETATM   11  C18 UNL     1      27.443   0.271  54.866  1.00  0.00     0.033 A 
HETATM   12  C19 UNL     1      27.026   0.132  53.575  1.00  0.00     0.081 A 
HETATM   13  C20 UNL     1      26.435  -0.062  52.301  1.00  0.00     0.247 A 
HETATM   14  F1  UNL     1      27.202   0.153  51.162  1.00  0.00    -0.207 F 
HETATM   15  C21 UNL     1      25.112  -0.491  52.700  1.00  0.00     0.075 A 
HETATM   16  N3  UNL     1      25.941   1.039  53.066  1.00  0.00    -0.294 N 
HETATM   17  C22 UNL     1      25.641   2.045  53.870  1.00  0.00     0.214 C 
HETATM   18  N4  UNL     1      24.661   2.534  53.040  1.00  0.00    -0.243 NA
HETATM   19  H21 UNL     1      23.791  -1.104  55.601  1.00  0.00     0.166 HD
ENDROOT
BRANCH   6  20
HETATM   20  O2  UNL     1      19.683   1.765  51.026  1.00  0.00    -0.348 OA
BRANCH  20  21
HETATM   21  C8  UNL     1      19.146   1.172  49.922  1.00  0.00     0.177 C 
BRANCH  21  22
HETATM   22  C9  UNL     1      17.750   0.654  50.142  1.00  0.00     0.046 C 
BRANCH  22  23
HETATM   23  C10 UNL     1      17.364   1.039  51.553  1.00  0.00     0.119 C 
BRANCH  23  24
HETATM   24  N1  UNL     1      17.036  -0.086  52.371  1.00  0.00    -0.408 N 
HETATM   25  C11 UNL     1      15.696  -0.552  52.307  1.00  0.00     0.143 C 
HETATM   26  C12 UNL     1      15.754  -2.055  52.025  1.00  0.00     0.187 C 
HETATM   27  O3  UNL     1      16.379  -2.703  53.060  1.00  0.00    -0.388 OA
HETATM   28  C13 UNL     1      17.580  -2.151  53.438  1.00  0.00     0.187 C 
HETATM   29  C14 UNL     1      18.060  -1.057  52.509  1.00  0.00     0.143 C 
ENDBRANCH  23  24
ENDBRANCH  22  23
ENDBRANCH  21  22
ENDBRANCH  20  21
ENDBRANCH   6  20
BRANCH   1  30
HETATM   30  O1  UNL     1      21.208   3.816  50.422  1.00  0.00    -0.353 OA
HETATM   31  C1  UNL     1      20.992   5.120  50.900  1.00  0.00     0.210 C 
ENDBRANCH   1  30
BRANCH   7  32
HETATM   32  S1  UNL     1      21.544  -1.472  54.125  1.00  0.00    -0.124 SA
HETATM   33  H20 UNL     1      21.011  -1.435  55.420  1.00  0.00     0.108 HD
ENDBRANCH   7  32
TORSDOF 7
ENDMDL
MODEL 5
REMARK VINA RESULT:      -7.4      3.438      7.860
REMARK  7 active torsions:
REMARK  status: ('A' for Active; 'I' for Inactive)
REMARK    1  A    between atoms: O1_2  and  C2_3 
REMARK    2  A    between atoms: C7_8  and  O2_9 
REMARK    3  A    between atoms: O2_9  and  C8_10 
REMARK    4  A    between atoms: C8_10  and  C9_11 
REMARK    5  A    between atoms: C9_11  and  C10_12 
REMARK    6  A    between atoms: C10_12  and  N1_13 
REMARK    7  A    between atoms: C15_19  and  S1_20 
ROOT
HETATM    1  C2  UNL     1      21.032   0.642  53.359  1.00  0.00     0.103 A 
HETATM    2  C3  UNL     1      22.170  -0.171  53.456  1.00  0.00     0.072 A 
HETATM    3  C4  UNL     1      23.411   0.161  52.962  1.00  0.00     0.074 A 
HETATM    4  C5  UNL     1      23.554   1.394  52.317  1.00  0.00     0.029 A 
HETATM    5  C6  UNL     1      22.406   2.151  52.251  1.00  0.00     0.056 A 
HETATM    6  C7  UNL     1      21.138   1.887  52.718  1.00  0.00     0.103 A 
HETATM    7  C15 UNL     1      24.502   2.110  51.739  1.00  0.00     0.080 C 
HETATM    8  N2  UNL     1      25.906   1.813  51.578  1.00  0.00    -0.350 N 
HETATM    9  C16 UNL     1      26.524   1.164  52.687  1.00  0.00     0.034 A 
HETATM   10  C17 UNL     1      27.482   0.217  52.264  1.00  0.00     0.031 A 
HETATM   11  C18 UNL     1      28.123  -0.716  53.117  1.00  0.00     0.033 A 
HETATM   12  C19 UNL     1      27.341  -0.097  54.048  1.00  0.00     0.081 A 
HETATM   13  C20 UNL     1      26.468   0.647  54.880  1.00  0.00     0.247 A 
HETATM   14  F1  UNL     1      26.432   0.368  56.241  1.00  0.00    -0.207 F 
HETATM   15  C21 UNL     1      25.893   1.547  53.902  1.00  0.00     0.075 A 
HETATM   16  N3  UNL     1      25.849  -0.231  53.938  1.00  0.00    -0.294 N 
HETATM   17  C22 UNL     1      25.438  -1.130  53.060  1.00  0.00     0.214 C 
HETATM   18  N4  UNL     1      24.106  -0.884  53.295  1.00  0.00    -0.243 NA
HETATM   19  H21 UNL     1      26.483   2.013  50.744  1.00  0.00     0.166 HD
ENDROOT
BRANCH   6  20
HETATM   20  O2  UNL     1      20.002   2.607  52.663  1.00  0.00    -0.348 OA
BRANCH  20  21
HETATM   21  C8  UNL     1      19.036   2.842  51.731  1.00  0.00     0.177 C 
BRANCH  21  22
HETATM   22  C9  UNL     1      18.968   1.785  50.662  1.00  0.00     0.046 C 
BRANCH  22  23
HETATM   23  C10 UNL     1      18.715   2.506  49.357  1.00  0.00     0.119 C 
BRANCH  23  24
HETATM   24  N1  UNL     1      19.882   2.614  48.539  1.00  0.00    -0.408 N 
HETATM   25  C11 UNL     1      20.226   3.915  48.088  1.00  0.00     0.143 C 
HETATM   26  C12 UNL     1      21.695   4.145  48.452  1.00  0.00     0.187 C 
HETATM   27  O3  UNL     1      22.489   3.243  47.792  1.00  0.00    -0.388 OA
HETATM   28  C13 UNL     1      22.079   1.935  47.896  1.00  0.00     0.187 C 
HETATM   29  C14 UNL     1      20.943   1.736  48.877  1.00  0.00     0.143 C 
ENDBRANCH  23  24
ENDBRANCH  22  23
ENDBRANCH  21  22
ENDBRANCH  20  21
ENDBRANCH   6  20
BRANCH   1  30
HETATM   30  O1  UNL     1      19.779   0.285  53.870  1.00  0.00    -0.353 OA
HETATM   31  C1  UNL     1      19.128  -0.824  53.300  1.00  0.00     0.210 C 
ENDBRANCH   1  30
BRANCH   7  32
HETATM   32  S1  UNL     1      24.401   3.740  50.955  1.00  0.00    -0.124 SA
HETATM   33  H20 UNL     1      25.288   3.855  49.878  1.00  0.00     0.108 HD
ENDBRANCH   7  32
TORSDOF 7
ENDMDL
MODEL 6
REMARK VINA RESULT:      -7.4      4.518      8.867
REMARK  7 active torsions:
REMARK  status: ('A' for Active; 'I' for Inactive)
REMARK    1  A    between atoms: O1_2  and  C2_3 
REMARK    2  A    between atoms: C7_8  and  O2_9 
REMARK    3  A    between atoms: O2_9  and  C8_10 
REMARK    4  A    between atoms: C8_10  and  C9_11 
REMARK    5  A    between atoms: C9_11  and  C10_12 
REMARK    6  A    between atoms: C10_12  and  N1_13 
REMARK    7  A    between atoms: C15_19  and  S1_20 
ROOT
HETATM    1  C2  UNL     1      21.658   2.808  51.378  1.00  0.00     0.103 A 
HETATM    2  C3  UNL     1      22.934   2.901  51.952  1.00  0.00     0.072 A 
HETATM    3  C4  UNL     1      23.463   1.983  52.829  1.00  0.00     0.074 A 
HETATM    4  C5  UNL     1      22.679   0.878  53.177  1.00  0.00     0.029 A 
HETATM    5  C6  UNL     1      21.438   0.837  52.584  1.00  0.00     0.056 A 
HETATM    6  C7  UNL     1      20.843   1.713  51.703  1.00  0.00     0.103 A 
HETATM    7  C15 UNL     1      22.769  -0.212  53.920  1.00  0.00     0.080 C 
HETATM    8  N2  UNL     1      23.875  -0.691  54.715  1.00  0.00    -0.350 N 
HETATM    9  C16 UNL     1      25.168  -0.495  54.145  1.00  0.00     0.034 A 
HETATM   10  C17 UNL     1      26.126  -0.179  55.132  1.00  0.00     0.031 A 
HETATM   11  C18 UNL     1      27.448   0.254  54.862  1.00  0.00     0.033 A 
HETATM   12  C19 UNL     1      27.016   0.109  53.576  1.00  0.00     0.081 A 
HETATM   13  C20 UNL     1      26.411  -0.091  52.310  1.00  0.00     0.247 A 
HETATM   14  F1  UNL     1      27.163   0.126  51.161  1.00  0.00    -0.207 F 
HETATM   15  C21 UNL     1      25.095  -0.526  52.726  1.00  0.00     0.075 A 
HETATM   16  N3  UNL     1      25.920   1.009  53.079  1.00  0.00    -0.294 N 
HETATM   17  C22 UNL     1      25.625   2.015  53.884  1.00  0.00     0.214 C 
HETATM   18  N4  UNL     1      24.631   2.497  53.065  1.00  0.00    -0.243 NA
HETATM   19  H21 UNL     1      23.813  -1.139  55.644  1.00  0.00     0.166 HD
ENDROOT
BRANCH   6  20
HETATM   20  O2  UNL     1      19.633   1.697  51.113  1.00  0.00    -0.348 OA
BRANCH  20  21
HETATM   21  C8  UNL     1      18.339   1.771  51.533  1.00  0.00     0.177 C 
BRANCH  21  22
HETATM   22  C9  UNL     1      17.799   3.176  51.558  1.00  0.00     0.046 C 
BRANCH  22  23
HETATM   23  C10 UNL     1      16.555   3.176  50.699  1.00  0.00     0.119 C 
BRANCH  23  24
HETATM   24  N1  UNL     1      15.351   3.321  51.455  1.00  0.00    -0.408 N 
HETATM   25  C11 UNL     1      14.448   2.226  51.433  1.00  0.00     0.143 C 
HETATM   26  C12 UNL     1      14.124   1.879  52.889  1.00  0.00     0.187 C 
HETATM   27  O3  UNL     1      13.493   2.936  53.493  1.00  0.00    -0.388 OA
HETATM   28  C13 UNL     1      14.120   4.148  53.327  1.00  0.00     0.187 C 
HETATM   29  C14 UNL     1      15.480   4.038  52.672  1.00  0.00     0.143 C 
ENDBRANCH  23  24
ENDBRANCH  22  23
ENDBRANCH  21  22
ENDBRANCH  20  21
ENDBRANCH   6  20
BRANCH   1  30
HETATM   30  O1  UNL     1      21.140   3.754  50.486  1.00  0.00    -0.353 OA
HETATM   31  C1  UNL     1      21.001   5.078  50.938  1.00  0.00     0.210 C 
ENDBRANCH   1  30
BRANCH   7  32
HETATM   32  S1  UNL     1      21.550  -1.523  54.197  1.00  0.00    -0.124 SA
HETATM   33  H20 UNL     1      20.828  -1.817  53.034  1.00  0.00     0.108 HD
ENDBRANCH   7  32
TORSDOF 7
ENDMDL
MODEL 7
REMARK VINA RESULT:      -7.3      2.430      4.247
REMARK  7 active torsions:
REMARK  status: ('A' for Active; 'I' for Inactive)
REMARK    1  A    between atoms: O1_2  and  C2_3 
REMARK    2  A    between atoms: C7_8  and  O2_9 
REMARK    3  A    between atoms: O2_9  and  C8_10 
REMARK    4  A    between atoms: C8_10  and  C9_11 
REMARK    5  A    between atoms: C9_11  and  C10_12 
REMARK    6  A    between atoms: C10_12  and  N1_13 
REMARK    7  A    between atoms: C15_19  and  S1_20 
ROOT
HETATM    1  C2  UNL     1      22.245   0.952  53.076  1.00  0.00     0.103 A 
HETATM    2  C3  UNL     1      21.574   2.109  52.655  1.00  0.00     0.072 A 
HETATM    3  C4  UNL     1      22.117   3.070  51.834  1.00  0.00     0.074 A 
HETATM    4  C5  UNL     1      23.428   2.886  51.383  1.00  0.00     0.029 A 
HETATM    5  C6  UNL     1      24.038   1.735  51.826  1.00  0.00     0.056 A 
HETATM    6  C7  UNL     1      23.562   0.734  52.643  1.00  0.00     0.103 A 
HETATM    7  C15 UNL     1      24.307   3.493  50.605  1.00  0.00     0.080 C 
HETATM    8  N2  UNL     1      24.170   4.713  49.844  1.00  0.00    -0.350 N 
HETATM    9  C16 UNL     1      22.897   4.910  49.230  1.00  0.00     0.034 A 
HETATM   10  C17 UNL     1      22.518   6.270  49.252  1.00  0.00     0.031 A 
HETATM   11  C18 UNL     1      21.235   6.754  48.892  1.00  0.00     0.033 A 
HETATM   12  C19 UNL     1      21.015   5.424  48.681  1.00  0.00     0.081 A 
HETATM   13  C20 UNL     1      20.956   4.018  48.515  1.00  0.00     0.247 A 
HETATM   14  F1  UNL     1      19.779   3.443  48.050  1.00  0.00    -0.207 F 
HETATM   15  C21 UNL     1      22.304   3.661  48.904  1.00  0.00     0.075 A 
HETATM   16  N3  UNL     1      21.055   4.492  49.859  1.00  0.00    -0.294 N 
HETATM   17  C22 UNL     1      21.086   5.092  51.037  1.00  0.00     0.214 C 
HETATM   18  N4  UNL     1      21.132   3.911  51.739  1.00  0.00    -0.243 NA
HETATM   19  H21 UNL     1      24.891   5.443  49.721  1.00  0.00     0.166 HD
ENDROOT
BRANCH   6  20
HETATM   20  O2  UNL     1      24.138  -0.398  53.091  1.00  0.00    -0.348 OA
BRANCH  20  21
HETATM   21  C8  UNL     1      25.363  -0.747  53.577  1.00  0.00     0.177 C 
BRANCH  21  22
HETATM   22  C9  UNL     1      26.356  -1.088  52.500  1.00  0.00     0.046 C 
BRANCH  22  23
HETATM   23  C10 UNL     1      27.702  -1.212  53.177  1.00  0.00     0.119 C 
BRANCH  23  24
HETATM   24  N1  UNL     1      28.352   0.047  53.368  1.00  0.00    -0.408 N 
HETATM   25  C11 UNL     1      27.852   1.144  52.619  1.00  0.00     0.143 C 
HETATM   26  C12 UNL     1      27.579   2.279  53.609  1.00  0.00     0.187 C 
HETATM   27  O3  UNL     1      28.750   2.672  54.206  1.00  0.00    -0.388 OA
HETATM   28  C13 UNL     1      29.504   1.644  54.718  1.00  0.00     0.187 C 
HETATM   29  C14 UNL     1      28.798   0.306  54.689  1.00  0.00     0.143 C 
ENDBRANCH  23  24
ENDBRANCH  22  23
ENDBRANCH  21  22
ENDBRANCH  20  21
ENDBRANCH   6  20
BRANCH   1  30
HETATM   30  O1  UNL     1      21.672  -0.014  53.911  1.00  0.00    -0.353 OA
HETATM   31  C1  UNL     1      20.427  -0.551  53.540  1.00  0.00     0.210 C 
ENDBRANCH   1  30
BRANCH   7  32
HETATM   32  S1  UNL     1      26.001   3.011  50.182  1.00  0.00    -0.124 SA
HETATM   33  H20 UNL     1      26.577   2.210  51.175  1.00  0.00     0.108 HD
ENDBRANCH   7  32
TORSDOF 7
ENDMDL
MODEL 8
REMARK VINA RESULT:      -7.2      4.599      7.263
REMARK  7 active torsions:
REMARK  status: ('A' for Active; 'I' for Inactive)
REMARK    1  A    between atoms: O1_2  and  C2_3 
REMARK    2  A    between atoms: C7_8  and  O2_9 
REMARK    3  A    between atoms: O2_9  and  C8_10 
REMARK    4  A    between atoms: C8_10  and  C9_11 
REMARK    5  A    between atoms: C9_11  and  C10_12 
REMARK    6  A    between atoms: C10_12  and  N1_13 
REMARK    7  A    between atoms: C15_19  and  S1_20 
ROOT
HETATM    1  C2  UNL     1      27.940   5.902  48.350  1.00  0.00     0.103 A 
HETATM    2  C3  UNL     1      27.391   4.719  48.866  1.00  0.00     0.072 A 
HETATM    3  C4  UNL     1      26.243   4.657  49.621  1.00  0.00     0.074 A 
HETATM    4  C5  UNL     1      25.571   5.852  49.896  1.00  0.00     0.029 A 
HETATM    5  C6  UNL     1      26.153   6.981  49.366  1.00  0.00     0.056 A 
HETATM    6  C7  UNL     1      27.293   7.121  48.607  1.00  0.00     0.103 A 
HETATM    7  C15 UNL     1      24.480   6.260  50.523  1.00  0.00     0.080 C 
HETATM    8  N2  UNL     1      23.475   5.484  51.211  1.00  0.00    -0.350 N 
HETATM    9  C16 UNL     1      23.137   4.241  50.598  1.00  0.00     0.034 A 
HETATM   10  C17 UNL     1      22.882   3.242  51.562  1.00  0.00     0.031 A 
HETATM   11  C18 UNL     1      22.709   1.866  51.270  1.00  0.00     0.033 A 
HETATM   12  C19 UNL     1      22.915   2.318  49.999  1.00  0.00     0.081 A 
HETATM   13  C20 UNL     1      23.146   2.950  48.752  1.00  0.00     0.247 A 
HETATM   14  F1  UNL     1      23.132   2.181  47.593  1.00  0.00    -0.207 F 
HETATM   15  C21 UNL     1      23.299   4.321  49.188  1.00  0.00     0.075 A 
HETATM   16  N3  UNL     1      24.257   2.895  49.649  1.00  0.00    -0.294 N 
HETATM   17  C22 UNL     1      25.193   2.709  50.563  1.00  0.00     0.214 C 
HETATM   18  N4  UNL     1      26.155   3.382  49.847  1.00  0.00    -0.243 NA
HETATM   19  H21 UNL     1      23.001   5.740  52.093  1.00  0.00     0.166 HD
ENDROOT
BRANCH   6  20
HETATM   20  O2  UNL     1      27.882   8.211  48.080  1.00  0.00    -0.348 OA
BRANCH  20  21
HETATM   21  C8  UNL     1      28.490   9.329  48.569  1.00  0.00     0.177 C 
BRANCH  21  22
HETATM   22  C9  UNL     1      29.826   9.052  49.203  1.00  0.00     0.046 C 
BRANCH  22  23
HETATM   23  C10 UNL     1      30.876   9.466  48.196  1.00  0.00     0.119 C 
BRANCH  23  24
HETATM   24  N1  UNL     1      31.756   8.400  47.832  1.00  0.00    -0.408 N 
HETATM   25  C11 UNL     1      32.085   8.286  46.456  1.00  0.00     0.143 C 
HETATM   26  C12 UNL     1      33.612   8.228  46.361  1.00  0.00     0.187 C 
HETATM   27  O3  UNL     1      34.080   7.110  47.003  1.00  0.00    -0.388 OA
HETATM   28  C13 UNL     1      33.585   6.930  48.272  1.00  0.00     0.187 C 
HETATM   29  C14 UNL     1      32.773   8.104  48.775  1.00  0.00     0.143 C 
ENDBRANCH  23  24
ENDBRANCH  22  23
ENDBRANCH  21  22
ENDBRANCH  20  21
ENDBRANCH   6  20
BRANCH   1  30
HETATM   30  O1  UNL     1      29.110   5.942  47.583  1.00  0.00    -0.353 OA
HETATM   31  C1  UNL     1      30.243   5.271  48.076  1.00  0.00     0.210 C 
ENDBRANCH   1  30
BRANCH   7  32
HETATM   32  S1  UNL     1      23.827   7.936  50.731  1.00  0.00    -0.124 SA
HETATM   33  H20 UNL     1      22.860   8.241  49.765  1.00  0.00     0.108 HD
ENDBRANCH   7  32
TORSDOF 7
ENDMDL
MODEL 9
REMARK VINA RESULT:      -7.1      3.569      8.019
REMARK  7 active torsions:
REMARK  status: ('A' for Active; 'I' for Inactive)
REMARK    1  A    between atoms: O1_2  and  C2_3 
REMARK    2  A    between atoms: C7_8  and  O2_9 
REMARK    3  A    between atoms: O2_9  and  C8_10 
REMARK    4  A    between atoms: C8_10  and  C9_11 
REMARK    5  A    between atoms: C9_11  and  C10_12 
REMARK    6  A    between atoms: C10_12  and  N1_13 
REMARK    7  A    between atoms: C15_19  and  S1_20 
ROOT
HETATM    1  C2  UNL     1      21.356   0.999  52.979  1.00  0.00     0.103 A 
HETATM    2  C3  UNL     1      22.423   0.113  53.185  1.00  0.00     0.072 A 
HETATM    3  C4  UNL     1      23.720   0.351  52.793  1.00  0.00     0.074 A 
HETATM    4  C5  UNL     1      24.001   1.558  52.145  1.00  0.00     0.029 A 
HETATM    5  C6  UNL     1      22.918   2.389  51.970  1.00  0.00     0.056 A 
HETATM    6  C7  UNL     1      21.600   2.220  52.331  1.00  0.00     0.103 A 
HETATM    7  C15 UNL     1      25.041   2.198  51.638  1.00  0.00     0.080 C 
HETATM    8  N2  UNL     1      26.430   1.804  51.602  1.00  0.00    -0.350 N 
HETATM    9  C16 UNL     1      26.907   1.137  52.770  1.00  0.00     0.034 A 
HETATM   10  C17 UNL     1      27.830   0.120  52.444  1.00  0.00     0.031 A 
HETATM   11  C18 UNL     1      28.332  -0.836  53.362  1.00  0.00     0.033 A 
HETATM   12  C19 UNL     1      27.519  -0.147  54.213  1.00  0.00     0.081 A 
HETATM   13  C20 UNL     1      26.632   0.671  54.957  1.00  0.00     0.247 A 
HETATM   14  F1  UNL     1      26.463   0.422  56.314  1.00  0.00    -0.207 F 
HETATM   15  C21 UNL     1      26.204   1.586  53.921  1.00  0.00     0.075 A 
HETATM   16  N3  UNL     1      26.035  -0.183  53.979  1.00  0.00    -0.294 N 
HETATM   17  C22 UNL     1      25.639  -1.070  53.082  1.00  0.00     0.214 C 
HETATM   18  N4  UNL     1      24.312  -0.731  53.199  1.00  0.00    -0.243 NA
HETATM   19  H21 UNL     1      27.088   1.948  50.818  1.00  0.00     0.166 HD
ENDROOT
BRANCH   6  20
HETATM   20  O2  UNL     1      20.524   3.014  52.169  1.00  0.00    -0.348 OA
BRANCH  20  21
HETATM   21  C8  UNL     1      19.704   3.352  51.134  1.00  0.00     0.177 C 
BRANCH  21  22
HETATM   22  C9  UNL     1      19.959   4.735  50.599  1.00  0.00     0.046 C 
BRANCH  22  23
HETATM   23  C10 UNL     1      21.014   4.596  49.525  1.00  0.00     0.119 C 
BRANCH  23  24
HETATM   24  N1  UNL     1      22.091   5.523  49.671  1.00  0.00    -0.408 N 
HETATM   25  C11 UNL     1      22.647   6.050  48.476  1.00  0.00     0.143 C 
HETATM   26  C12 UNL     1      22.652   7.575  48.615  1.00  0.00     0.187 C 
HETATM   27  O3  UNL     1      23.461   7.947  49.658  1.00  0.00    -0.388 OA
HETATM   28  C13 UNL     1      23.226   7.273  50.833  1.00  0.00     0.187 C 
HETATM   29  C14 UNL     1      21.996   6.393  50.787  1.00  0.00     0.143 C 
ENDBRANCH  23  24
ENDBRANCH  22  23
ENDBRANCH  21  22
ENDBRANCH  20  21
ENDBRANCH   6  20
BRANCH   1  30
HETATM   30  O1  UNL     1      20.042   0.737  53.386  1.00  0.00    -0.353 OA
HETATM   31  C1  UNL     1      19.631  -0.606  53.457  1.00  0.00     0.210 C 
ENDBRANCH   1  30
BRANCH   7  32
HETATM   32  S1  UNL     1      25.118   3.814  50.825  1.00  0.00    -0.124 SA
HETATM   33  H20 UNL     1      25.933   3.785  49.687  1.00  0.00     0.108 HD
ENDBRANCH   7  32
TORSDOF 7
ENDMDL
