MODEL 1
REMARK VINA RESULT:      -8.5      0.000      0.000
REMARK  9 active torsions:
REMARK  status: ('A' for Active; 'I' for Inactive)
REMARK    1  A    between atoms: O1_2  and  C2_3 
REMARK    2  A    between atoms: C5_6  and  N1_7 
REMARK    3  A    between atoms: N1_7  and  C6_8 
REMARK    4  A    between atoms: C6_8  and  N2_10 
REMARK    5  A    between atoms: C10_13  and  O2_14 
REMARK    6  A    between atoms: O2_14  and  C11_15 
REMARK    7  A    between atoms: C15_21  and  O3_22 
REMARK    8  A    between atoms: C17_24  and  O4_25 
REMARK    9  A    between atoms: O4_25  and  C18_26 
ROOT
HETATM    1  N2  UNL     1      24.330   5.589  49.054  1.00  0.00     0.114 N 
HETATM    2  C8  UNL     1      23.190   6.073  49.766  1.00  0.00     0.305 C 
HETATM    3  C9  UNL     1      23.149   5.448  51.108  1.00  0.00     0.036 C 
HETATM    4  C10 UNL     1      23.321   4.143  51.225  1.00  0.00     0.055 C 
HETATM    5  C21 UNL     1      23.547   3.420  49.944  1.00  0.00     0.095 C 
HETATM    6  C22 UNL     1      24.552   4.179  49.133  1.00  0.00     0.282 C 
ENDROOT
BRANCH   4   7
HETATM    7  O2  UNL     1      23.300   3.479  52.416  1.00  0.00    -0.296 OA
BRANCH   7   8
HETATM    8  C11 UNL     1      23.149   2.130  52.575  1.00  0.00     0.183 A 
HETATM    9  N3  UNL     1      22.115   1.345  52.296  1.00  0.00    -0.217 NA
HETATM   10  C12 UNL     1      22.110   0.020  52.508  1.00  0.00     0.236 A 
HETATM   11  N4  UNL     1      23.202  -0.588  53.034  1.00  0.00    -0.241 NA
HETATM   12  C13 UNL     1      24.294   0.147  53.343  1.00  0.00     0.075 A 
HETATM   13  C14 UNL     1      25.358  -0.553  53.872  1.00  0.00     0.072 A 
HETATM   14  C20 UNL     1      24.262   1.506  53.112  1.00  0.00     0.049 A 
HETATM   15  C15 UNL     1      26.484   0.170  54.196  1.00  0.00     0.104 A 
HETATM   16  C17 UNL     1      26.522   1.529  53.993  1.00  0.00     0.113 A 
HETATM   17  C19 UNL     1      25.422   2.167  53.458  1.00  0.00     0.058 A 
BRANCH  15  18
HETATM   18  O3  UNL     1      27.607  -0.437  54.734  1.00  0.00    -0.353 OA
HETATM   19  C16 UNL     1      28.635  -0.951  53.889  1.00  0.00     0.210 C 
ENDBRANCH  15  18
BRANCH  16  20
HETATM   20  O4  UNL     1      27.635   2.290  54.306  1.00  0.00    -0.283 OA
BRANCH  20  21
HETATM   21  C18 UNL     1      28.587   2.514  53.319  1.00  0.00     0.403 C 
HETATM   22  O5  UNL     1      29.294   2.515  54.365  1.00  0.00    -0.276 OA
ENDBRANCH  20  21
ENDBRANCH  16  20
ENDBRANCH   7   8
ENDBRANCH   4   7
BRANCH   1  23
HETATM   23  C6  UNL     1      25.545   6.253  49.473  1.00  0.00     0.318 C 
HETATM   24  C7  UNL     1      25.319   7.466  50.325  1.00  0.00     0.066 C 
BRANCH  23  25
HETATM   25  N1  UNL     1      26.320   6.591  48.268  1.00  0.00    -0.364 N 
HETATM   26  H6  UNL     1      25.932   6.929  47.338  1.00  0.00     0.161 HD
BRANCH  25  27
HETATM   27  C5  UNL     1      27.744   6.467  48.307  1.00  0.00     0.012 A 
HETATM   28  C4  UNL     1      28.536   7.527  48.282  1.00  0.00     0.027 A 
HETATM   29  C3  UNL     1      29.949   7.166  48.330  1.00  0.00     0.034 A 
HETATM   30  C2  UNL     1      29.969   5.842  48.384  1.00  0.00     0.051 A 
HETATM   31  C23 UNL     1      28.592   5.231  48.378  1.00  0.00     0.121 A 
BRANCH  30  32
HETATM   32  O1  UNL     1      31.045   4.953  48.446  1.00  0.00    -0.360 OA
HETATM   33  C1  UNL     1      31.823   4.640  47.302  1.00  0.00     0.209 C 
ENDBRANCH  30  32
ENDBRANCH  25  27
ENDBRANCH  23  25
ENDBRANCH   1  23
TORSDOF 9
ENDMDL
MODEL 2
REMARK VINA RESULT:      -8.1      1.477      2.035
REMARK  9 active torsions:
REMARK  status: ('A' for Active; 'I' for Inactive)
REMARK    1  A    between atoms: O1_2  and  C2_3 
REMARK    2  A    between atoms: C5_6  and  N1_7 
REMARK    3  A    between atoms: N1_7  and  C6_8 
REMARK    4  A    between atoms: C6_8  and  N2_10 
REMARK    5  A    between atoms: C10_13  and  O2_14 
REMARK    6  A    between atoms: O2_14  and  C11_15 
REMARK    7  A    between atoms: C15_21  and  O3_22 
REMARK    8  A    between atoms: C17_24  and  O4_25 
REMARK    9  A    between atoms: O4_25  and  C18_26 
ROOT
HETATM    1  N2  UNL     1      23.140   5.009  48.701  1.00  0.00     0.114 N 
HETATM    2  C8  UNL     1      21.884   5.054  49.379  1.00  0.00     0.305 C 
HETATM    3  C9  UNL     1      22.062   4.584  50.773  1.00  0.00     0.036 C 
HETATM    4  C10 UNL     1      22.741   3.474  51.004  1.00  0.00     0.055 C 
HETATM    5  C21 UNL     1      23.271   2.794  49.790  1.00  0.00     0.095 C 
HETATM    6  C22 UNL     1      23.907   3.821  48.903  1.00  0.00     0.282 C 
ENDROOT
BRANCH   4   7
HETATM    7  O2  UNL     1      22.957   2.963  52.250  1.00  0.00    -0.296 OA
BRANCH   7   8
HETATM    8  C11 UNL     1      22.924   1.639  52.586  1.00  0.00     0.183 A 
HETATM    9  N3  UNL     1      21.954   0.744  52.443  1.00  0.00    -0.217 NA
HETATM   10  C12 UNL     1      22.064  -0.539  52.824  1.00  0.00     0.236 A 
HETATM   11  N4  UNL     1      23.214  -0.982  53.390  1.00  0.00    -0.241 NA
HETATM   12  C13 UNL     1      24.246  -0.127  53.568  1.00  0.00     0.075 A 
HETATM   13  C14 UNL     1      25.375  -0.664  54.150  1.00  0.00     0.072 A 
HETATM   14  C20 UNL     1      24.095   1.182  53.164  1.00  0.00     0.049 A 
HETATM   15  C15 UNL     1      26.443   0.184  54.344  1.00  0.00     0.104 A 
HETATM   16  C17 UNL     1      26.362   1.503  53.965  1.00  0.00     0.113 A 
HETATM   17  C19 UNL     1      25.202   1.974  53.387  1.00  0.00     0.058 A 
BRANCH  15  18
HETATM   18  O3  UNL     1      27.624  -0.254  54.920  1.00  0.00    -0.353 OA
HETATM   19  C16 UNL     1      28.671  -0.797  54.118  1.00  0.00     0.210 C 
ENDBRANCH  15  18
BRANCH  16  20
HETATM   20  O4  UNL     1      27.414   2.386  54.142  1.00  0.00    -0.283 OA
BRANCH  20  21
HETATM   21  C18 UNL     1      28.359   2.507  53.131  1.00  0.00     0.403 C 
HETATM   22  O5  UNL     1      29.065   2.666  54.166  1.00  0.00    -0.276 OA
ENDBRANCH  20  21
ENDBRANCH  16  20
ENDBRANCH   7   8
ENDBRANCH   4   7
BRANCH   1  23
HETATM   23  C6  UNL     1      23.975   6.140  49.045  1.00  0.00     0.318 C 
HETATM   24  C7  UNL     1      24.000   7.223  48.009  1.00  0.00     0.066 C 
BRANCH  23  25
HETATM   25  N1  UNL     1      25.331   5.640  49.320  1.00  0.00    -0.364 N 
HETATM   26  H6  UNL     1      25.591   4.673  49.677  1.00  0.00     0.161 HD
BRANCH  25  27
HETATM   27  C5  UNL     1      26.445   6.508  49.096  1.00  0.00     0.012 A 
HETATM   28  C4  UNL     1      27.413   6.195  48.251  1.00  0.00     0.027 A 
HETATM   29  C3  UNL     1      28.446   7.224  48.181  1.00  0.00     0.034 A 
HETATM   30  C2  UNL     1      28.054   8.168  49.025  1.00  0.00     0.051 A 
HETATM   31  C23 UNL     1      26.750   7.844  49.707  1.00  0.00     0.121 A 
BRANCH  30  32
HETATM   32  O1  UNL     1      28.650   9.385  49.366  1.00  0.00    -0.360 OA
HETATM   33  C1  UNL     1      28.063  10.629  49.018  1.00  0.00     0.209 C 
ENDBRANCH  30  32
ENDBRANCH  25  27
ENDBRANCH  23  25
ENDBRANCH   1  23
TORSDOF 9
ENDMDL
MODEL 3
REMARK VINA RESULT:      -8.1      3.025      4.197
REMARK  9 active torsions:
REMARK  status: ('A' for Active; 'I' for Inactive)
REMARK    1  A    between atoms: O1_2  and  C2_3 
REMARK    2  A    between atoms: C5_6  and  N1_7 
REMARK    3  A    between atoms: N1_7  and  C6_8 
REMARK    4  A    between atoms: C6_8  and  N2_10 
REMARK    5  A    between atoms: C10_13  and  O2_14 
REMARK    6  A    between atoms: O2_14  and  C11_15 
REMARK    7  A    between atoms: C15_21  and  O3_22 
REMARK    8  A    between atoms: C17_24  and  O4_25 
REMARK    9  A    between atoms: O4_25  and  C18_26 
ROOT
HETATM    1  N2  UNL     1      20.229   2.189  48.425  1.00  0.00     0.114 N 
HETATM    2  C8  UNL     1      19.397   2.431  49.561  1.00  0.00     0.305 C 
HETATM    3  C9  UNL     1      20.247   2.620  50.759  1.00  0.00     0.036 C 
HETATM    4  C10 UNL     1      21.228   1.769  51.003  1.00  0.00     0.055 C 
HETATM    5  C21 UNL     1      21.374   0.673  50.006  1.00  0.00     0.095 C 
HETATM    6  C22 UNL     1      21.296   1.261  48.630  1.00  0.00     0.282 C 
ENDROOT
BRANCH   4   7
HETATM    7  O2  UNL     1      22.062   1.860  52.078  1.00  0.00    -0.296 OA
BRANCH   7   8
HETATM    8  C11 UNL     1      22.225   0.908  53.045  1.00  0.00     0.183 A 
HETATM    9  N3  UNL     1      21.329   0.332  53.838  1.00  0.00    -0.217 NA
HETATM   10  C12 UNL     1      21.638  -0.601  54.753  1.00  0.00     0.236 A 
HETATM   11  N4  UNL     1      22.924  -1.002  54.906  1.00  0.00    -0.241 NA
HETATM   12  C13 UNL     1      23.892  -0.459  54.133  1.00  0.00     0.075 A 
HETATM   13  C14 UNL     1      25.170  -0.926  54.356  1.00  0.00     0.072 A 
HETATM   14  C20 UNL     1      23.536   0.496  53.205  1.00  0.00     0.049 A 
HETATM   15  C15 UNL     1      26.176  -0.391  53.584  1.00  0.00     0.104 A 
HETATM   16  C17 UNL     1      25.894   0.566  52.638  1.00  0.00     0.113 A 
HETATM   17  C19 UNL     1      24.592   0.988  52.466  1.00  0.00     0.058 A 
BRANCH  15  18
HETATM   18  O3  UNL     1      27.494  -0.791  53.728  1.00  0.00    -0.353 OA
HETATM   19  C16 UNL     1      28.368  -0.115  54.630  1.00  0.00     0.210 C 
ENDBRANCH  15  18
BRANCH  16  20
HETATM   20  O4  UNL     1      26.877   1.128  51.841  1.00  0.00    -0.283 OA
BRANCH  20  21
HETATM   21  C18 UNL     1      26.777   2.473  51.511  1.00  0.00     0.403 C 
HETATM   22  O5  UNL     1      27.818   2.459  52.226  1.00  0.00    -0.276 OA
ENDBRANCH  20  21
ENDBRANCH  16  20
ENDBRANCH   7   8
ENDBRANCH   4   7
BRANCH   1  23
HETATM   23  C6  UNL     1      20.799   3.414  47.908  1.00  0.00     0.318 C 
HETATM   24  C7  UNL     1      20.196   3.875  46.616  1.00  0.00     0.066 C 
BRANCH  23  25
HETATM   25  N1  UNL     1      22.252   3.221  47.775  1.00  0.00    -0.364 N 
HETATM   26  H6  UNL     1      22.742   2.420  47.276  1.00  0.00     0.161 HD
BRANCH  25  27
HETATM   27  C5  UNL     1      23.133   4.183  48.360  1.00  0.00     0.012 A 
HETATM   28  C4  UNL     1      23.980   3.857  49.322  1.00  0.00     0.027 A 
HETATM   29  C3  UNL     1      24.778   4.994  49.770  1.00  0.00     0.034 A 
HETATM   30  C2  UNL     1      24.371   6.017  49.032  1.00  0.00     0.051 A 
HETATM   31  C23 UNL     1      23.289   5.644  48.053  1.00  0.00     0.121 A 
BRANCH  30  32
HETATM   32  O1  UNL     1      24.783   7.352  49.025  1.00  0.00    -0.360 OA
HETATM   33  C1  UNL     1      23.868   8.416  48.819  1.00  0.00     0.209 C 
ENDBRANCH  30  32
ENDBRANCH  25  27
ENDBRANCH  23  25
ENDBRANCH   1  23
TORSDOF 9
ENDMDL
MODEL 4
REMARK VINA RESULT:      -8.0      1.688      7.722
REMARK  9 active torsions:
REMARK  status: ('A' for Active; 'I' for Inactive)
REMARK    1  A    between atoms: O1_2  and  C2_3 
REMARK    2  A    between atoms: C5_6  and  N1_7 
REMARK    3  A    between atoms: N1_7  and  C6_8 
REMARK    4  A    between atoms: C6_8  and  N2_10 
REMARK    5  A    between atoms: C10_13  and  O2_14 
REMARK    6  A    between atoms: O2_14  and  C11_15 
REMARK    7  A    between atoms: C15_21  and  O3_22 
REMARK    8  A    between atoms: C17_24  and  O4_25 
REMARK    9  A    between atoms: O4_25  and  C18_26 
ROOT
HETATM    1  N2  UNL     1      23.370   2.839  51.549  1.00  0.00     0.114 N 
HETATM    2  C8  UNL     1      23.220   2.724  50.133  1.00  0.00     0.305 C 
HETATM    3  C9  UNL     1      24.457   3.198  49.469  1.00  0.00     0.036 C 
HETATM    4  C10 UNL     1      25.001   4.342  49.845  1.00  0.00     0.055 C 
HETATM    5  C21 UNL     1      24.281   5.054  50.937  1.00  0.00     0.095 C 
HETATM    6  C22 UNL     1      23.938   4.066  52.011  1.00  0.00     0.282 C 
ENDROOT
BRANCH   4   7
HETATM    7  O2  UNL     1      26.137   4.859  49.295  1.00  0.00    -0.296 OA
BRANCH   7   8
HETATM    8  C11 UNL     1      26.224   6.030  48.595  1.00  0.00     0.183 A 
HETATM    9  N3  UNL     1      25.278   6.901  48.264  1.00  0.00    -0.217 NA
HETATM   10  C12 UNL     1      25.513   8.023  47.566  1.00  0.00     0.236 A 
HETATM   11  N4  UNL     1      26.773   8.317  47.159  1.00  0.00    -0.241 NA
HETATM   12  C13 UNL     1      27.789   7.477  47.460  1.00  0.00     0.075 A 
HETATM   13  C14 UNL     1      29.034   7.856  47.007  1.00  0.00     0.072 A 
HETATM   14  C20 UNL     1      27.507   6.334  48.178  1.00  0.00     0.049 A 
HETATM   15  C15 UNL     1      30.087   7.018  47.299  1.00  0.00     0.104 A 
HETATM   16  C17 UNL     1      29.881   5.861  48.012  1.00  0.00     0.113 A 
HETATM   17  C19 UNL     1      28.607   5.543  48.436  1.00  0.00     0.058 A 
BRANCH  15  18
HETATM   18  O3  UNL     1      31.380   7.306  46.891  1.00  0.00    -0.353 OA
HETATM   19  C16 UNL     1      31.704   7.402  45.505  1.00  0.00     0.210 C 
ENDBRANCH  15  18
BRANCH  16  20
HETATM   20  O4  UNL     1      30.914   4.994  48.325  1.00  0.00    -0.283 OA
BRANCH  20  21
HETATM   21  C18 UNL     1      31.427   4.181  47.322  1.00  0.00     0.403 C 
HETATM   22  O5  UNL     1      32.281   4.031  48.239  1.00  0.00    -0.276 OA
ENDBRANCH  20  21
ENDBRANCH  16  20
ENDBRANCH   7   8
ENDBRANCH   4   7
BRANCH   1  23
HETATM   23  C6  UNL     1      24.156   1.754  52.093  1.00  0.00     0.318 C 
HETATM   24  C7  UNL     1      23.347   0.572  52.537  1.00  0.00     0.066 C 
BRANCH  23  25
HETATM   25  N1  UNL     1      24.965   2.286  53.202  1.00  0.00    -0.364 N 
HETATM   26  H6  UNL     1      24.689   3.064  53.872  1.00  0.00     0.161 HD
BRANCH  25  27
HETATM   27  C5  UNL     1      26.261   1.731  53.438  1.00  0.00     0.012 A 
HETATM   28  C4  UNL     1      27.366   2.367  53.084  1.00  0.00     0.027 A 
HETATM   29  C3  UNL     1      28.572   1.618  53.420  1.00  0.00     0.034 A 
HETATM   30  C2  UNL     1      28.140   0.502  53.991  1.00  0.00     0.051 A 
HETATM   31  C23 UNL     1      26.638   0.427  54.078  1.00  0.00     0.121 A 
BRANCH  30  32
HETATM   32  O1  UNL     1      28.849  -0.584  54.511  1.00  0.00    -0.360 OA
HETATM   33  C1  UNL     1      29.790  -1.305  53.732  1.00  0.00     0.209 C 
ENDBRANCH  30  32
ENDBRANCH  25  27
ENDBRANCH  23  25
ENDBRANCH   1  23
TORSDOF 9
ENDMDL
MODEL 5
REMARK VINA RESULT:      -7.9      3.419      4.927
REMARK  9 active torsions:
REMARK  status: ('A' for Active; 'I' for Inactive)
REMARK    1  A    between atoms: O1_2  and  C2_3 
REMARK    2  A    between atoms: C5_6  and  N1_7 
REMARK    3  A    between atoms: N1_7  and  C6_8 
REMARK    4  A    between atoms: C6_8  and  N2_10 
REMARK    5  A    between atoms: C10_13  and  O2_14 
REMARK    6  A    between atoms: O2_14  and  C11_15 
REMARK    7  A    between atoms: C15_21  and  O3_22 
REMARK    8  A    between atoms: C17_24  and  O4_25 
REMARK    9  A    between atoms: O4_25  and  C18_26 
ROOT
HETATM    1  N2  UNL     1      21.175   5.357  51.158  1.00  0.00     0.114 N 
HETATM    2  C8  UNL     1      22.077   5.084  52.231  1.00  0.00     0.305 C 
HETATM    3  C9  UNL     1      22.525   3.674  52.150  1.00  0.00     0.036 C 
HETATM    4  C10 UNL     1      21.632   2.718  51.963  1.00  0.00     0.055 C 
HETATM    5  C21 UNL     1      20.223   3.184  51.851  1.00  0.00     0.095 C 
HETATM    6  C22 UNL     1      20.177   4.361  50.925  1.00  0.00     0.282 C 
ENDROOT
BRANCH   4   7
HETATM    7  O2  UNL     1      21.947   1.393  51.875  1.00  0.00    -0.296 OA
BRANCH   7   8
HETATM    8  C11 UNL     1      22.152   0.550  52.930  1.00  0.00     0.183 A 
HETATM    9  N3  UNL     1      21.279  -0.021  53.752  1.00  0.00    -0.217 NA
HETATM   10  C12 UNL     1      21.630  -0.839  54.757  1.00  0.00     0.236 A 
HETATM   11  N4  UNL     1      22.939  -1.122  54.976  1.00  0.00    -0.241 NA
HETATM   12  C13 UNL     1      23.885  -0.577  54.179  1.00  0.00     0.075 A 
HETATM   13  C14 UNL     1      25.188  -0.920  54.474  1.00  0.00     0.072 A 
HETATM   14  C20 UNL     1      23.486   0.258  53.157  1.00  0.00     0.049 A 
HETATM   15  C15 UNL     1      26.172  -0.379  53.678  1.00  0.00     0.104 A 
HETATM   16  C17 UNL     1      25.847   0.462  52.641  1.00  0.00     0.113 A 
HETATM   17  C19 UNL     1      24.522   0.762  52.400  1.00  0.00     0.058 A 
BRANCH  15  18
HETATM   18  O3  UNL     1      27.513  -0.659  53.889  1.00  0.00    -0.353 OA
HETATM   19  C16 UNL     1      28.277   0.093  54.830  1.00  0.00     0.210 C 
ENDBRANCH  15  18
BRANCH  16  20
HETATM   20  O4  UNL     1      26.809   1.025  51.818  1.00  0.00    -0.283 OA
BRANCH  20  21
HETATM   21  C18 UNL     1      26.670   2.356  51.448  1.00  0.00     0.403 C 
HETATM   22  O5  UNL     1      27.723   2.389  52.143  1.00  0.00    -0.276 OA
ENDBRANCH  20  21
ENDBRANCH  16  20
ENDBRANCH   7   8
ENDBRANCH   4   7
BRANCH   1  23
HETATM   23  C6  UNL     1      21.876   5.582  49.913  1.00  0.00     0.318 C 
HETATM   24  C7  UNL     1      22.605   6.891  49.847  1.00  0.00     0.066 C 
BRANCH  23  25
HETATM   25  N1  UNL     1      20.905   5.462  48.814  1.00  0.00    -0.364 N 
HETATM   26  H6  UNL     1      19.934   5.891  48.776  1.00  0.00     0.161 HD
BRANCH  25  27
HETATM   27  C5  UNL     1      21.263   4.699  47.658  1.00  0.00     0.012 A 
HETATM   28  C4  UNL     1      22.082   3.663  47.735  1.00  0.00     0.027 A 
HETATM   29  C3  UNL     1      22.308   3.034  46.437  1.00  0.00     0.034 A 
HETATM   30  C2  UNL     1      21.586   3.741  45.578  1.00  0.00     0.051 A 
HETATM   31  C23 UNL     1      20.838   4.874  46.230  1.00  0.00     0.121 A 
BRANCH  30  32
HETATM   32  O1  UNL     1      21.420   3.597  44.199  1.00  0.00    -0.360 OA
HETATM   33  C1  UNL     1      20.208   3.948  43.551  1.00  0.00     0.209 C 
ENDBRANCH  30  32
ENDBRANCH  25  27
ENDBRANCH  23  25
ENDBRANCH   1  23
TORSDOF 9
ENDMDL
MODEL 6
REMARK VINA RESULT:      -7.9      3.546      6.631
REMARK  9 active torsions:
REMARK  status: ('A' for Active; 'I' for Inactive)
REMARK    1  A    between atoms: O1_2  and  C2_3 
REMARK    2  A    between atoms: C5_6  and  N1_7 
REMARK    3  A    between atoms: N1_7  and  C6_8 
REMARK    4  A    between atoms: C6_8  and  N2_10 
REMARK    5  A    between atoms: C10_13  and  O2_14 
REMARK    6  A    between atoms: O2_14  and  C11_15 
REMARK    7  A    between atoms: C15_21  and  O3_22 
REMARK    8  A    between atoms: C17_24  and  O4_25 
REMARK    9  A    between atoms: O4_25  and  C18_26 
ROOT
HETATM    1  N2  UNL     1      24.072   3.502  50.151  1.00  0.00     0.114 N 
HETATM    2  C8  UNL     1      23.353   4.635  50.641  1.00  0.00     0.305 C 
HETATM    3  C9  UNL     1      22.367   4.190  51.652  1.00  0.00     0.036 C 
HETATM    4  C10 UNL     1      21.591   3.152  51.393  1.00  0.00     0.055 C 
HETATM    5  C21 UNL     1      21.805   2.522  50.061  1.00  0.00     0.095 C 
HETATM    6  C22 UNL     1      23.278   2.357  49.838  1.00  0.00     0.282 C 
ENDROOT
BRANCH   4   7
HETATM    7  O2  UNL     1      20.655   2.668  52.260  1.00  0.00    -0.296 OA
BRANCH   7   8
HETATM    8  C11 UNL     1      19.413   2.212  51.921  1.00  0.00     0.183 A 
HETATM    9  N3  UNL     1      18.464   2.779  51.185  1.00  0.00    -0.217 NA
HETATM   10  C12 UNL     1      17.277   2.205  50.932  1.00  0.00     0.236 A 
HETATM   11  N4  UNL     1      16.996   0.979  51.437  1.00  0.00    -0.241 NA
HETATM   12  C13 UNL     1      17.914   0.339  52.196  1.00  0.00     0.075 A 
HETATM   13  C14 UNL     1      17.542  -0.902  52.667  1.00  0.00     0.072 A 
HETATM   14  C20 UNL     1      19.121   0.961  52.434  1.00  0.00     0.049 A 
HETATM   15  C15 UNL     1      18.458  -1.577  53.443  1.00  0.00     0.104 A 
HETATM   16  C17 UNL     1      19.682  -1.017  53.721  1.00  0.00     0.113 A 
HETATM   17  C19 UNL     1      19.990   0.229  53.216  1.00  0.00     0.058 A 
BRANCH  15  18
HETATM   18  O3  UNL     1      18.185  -2.831  53.966  1.00  0.00    -0.353 OA
HETATM   19  C16 UNL     1      17.246  -3.698  53.333  1.00  0.00     0.210 C 
ENDBRANCH  15  18
BRANCH  16  20
HETATM   20  O4  UNL     1      20.630  -1.664  54.497  1.00  0.00    -0.283 OA
BRANCH  20  21
HETATM   21  C18 UNL     1      21.956  -1.640  54.084  1.00  0.00     0.403 C 
HETATM   22  O5  UNL     1      22.076  -1.790  55.332  1.00  0.00    -0.276 OA
ENDBRANCH  20  21
ENDBRANCH  16  20
ENDBRANCH   7   8
ENDBRANCH   4   7
BRANCH   1  23
HETATM   23  C6  UNL     1      25.107   3.086  51.073  1.00  0.00     0.318 C 
HETATM   24  C7  UNL     1      26.500   3.234  50.539  1.00  0.00     0.066 C 
BRANCH  23  25
HETATM   25  N1  UNL     1      24.836   1.694  51.466  1.00  0.00    -0.364 N 
HETATM   26  H6  UNL     1      24.048   1.076  51.109  1.00  0.00     0.161 HD
BRANCH  25  27
HETATM   27  C5  UNL     1      25.694   1.069  52.424  1.00  0.00     0.012 A 
HETATM   28  C4  UNL     1      25.718   1.450  53.690  1.00  0.00     0.027 A 
HETATM   29  C3  UNL     1      26.665   0.676  54.487  1.00  0.00     0.034 A 
HETATM   30  C2  UNL     1      27.209  -0.186  53.639  1.00  0.00     0.051 A 
HETATM   31  C23 UNL     1      26.672  -0.054  52.238  1.00  0.00     0.121 A 
BRANCH  30  32
HETATM   32  O1  UNL     1      28.177  -1.172  53.844  1.00  0.00    -0.360 OA
HETATM   33  C1  UNL     1      29.550  -0.941  53.571  1.00  0.00     0.209 C 
ENDBRANCH  30  32
ENDBRANCH  25  27
ENDBRANCH  23  25
ENDBRANCH   1  23
TORSDOF 9
ENDMDL
MODEL 7
REMARK VINA RESULT:      -7.7      2.844      4.518
REMARK  9 active torsions:
REMARK  status: ('A' for Active; 'I' for Inactive)
REMARK    1  A    between atoms: O1_2  and  C2_3 
REMARK    2  A    between atoms: C5_6  and  N1_7 
REMARK    3  A    between atoms: N1_7  and  C6_8 
REMARK    4  A    between atoms: C6_8  and  N2_10 
REMARK    5  A    between atoms: C10_13  and  O2_14 
REMARK    6  A    between atoms: O2_14  and  C11_15 
REMARK    7  A    between atoms: C15_21  and  O3_22 
REMARK    8  A    between atoms: C17_24  and  O4_25 
REMARK    9  A    between atoms: O4_25  and  C18_26 
ROOT
HETATM    1  N2  UNL     1      19.753   3.324  50.388  1.00  0.00     0.114 N 
HETATM    2  C8  UNL     1      19.683   2.911  51.753  1.00  0.00     0.305 C 
HETATM    3  C9  UNL     1      21.036   2.527  52.220  1.00  0.00     0.036 C 
HETATM    4  C10 UNL     1      21.781   1.732  51.472  1.00  0.00     0.055 C 
HETATM    5  C21 UNL     1      21.153   1.296  50.195  1.00  0.00     0.095 C 
HETATM    6  C22 UNL     1      20.534   2.488  49.531  1.00  0.00     0.282 C 
ENDROOT
BRANCH   4   7
HETATM    7  O2  UNL     1      23.037   1.325  51.816  1.00  0.00    -0.296 OA
BRANCH   7   8
HETATM    8  C11 UNL     1      24.204   1.912  51.417  1.00  0.00     0.183 A 
HETATM    9  N3  UNL     1      24.440   2.757  50.420  1.00  0.00    -0.217 NA
HETATM   10  C12 UNL     1      25.654   3.260  50.143  1.00  0.00     0.236 A 
HETATM   11  N4  UNL     1      26.722   2.909  50.901  1.00  0.00    -0.241 NA
HETATM   12  C13 UNL     1      26.559   2.053  51.935  1.00  0.00     0.075 A 
HETATM   13  C14 UNL     1      27.698   1.753  52.651  1.00  0.00     0.072 A 
HETATM   14  C20 UNL     1      25.297   1.558  52.188  1.00  0.00     0.049 A 
HETATM   15  C15 UNL     1      27.561   0.883  53.709  1.00  0.00     0.104 A 
HETATM   16  C17 UNL     1      26.333   0.351  54.019  1.00  0.00     0.113 A 
HETATM   17  C19 UNL     1      25.233   0.694  53.261  1.00  0.00     0.058 A 
BRANCH  15  18
HETATM   18  O3  UNL     1      28.643   0.516  54.493  1.00  0.00    -0.353 OA
HETATM   19  C16 UNL     1      29.581  -0.457  54.036  1.00  0.00     0.210 C 
ENDBRANCH  15  18
BRANCH  16  20
HETATM   20  O4  UNL     1      26.155  -0.527  55.076  1.00  0.00    -0.283 OA
BRANCH  20  21
HETATM   21  C18 UNL     1      24.895  -1.075  55.280  1.00  0.00     0.403 C 
HETATM   22  O5  UNL     1      25.391  -1.127  56.440  1.00  0.00    -0.276 OA
ENDBRANCH  20  21
ENDBRANCH  16  20
ENDBRANCH   7   8
ENDBRANCH   4   7
BRANCH   1  23
HETATM   23  C6  UNL     1      20.252   4.676  50.262  1.00  0.00     0.318 C 
HETATM   24  C7  UNL     1      19.243   5.657  49.745  1.00  0.00     0.066 C 
BRANCH  23  25
HETATM   25  N1  UNL     1      21.447   4.645  49.405  1.00  0.00    -0.364 N 
HETATM   26  H6  UNL     1      21.616   4.002  48.575  1.00  0.00     0.161 HD
BRANCH  25  27
HETATM   27  C5  UNL     1      22.517   5.553  49.678  1.00  0.00     0.012 A 
HETATM   28  C4  UNL     1      22.751   6.005  50.900  1.00  0.00     0.027 A 
HETATM   29  C3  UNL     1      23.888   6.920  50.947  1.00  0.00     0.034 A 
HETATM   30  C2  UNL     1      24.324   6.996  49.697  1.00  0.00     0.051 A 
HETATM   31  C23 UNL     1      23.524   6.151  48.740  1.00  0.00     0.121 A 
BRANCH  30  32
HETATM   32  O1  UNL     1      25.385   7.722  49.150  1.00  0.00    -0.360 OA
HETATM   33  C1  UNL     1      25.818   7.521  47.814  1.00  0.00     0.209 C 
ENDBRANCH  30  32
ENDBRANCH  25  27
ENDBRANCH  23  25
ENDBRANCH   1  23
TORSDOF 9
ENDMDL
MODEL 8
REMARK VINA RESULT:      -7.7      2.477      3.763
REMARK  9 active torsions:
REMARK  status: ('A' for Active; 'I' for Inactive)
REMARK    1  A    between atoms: O1_2  and  C2_3 
REMARK    2  A    between atoms: C5_6  and  N1_7 
REMARK    3  A    between atoms: N1_7  and  C6_8 
REMARK    4  A    between atoms: C6_8  and  N2_10 
REMARK    5  A    between atoms: C10_13  and  O2_14 
REMARK    6  A    between atoms: O2_14  and  C11_15 
REMARK    7  A    between atoms: C15_21  and  O3_22 
REMARK    8  A    between atoms: C17_24  and  O4_25 
REMARK    9  A    between atoms: O4_25  and  C18_26 
ROOT
HETATM    1  N2  UNL     1      24.925   7.357  49.420  1.00  0.00     0.114 N 
HETATM    2  C8  UNL     1      24.412   6.940  50.687  1.00  0.00     0.305 C 
HETATM    3  C9  UNL     1      24.659   5.490  50.862  1.00  0.00     0.036 C 
HETATM    4  C10 UNL     1      24.365   4.655  49.880  1.00  0.00     0.055 C 
HETATM    5  C21 UNL     1      23.798   5.292  48.660  1.00  0.00     0.095 C 
HETATM    6  C22 UNL     1      24.621   6.497  48.320  1.00  0.00     0.282 C 
ENDROOT
BRANCH   4   7
HETATM    7  O2  UNL     1      24.556   3.306  49.948  1.00  0.00    -0.296 OA
BRANCH   7   8
HETATM    8  C11 UNL     1      25.273   2.649  50.908  1.00  0.00     0.183 A 
HETATM    9  N3  UNL     1      26.554   2.754  51.241  1.00  0.00    -0.217 NA
HETATM   10  C12 UNL     1      27.129   2.036  52.219  1.00  0.00     0.236 A 
HETATM   11  N4  UNL     1      26.393   1.144  52.928  1.00  0.00    -0.241 NA
HETATM   12  C13 UNL     1      25.080   0.983  52.645  1.00  0.00     0.075 A 
HETATM   13  C14 UNL     1      24.410   0.056  53.415  1.00  0.00     0.072 A 
HETATM   14  C20 UNL     1      24.526   1.738  51.634  1.00  0.00     0.049 A 
HETATM   15  C15 UNL     1      23.072  -0.129  53.149  1.00  0.00     0.104 A 
HETATM   16  C17 UNL     1      22.454   0.590  52.155  1.00  0.00     0.113 A 
HETATM   17  C19 UNL     1      23.184   1.503  51.422  1.00  0.00     0.058 A 
BRANCH  15  18
HETATM   18  O3  UNL     1      22.307  -1.036  53.865  1.00  0.00    -0.353 OA
HETATM   19  C16 UNL     1      22.690  -1.439  55.178  1.00  0.00     0.210 C 
ENDBRANCH  15  18
BRANCH  16  20
HETATM   20  O4  UNL     1      21.110   0.433  51.857  1.00  0.00    -0.283 OA
BRANCH  20  21
HETATM   21  C18 UNL     1      20.286   1.551  51.892  1.00  0.00     0.403 C 
HETATM   22  O5  UNL     1      19.669   0.750  52.649  1.00  0.00    -0.276 OA
ENDBRANCH  20  21
ENDBRANCH  16  20
ENDBRANCH   7   8
ENDBRANCH   4   7
BRANCH   1  23
HETATM   23  C6  UNL     1      26.360   7.538  49.458  1.00  0.00     0.318 C 
HETATM   24  C7  UNL     1      26.796   8.888  49.944  1.00  0.00     0.066 C 
BRANCH  23  25
HETATM   25  N1  UNL     1      26.891   7.263  48.113  1.00  0.00    -0.364 N 
HETATM   26  H6  UNL     1      26.365   7.352  47.194  1.00  0.00     0.161 HD
BRANCH  25  27
HETATM   27  C5  UNL     1      28.247   6.831  47.983  1.00  0.00     0.012 A 
HETATM   28  C4  UNL     1      29.187   7.625  47.496  1.00  0.00     0.027 A 
HETATM   29  C3  UNL     1      30.495   6.978  47.452  1.00  0.00     0.034 A 
HETATM   30  C2  UNL     1      30.296   5.759  47.934  1.00  0.00     0.051 A 
HETATM   31  C23 UNL     1      28.864   5.507  48.330  1.00  0.00     0.121 A 
BRANCH  30  32
HETATM   32  O1  UNL     1      31.190   4.702  48.126  1.00  0.00    -0.360 OA
HETATM   33  C1  UNL     1      31.709   3.955  47.038  1.00  0.00     0.209 C 
ENDBRANCH  30  32
ENDBRANCH  25  27
ENDBRANCH  23  25
ENDBRANCH   1  23
TORSDOF 9
ENDMDL
MODEL 9
REMARK VINA RESULT:      -7.7      4.438      9.163
REMARK  9 active torsions:
REMARK  status: ('A' for Active; 'I' for Inactive)
REMARK    1  A    between atoms: O1_2  and  C2_3 
REMARK    2  A    between atoms: C5_6  and  N1_7 
REMARK    3  A    between atoms: N1_7  and  C6_8 
REMARK    4  A    between atoms: C6_8  and  N2_10 
REMARK    5  A    between atoms: C10_13  and  O2_14 
REMARK    6  A    between atoms: O2_14  and  C11_15 
REMARK    7  A    between atoms: C15_21  and  O3_22 
REMARK    8  A    between atoms: C17_24  and  O4_25 
REMARK    9  A    between atoms: O4_25  and  C18_26 
ROOT
HETATM    1  N2  UNL     1      17.943   1.523  50.191  1.00  0.00     0.114 N 
HETATM    2  C8  UNL     1      19.208   1.632  49.536  1.00  0.00     0.305 C 
HETATM    3  C9  UNL     1      20.292   1.454  50.530  1.00  0.00     0.036 C 
HETATM    4  C10 UNL     1      20.239   2.111  51.675  1.00  0.00     0.055 C 
HETATM    5  C21 UNL     1      19.049   2.989  51.845  1.00  0.00     0.095 C 
HETATM    6  C22 UNL     1      17.827   2.230  51.427  1.00  0.00     0.282 C 
ENDROOT
BRANCH   4   7
HETATM    7  O2  UNL     1      21.188   2.012  52.651  1.00  0.00    -0.296 OA
BRANCH   7   8
HETATM    8  C11 UNL     1      21.570   0.860  53.278  1.00  0.00     0.183 A 
HETATM    9  N3  UNL     1      20.836  -0.097  53.832  1.00  0.00    -0.217 NA
HETATM   10  C12 UNL     1      21.355  -1.187  54.420  1.00  0.00     0.236 A 
HETATM   11  N4  UNL     1      22.700  -1.354  54.470  1.00  0.00    -0.241 NA
HETATM   12  C13 UNL     1      23.513  -0.420  53.925  1.00  0.00     0.075 A 
HETATM   13  C14 UNL     1      24.865  -0.672  54.021  1.00  0.00     0.072 A 
HETATM   14  C20 UNL     1      22.942   0.685  53.331  1.00  0.00     0.049 A 
HETATM   15  C15 UNL     1      25.716   0.262  53.476  1.00  0.00     0.104 A 
HETATM   16  C17 UNL     1      25.216   1.389  52.867  1.00  0.00     0.113 A 
HETATM   17  C19 UNL     1      23.851   1.578  52.805  1.00  0.00     0.058 A 
BRANCH  15  18
HETATM   18  O3  UNL     1      27.092   0.105  53.518  1.00  0.00    -0.353 OA
HETATM   19  C16 UNL     1      27.805   0.233  54.748  1.00  0.00     0.210 C 
ENDBRANCH  15  18
BRANCH  16  20
HETATM   20  O4  UNL     1      26.040   2.351  52.307  1.00  0.00    -0.283 OA
BRANCH  20  21
HETATM   21  C18 UNL     1      25.777   2.778  51.011  1.00  0.00     0.403 C 
HETATM   22  O5  UNL     1      27.040   2.792  51.038  1.00  0.00    -0.276 OA
ENDBRANCH  20  21
ENDBRANCH  16  20
ENDBRANCH   7   8
ENDBRANCH   4   7
BRANCH   1  23
HETATM   23  C6  UNL     1      17.584   0.143  50.433  1.00  0.00     0.318 C 
HETATM   24  C7  UNL     1      16.637  -0.432  49.423  1.00  0.00     0.066 C 
BRANCH  23  25
HETATM   25  N1  UNL     1      17.028   0.047  51.793  1.00  0.00    -0.364 N 
HETATM   26  H6  UNL     1      16.686   0.853  52.396  1.00  0.00     0.161 HD
BRANCH  25  27
HETATM   27  C5  UNL     1      16.919  -1.240  52.404  1.00  0.00     0.012 A 
HETATM   28  C4  UNL     1      17.876  -1.728  53.177  1.00  0.00     0.027 A 
HETATM   29  C3  UNL     1      17.554  -3.054  53.693  1.00  0.00     0.034 A 
HETATM   30  C2  UNL     1      16.360  -3.341  53.193  1.00  0.00     0.051 A 
HETATM   31  C23 UNL     1      15.806  -2.244  52.322  1.00  0.00     0.121 A 
BRANCH  30  32
HETATM   32  O1  UNL     1      15.560  -4.476  53.349  1.00  0.00    -0.360 OA
HETATM   33  C1  UNL     1      14.157  -4.383  53.529  1.00  0.00     0.209 C 
ENDBRANCH  30  32
ENDBRANCH  25  27
ENDBRANCH  23  25
ENDBRANCH   1  23
TORSDOF 9
ENDMDL
