MODEL 1
REMARK VINA RESULT:      -6.7      0.000      0.000
REMARK  5 active torsions:
REMARK  status: ('A' for Active; 'I' for Inactive)
REMARK    1  A    between atoms: O1_2  and  C2_3 
REMARK    2  A    between atoms: C6_9  and  O2_10 
REMARK    3  A    between atoms: O2_10  and  C7_11 
REMARK    4  A    between atoms: C8_12  and  C9_13 
REMARK    5  A    between atoms: C13_18  and  O3_19 
ROOT
HETATM    1  C2  UNL     1      27.556   0.821  53.580  1.00  0.00     0.103 A 
HETATM    2  C3  UNL     1      27.000  -0.011  54.533  1.00  0.00     0.072 A 
HETATM    3  C4  UNL     1      25.648  -0.288  54.486  1.00  0.00     0.075 A 
HETATM    4  N1  UNL     1      25.059  -1.104  55.408  1.00  0.00    -0.241 NA
HETATM    5  C5  UNL     1      23.746  -1.376  55.366  1.00  0.00     0.236 A 
HETATM    6  N2  UNL     1      22.961  -0.857  54.418  1.00  0.00    -0.217 NA
HETATM    7  C6  UNL     1      23.448  -0.046  53.470  1.00  0.00     0.182 A 
HETATM    8  C11 UNL     1      24.802   0.230  53.519  1.00  0.00     0.049 A 
HETATM    9  C12 UNL     1      25.395   1.056  52.585  1.00  0.00     0.057 A 
HETATM   10  C13 UNL     1      26.741   1.368  52.582  1.00  0.00     0.102 A 
ENDROOT
BRANCH   7  11
HETATM   11  O2  UNL     1      22.732   0.551  52.436  1.00  0.00    -0.303 OA
BRANCH  11  12
HETATM   12  C7  UNL     1      21.562  -0.007  51.930  1.00  0.00     0.144 C 
HETATM   13  C8  UNL     1      20.484   0.759  51.974  1.00  0.00     0.027 C 
BRANCH  13  14
HETATM   14  C9  UNL     1      19.179   0.332  51.487  1.00  0.00     0.031 C 
HETATM   15  C10 UNL     1      18.336  -0.518  52.040  1.00  0.00     0.188 C 
HETATM   16  F1  UNL     1      17.142  -0.865  51.528  1.00  0.00    -0.219 F 
ENDBRANCH  13  14
ENDBRANCH  11  12
ENDBRANCH   7  11
BRANCH  10  17
HETATM   17  O3  UNL     1      27.316   2.207  51.626  1.00  0.00    -0.353 OA
HETATM   18  C14 UNL     1      26.427   2.940  50.799  1.00  0.00     0.210 C 
ENDBRANCH  10  17
BRANCH   1  19
HETATM   19  O1  UNL     1      28.908   1.147  53.561  1.00  0.00    -0.353 OA
HETATM   20  C1  UNL     1      29.865   0.109  53.612  1.00  0.00     0.210 C 
ENDBRANCH   1  19
TORSDOF 5
ENDMDL
MODEL 2
REMARK VINA RESULT:      -6.7      2.350      3.501
REMARK  5 active torsions:
REMARK  status: ('A' for Active; 'I' for Inactive)
REMARK    1  A    between atoms: O1_2  and  C2_3 
REMARK    2  A    between atoms: C6_9  and  O2_10 
REMARK    3  A    between atoms: O2_10  and  C7_11 
REMARK    4  A    between atoms: C8_12  and  C9_13 
REMARK    5  A    between atoms: C13_18  and  O3_19 
ROOT
HETATM    1  C2  UNL     1      27.383  -0.013  53.719  1.00  0.00     0.103 A 
HETATM    2  C3  UNL     1      27.693   0.826  52.666  1.00  0.00     0.072 A 
HETATM    3  C4  UNL     1      26.722   1.669  52.162  1.00  0.00     0.075 A 
HETATM    4  N1  UNL     1      26.986   2.513  51.124  1.00  0.00    -0.241 NA
HETATM    5  C5  UNL     1      26.045   3.335  50.631  1.00  0.00     0.236 A 
HETATM    6  N2  UNL     1      24.810   3.357  51.138  1.00  0.00    -0.217 NA
HETATM    7  C6  UNL     1      24.456   2.565  52.159  1.00  0.00     0.182 A 
HETATM    8  C11 UNL     1      25.430   1.721  52.662  1.00  0.00     0.049 A 
HETATM    9  C12 UNL     1      25.160   0.868  53.713  1.00  0.00     0.057 A 
HETATM   10  C13 UNL     1      26.091   0.004  54.258  1.00  0.00     0.102 A 
ENDROOT
BRANCH   7  11
HETATM   11  O2  UNL     1      23.207   2.501  52.770  1.00  0.00    -0.303 OA
BRANCH  11  12
HETATM   12  C7  UNL     1      22.058   2.155  52.066  1.00  0.00     0.144 C 
HETATM   13  C8  UNL     1      21.864   0.862  51.866  1.00  0.00     0.027 C 
BRANCH  13  14
HETATM   14  C9  UNL     1      20.713   0.327  51.150  1.00  0.00     0.031 C 
HETATM   15  C10 UNL     1      19.446   0.332  51.515  1.00  0.00     0.188 C 
HETATM   16  F1  UNL     1      18.434  -0.185  50.796  1.00  0.00    -0.219 F 
ENDBRANCH  13  14
ENDBRANCH  11  12
ENDBRANCH   7  11
BRANCH  10  17
HETATM   17  O3  UNL     1      25.792  -0.850  55.321  1.00  0.00    -0.353 OA
HETATM   18  C14 UNL     1      24.432  -1.218  55.484  1.00  0.00     0.210 C 
ENDBRANCH  10  17
BRANCH   1  19
HETATM   19  O1  UNL     1      28.305  -0.889  54.280  1.00  0.00    -0.353 OA
HETATM   20  C1  UNL     1      29.638  -0.876  53.813  1.00  0.00     0.210 C 
ENDBRANCH   1  19
TORSDOF 5
ENDMDL
MODEL 3
REMARK VINA RESULT:      -6.5      2.393      2.710
REMARK  5 active torsions:
REMARK  status: ('A' for Active; 'I' for Inactive)
REMARK    1  A    between atoms: O1_2  and  C2_3 
REMARK    2  A    between atoms: C6_9  and  O2_10 
REMARK    3  A    between atoms: O2_10  and  C7_11 
REMARK    4  A    between atoms: C8_12  and  C9_13 
REMARK    5  A    between atoms: C13_18  and  O3_19 
ROOT
HETATM    1  C2  UNL     1      27.500   0.698  53.516  1.00  0.00     0.103 A 
HETATM    2  C3  UNL     1      26.937  -0.096  54.496  1.00  0.00     0.072 A 
HETATM    3  C4  UNL     1      25.580  -0.349  54.468  1.00  0.00     0.075 A 
HETATM    4  N1  UNL     1      24.984  -1.127  55.417  1.00  0.00    -0.241 NA
HETATM    5  C5  UNL     1      23.666  -1.376  55.394  1.00  0.00     0.236 A 
HETATM    6  N2  UNL     1      22.882  -0.870  54.438  1.00  0.00    -0.217 NA
HETATM    7  C6  UNL     1      23.376  -0.094  53.463  1.00  0.00     0.182 A 
HETATM    8  C11 UNL     1      24.735   0.158  53.493  1.00  0.00     0.049 A 
HETATM    9  C12 UNL     1      25.335   0.946  52.532  1.00  0.00     0.057 A 
HETATM   10  C13 UNL     1      26.687   1.233  52.510  1.00  0.00     0.102 A 
ENDROOT
BRANCH   7  11
HETATM   11  O2  UNL     1      22.662   0.487  52.419  1.00  0.00    -0.303 OA
BRANCH  11  12
HETATM   12  C7  UNL     1      21.931   1.659  52.586  1.00  0.00     0.144 C 
HETATM   13  C8  UNL     1      22.289   2.681  51.826  1.00  0.00     0.027 C 
BRANCH  13  14
HETATM   14  C9  UNL     1      21.631   3.981  51.872  1.00  0.00     0.031 C 
HETATM   15  C10 UNL     1      22.114   5.156  51.521  1.00  0.00     0.188 C 
HETATM   16  F1  UNL     1      21.443   6.320  51.593  1.00  0.00    -0.219 F 
ENDBRANCH  13  14
ENDBRANCH  11  12
ENDBRANCH   7  11
BRANCH  10  17
HETATM   17  O3  UNL     1      27.269   2.033  51.526  1.00  0.00    -0.353 OA
HETATM   18  C14 UNL     1      26.408   2.916  50.825  1.00  0.00     0.210 C 
ENDBRANCH  10  17
BRANCH   1  19
HETATM   19  O1  UNL     1      28.857   0.998  53.476  1.00  0.00    -0.353 OA
HETATM   20  C1  UNL     1      29.796  -0.052  53.589  1.00  0.00     0.210 C 
ENDBRANCH   1  19
TORSDOF 5
ENDMDL
MODEL 4
REMARK VINA RESULT:      -6.4      4.089      6.901
REMARK  5 active torsions:
REMARK  status: ('A' for Active; 'I' for Inactive)
REMARK    1  A    between atoms: O1_2  and  C2_3 
REMARK    2  A    between atoms: C6_9  and  O2_10 
REMARK    3  A    between atoms: O2_10  and  C7_11 
REMARK    4  A    between atoms: C8_12  and  C9_13 
REMARK    5  A    between atoms: C13_18  and  O3_19 
ROOT
HETATM    1  C2  UNL     1      22.863   0.080  52.971  1.00  0.00     0.103 A 
HETATM    2  C3  UNL     1      24.130  -0.031  53.511  1.00  0.00     0.072 A 
HETATM    3  C4  UNL     1      25.166   0.701  52.966  1.00  0.00     0.075 A 
HETATM    4  N1  UNL     1      26.432   0.620  53.469  1.00  0.00    -0.241 NA
HETATM    5  C5  UNL     1      27.442   1.330  52.944  1.00  0.00     0.236 A 
HETATM    6  N2  UNL     1      27.249   2.145  51.904  1.00  0.00    -0.217 NA
HETATM    7  C6  UNL     1      26.041   2.291  51.342  1.00  0.00     0.182 A 
HETATM    8  C11 UNL     1      25.005   1.557  51.889  1.00  0.00     0.049 A 
HETATM    9  C12 UNL     1      23.725   1.641  51.377  1.00  0.00     0.057 A 
HETATM   10  C13 UNL     1      22.650   0.933  51.881  1.00  0.00     0.102 A 
ENDROOT
BRANCH   7  11
HETATM   11  O2  UNL     1      25.718   3.107  50.261  1.00  0.00    -0.303 OA
BRANCH  11  12
HETATM   12  C7  UNL     1      26.694   3.701  49.467  1.00  0.00     0.144 C 
HETATM   13  C8  UNL     1      26.532   4.989  49.211  1.00  0.00     0.027 C 
BRANCH  13  14
HETATM   14  C9  UNL     1      27.459   5.765  48.397  1.00  0.00     0.031 C 
HETATM   15  C10 UNL     1      28.746   5.559  48.201  1.00  0.00     0.188 C 
HETATM   16  F1  UNL     1      29.542   6.324  47.432  1.00  0.00    -0.219 F 
ENDBRANCH  13  14
ENDBRANCH  11  12
ENDBRANCH   7  11
BRANCH  10  17
HETATM   17  O3  UNL     1      21.366   1.035  51.345  1.00  0.00    -0.353 OA
HETATM   18  C14 UNL     1      21.238   1.725  50.113  1.00  0.00     0.210 C 
ENDBRANCH  10  17
BRANCH   1  19
HETATM   19  O1  UNL     1      21.770  -0.623  53.463  1.00  0.00    -0.353 OA
HETATM   20  C1  UNL     1      21.954  -1.505  54.552  1.00  0.00     0.210 C 
ENDBRANCH   1  19
TORSDOF 5
ENDMDL
MODEL 5
REMARK VINA RESULT:      -6.4      3.845      7.363
REMARK  5 active torsions:
REMARK  status: ('A' for Active; 'I' for Inactive)
REMARK    1  A    between atoms: O1_2  and  C2_3 
REMARK    2  A    between atoms: C6_9  and  O2_10 
REMARK    3  A    between atoms: O2_10  and  C7_11 
REMARK    4  A    between atoms: C8_12  and  C9_13 
REMARK    5  A    between atoms: C13_18  and  O3_19 
ROOT
HETATM    1  C2  UNL     1      21.290   0.521  51.726  1.00  0.00     0.103 A 
HETATM    2  C3  UNL     1      21.869   1.282  50.729  1.00  0.00     0.072 A 
HETATM    3  C4  UNL     1      23.107   1.854  50.945  1.00  0.00     0.075 A 
HETATM    4  N1  UNL     1      23.715   2.613  49.988  1.00  0.00    -0.241 NA
HETATM    5  C5  UNL     1      24.918   3.170  50.193  1.00  0.00     0.236 A 
HETATM    6  N2  UNL     1      25.571   3.004  51.346  1.00  0.00    -0.217 NA
HETATM    7  C6  UNL     1      25.055   2.276  52.346  1.00  0.00     0.182 A 
HETATM    8  C11 UNL     1      23.815   1.704  52.127  1.00  0.00     0.049 A 
HETATM    9  C12 UNL     1      23.203   0.937  53.098  1.00  0.00     0.057 A 
HETATM   10  C13 UNL     1      21.966   0.341  52.938  1.00  0.00     0.102 A 
ENDROOT
BRANCH   7  11
HETATM   11  O2  UNL     1      25.639   2.032  53.586  1.00  0.00    -0.303 OA
BRANCH  11  12
HETATM   12  C7  UNL     1      26.967   1.639  53.713  1.00  0.00     0.144 C 
HETATM   13  C8  UNL     1      27.180   0.502  54.354  1.00  0.00     0.027 C 
BRANCH  13  14
HETATM   14  C9  UNL     1      28.507  -0.056  54.576  1.00  0.00     0.031 C 
HETATM   15  C10 UNL     1      29.252  -0.753  53.741  1.00  0.00     0.188 C 
HETATM   16  F1  UNL     1      30.476  -1.239  54.019  1.00  0.00    -0.219 F 
ENDBRANCH  13  14
ENDBRANCH  11  12
ENDBRANCH   7  11
BRANCH  10  17
HETATM   17  O3  UNL     1      21.369  -0.430  53.936  1.00  0.00    -0.353 OA
HETATM   18  C14 UNL     1      22.236  -1.044  54.876  1.00  0.00     0.210 C 
ENDBRANCH  10  17
BRANCH   1  19
HETATM   19  O1  UNL     1      20.047  -0.086  51.584  1.00  0.00    -0.353 OA
HETATM   20  C1  UNL     1      18.883   0.713  51.626  1.00  0.00     0.210 C 
ENDBRANCH   1  19
TORSDOF 5
ENDMDL
MODEL 6
REMARK VINA RESULT:      -6.4      3.585      7.005
REMARK  5 active torsions:
REMARK  status: ('A' for Active; 'I' for Inactive)
REMARK    1  A    between atoms: O1_2  and  C2_3 
REMARK    2  A    between atoms: C6_9  and  O2_10 
REMARK    3  A    between atoms: O2_10  and  C7_11 
REMARK    4  A    between atoms: C8_12  and  C9_13 
REMARK    5  A    between atoms: C13_18  and  O3_19 
ROOT
HETATM    1  C2  UNL     1      20.098   0.884  51.473  1.00  0.00     0.103 A 
HETATM    2  C3  UNL     1      20.040   0.118  52.622  1.00  0.00     0.072 A 
HETATM    3  C4  UNL     1      21.211  -0.233  53.262  1.00  0.00     0.075 A 
HETATM    4  N1  UNL     1      21.199  -0.988  54.399  1.00  0.00    -0.241 NA
HETATM    5  C5  UNL     1      22.335  -1.331  55.025  1.00  0.00     0.236 A 
HETATM    6  N2  UNL     1      23.526  -0.947  54.559  1.00  0.00    -0.217 NA
HETATM    7  C6  UNL     1      23.640  -0.204  53.450  1.00  0.00     0.182 A 
HETATM    8  C11 UNL     1      22.465   0.146  52.810  1.00  0.00     0.049 A 
HETATM    9  C12 UNL     1      22.481   0.910  51.660  1.00  0.00     0.057 A 
HETATM   10  C13 UNL     1      21.342   1.291  50.977  1.00  0.00     0.102 A 
ENDROOT
BRANCH   7  11
HETATM   11  O2  UNL     1      24.820   0.255  52.872  1.00  0.00    -0.303 OA
BRANCH  11  12
HETATM   12  C7  UNL     1      26.070  -0.051  53.402  1.00  0.00     0.144 C 
HETATM   13  C8  UNL     1      26.825  -0.864  52.683  1.00  0.00     0.027 C 
BRANCH  13  14
HETATM   14  C9  UNL     1      28.159  -1.286  53.090  1.00  0.00     0.031 C 
HETATM   15  C10 UNL     1      29.156  -0.541  53.525  1.00  0.00     0.188 C 
HETATM   16  F1  UNL     1      30.367  -1.005  53.883  1.00  0.00    -0.219 F 
ENDBRANCH  13  14
ENDBRANCH  11  12
ENDBRANCH   7  11
BRANCH  10  17
HETATM   17  O3  UNL     1      21.385   2.064  49.816  1.00  0.00    -0.353 OA
HETATM   18  C14 UNL     1      21.661   1.384  48.603  1.00  0.00     0.210 C 
ENDBRANCH  10  17
BRANCH   1  19
HETATM   19  O1  UNL     1      18.963   1.277  50.772  1.00  0.00    -0.353 OA
HETATM   20  C1  UNL     1      17.963   0.320  50.491  1.00  0.00     0.210 C 
ENDBRANCH   1  19
TORSDOF 5
ENDMDL
MODEL 7
REMARK VINA RESULT:      -6.3      3.688      6.678
REMARK  5 active torsions:
REMARK  status: ('A' for Active; 'I' for Inactive)
REMARK    1  A    between atoms: O1_2  and  C2_3 
REMARK    2  A    between atoms: C6_9  and  O2_10 
REMARK    3  A    between atoms: O2_10  and  C7_11 
REMARK    4  A    between atoms: C8_12  and  C9_13 
REMARK    5  A    between atoms: C13_18  and  O3_19 
ROOT
HETATM    1  C2  UNL     1      21.711   1.384  50.240  1.00  0.00     0.103 A 
HETATM    2  C3  UNL     1      21.177   0.466  51.124  1.00  0.00     0.072 A 
HETATM    3  C4  UNL     1      21.920   0.064  52.215  1.00  0.00     0.075 A 
HETATM    4  N1  UNL     1      21.431  -0.841  53.112  1.00  0.00    -0.241 NA
HETATM    5  C5  UNL     1      22.150  -1.235  54.175  1.00  0.00     0.236 A 
HETATM    6  N2  UNL     1      23.377  -0.757  54.397  1.00  0.00    -0.217 NA
HETATM    7  C6  UNL     1      23.942   0.136  53.572  1.00  0.00     0.182 A 
HETATM    8  C11 UNL     1      23.196   0.537  52.480  1.00  0.00     0.049 A 
HETATM    9  C12 UNL     1      23.694   1.453  51.575  1.00  0.00     0.057 A 
HETATM   10  C13 UNL     1      22.996   1.892  50.465  1.00  0.00     0.102 A 
ENDROOT
BRANCH   7  11
HETATM   11  O2  UNL     1      25.206   0.703  53.701  1.00  0.00    -0.303 OA
BRANCH  11  12
HETATM   12  C7  UNL     1      26.340  -0.065  53.943  1.00  0.00     0.144 C 
HETATM   13  C8  UNL     1      27.442   0.600  54.248  1.00  0.00     0.027 C 
BRANCH  13  14
HETATM   14  C9  UNL     1      28.716  -0.047  54.532  1.00  0.00     0.031 C 
HETATM   15  C10 UNL     1      29.424  -0.838  53.749  1.00  0.00     0.188 C 
HETATM   16  F1  UNL     1      30.599  -1.403  54.083  1.00  0.00    -0.219 F 
ENDBRANCH  13  14
ENDBRANCH  11  12
ENDBRANCH   7  11
BRANCH  10  17
HETATM   17  O3  UNL     1      23.523   2.819  49.565  1.00  0.00    -0.353 OA
HETATM   18  C14 UNL     1      24.800   3.355  49.870  1.00  0.00     0.210 C 
ENDBRANCH  10  17
BRANCH   1  19
HETATM   19  O1  UNL     1      21.025   1.838  49.119  1.00  0.00    -0.353 OA
HETATM   20  C1  UNL     1      19.927   2.710  49.293  1.00  0.00     0.210 C 
ENDBRANCH   1  19
TORSDOF 5
ENDMDL
MODEL 8
REMARK VINA RESULT:      -6.3      4.370      6.681
REMARK  5 active torsions:
REMARK  status: ('A' for Active; 'I' for Inactive)
REMARK    1  A    between atoms: O1_2  and  C2_3 
REMARK    2  A    between atoms: C6_9  and  O2_10 
REMARK    3  A    between atoms: O2_10  and  C7_11 
REMARK    4  A    between atoms: C8_12  and  C9_13 
REMARK    5  A    between atoms: C13_18  and  O3_19 
ROOT
HETATM    1  C2  UNL     1      25.345  -0.229  53.621  1.00  0.00     0.103 A 
HETATM    2  C3  UNL     1      24.113   0.363  53.418  1.00  0.00     0.072 A 
HETATM    3  C4  UNL     1      23.981   1.337  52.448  1.00  0.00     0.075 A 
HETATM    4  N1  UNL     1      22.783   1.947  52.215  1.00  0.00    -0.241 NA
HETATM    5  C5  UNL     1      22.649   2.893  51.273  1.00  0.00     0.236 A 
HETATM    6  N2  UNL     1      23.687   3.278  50.525  1.00  0.00    -0.217 NA
HETATM    7  C6  UNL     1      24.902   2.737  50.681  1.00  0.00     0.182 A 
HETATM    8  C11 UNL     1      25.033   1.762  51.652  1.00  0.00     0.049 A 
HETATM    9  C12 UNL     1      26.246   1.147  51.886  1.00  0.00     0.057 A 
HETATM   10  C13 UNL     1      26.438   0.167  52.842  1.00  0.00     0.102 A 
ENDROOT
BRANCH   7  11
HETATM   11  O2  UNL     1      26.053   3.054  49.964  1.00  0.00    -0.303 OA
BRANCH  11  12
HETATM   12  C7  UNL     1      26.357   4.360  49.595  1.00  0.00     0.144 C 
HETATM   13  C8  UNL     1      27.437   4.518  48.848  1.00  0.00     0.027 C 
BRANCH  13  14
HETATM   14  C9  UNL     1      27.899   5.817  48.374  1.00  0.00     0.031 C 
HETATM   15  C10 UNL     1      29.110   6.161  47.982  1.00  0.00     0.188 C 
HETATM   16  F1  UNL     1      29.463   7.388  47.555  1.00  0.00    -0.219 F 
ENDBRANCH  13  14
ENDBRANCH  11  12
ENDBRANCH   7  11
BRANCH  10  17
HETATM   17  O3  UNL     1      27.676  -0.440  53.058  1.00  0.00    -0.353 OA
HETATM   18  C14 UNL     1      28.684   0.358  53.657  1.00  0.00     0.210 C 
ENDBRANCH  10  17
BRANCH   1  19
HETATM   19  O1  UNL     1      25.557  -1.216  54.578  1.00  0.00    -0.353 OA
HETATM   20  C1  UNL     1      25.149  -0.981  55.909  1.00  0.00     0.210 C 
ENDBRANCH   1  19
TORSDOF 5
ENDMDL
MODEL 9
REMARK VINA RESULT:      -6.2      7.360      9.736
REMARK  5 active torsions:
REMARK  status: ('A' for Active; 'I' for Inactive)
REMARK    1  A    between atoms: O1_2  and  C2_3 
REMARK    2  A    between atoms: C6_9  and  O2_10 
REMARK    3  A    between atoms: O2_10  and  C7_11 
REMARK    4  A    between atoms: C8_12  and  C9_13 
REMARK    5  A    between atoms: C13_18  and  O3_19 
ROOT
HETATM    1  C2  UNL     1      32.992   5.948  48.427  1.00  0.00     0.103 A 
HETATM    2  C3  UNL     1      32.657   7.204  48.894  1.00  0.00     0.072 A 
HETATM    3  C4  UNL     1      31.336   7.606  48.870  1.00  0.00     0.075 A 
HETATM    4  N1  UNL     1      30.961   8.838  49.321  1.00  0.00    -0.241 NA
HETATM    5  C5  UNL     1      29.679   9.233  49.300  1.00  0.00     0.236 A 
HETATM    6  N2  UNL     1      28.716   8.434  48.834  1.00  0.00    -0.217 NA
HETATM    7  C6  UNL     1      28.985   7.206  48.370  1.00  0.00     0.182 A 
HETATM    8  C11 UNL     1      30.309   6.806  48.395  1.00  0.00     0.049 A 
HETATM    9  C12 UNL     1      30.685   5.559  47.937  1.00  0.00     0.057 A 
HETATM   10  C13 UNL     1      31.989   5.103  47.937  1.00  0.00     0.102 A 
ENDROOT
BRANCH   7  11
HETATM   11  O2  UNL     1      28.071   6.287  47.863  1.00  0.00    -0.303 OA
BRANCH  11  12
HETATM   12  C7  UNL     1      27.091   5.704  48.660  1.00  0.00     0.144 C 
HETATM   13  C8  UNL     1      27.223   4.409  48.893  1.00  0.00     0.027 C 
BRANCH  13  14
HETATM   14  C9  UNL     1      26.288   3.643  49.706  1.00  0.00     0.031 C 
HETATM   15  C10 UNL     1      26.539   2.923  50.782  1.00  0.00     0.188 C 
HETATM   16  F1  UNL     1      25.618   2.238  51.484  1.00  0.00    -0.219 F 
ENDBRANCH  13  14
ENDBRANCH  11  12
ENDBRANCH   7  11
BRANCH  10  17
HETATM   17  O3  UNL     1      32.343   3.837  47.469  1.00  0.00    -0.353 OA
HETATM   18  C14 UNL     1      32.513   3.696  46.068  1.00  0.00     0.210 C 
ENDBRANCH  10  17
BRANCH   1  19
HETATM   19  O1  UNL     1      34.299   5.472  48.419  1.00  0.00    -0.353 OA
HETATM   20  C1  UNL     1      35.353   6.354  48.743  1.00  0.00     0.210 C 
ENDBRANCH   1  19
TORSDOF 5
ENDMDL
