MODEL 1
REMARK VINA RESULT:      -7.4      0.000      0.000
REMARK  4 active torsions:
REMARK  status: ('A' for Active; 'I' for Inactive)
REMARK    1  A    between atoms: O1_2  and  C2_3 
REMARK    2  A    between atoms: N1_6  and  C5_7 
REMARK    3  A    between atoms: N3_10  and  C7_11 
REMARK    4  A    between atoms: C14_18  and  O2_19 
ROOT
HETATM    1  C2  UNL     1      22.965   2.295  51.656  1.00  0.00     0.103 A 
HETATM    2  C3  UNL     1      22.338   1.488  52.499  1.00  0.00     0.073 A 
HETATM    3  C4  UNL     1      23.083   0.509  53.303  1.00  0.00     0.089 A 
HETATM    4  N1  UNL     1      22.586  -0.317  54.143  1.00  0.00    -0.240 NA
HETATM    5  C6  UNL     1      24.543   0.463  53.131  1.00  0.00     0.089 A 
HETATM    6  N3  UNL     1      25.250  -0.355  53.790  1.00  0.00    -0.247 NA
HETATM    7  C13 UNL     1      25.139   1.402  52.172  1.00  0.00     0.073 A 
HETATM    8  C14 UNL     1      24.403   2.253  51.487  1.00  0.00     0.103 A 
ENDROOT
BRANCH   6   9
HETATM    9  C7  UNL     1      26.633  -0.542  53.763  1.00  0.00     0.057 A 
HETATM   10  C8  UNL     1      27.390  -1.328  52.911  1.00  0.00     0.031 A 
HETATM   11  C9  UNL     1      28.760  -1.369  53.061  1.00  0.00     0.002 A 
HETATM   12  C10 UNL     1      29.419  -0.643  54.046  1.00  0.00     0.000 A 
HETATM   13  C11 UNL     1      28.678   0.141  54.899  1.00  0.00     0.002 A 
HETATM   14  C12 UNL     1      27.304   0.182  54.748  1.00  0.00     0.031 A 
ENDBRANCH   6   9
BRANCH   4  15
HETATM   15  C5  UNL     1      21.220  -0.452  54.467  1.00  0.00     0.224 C 
HETATM   16  N2  UNL     1      21.378  -1.617  55.030  1.00  0.00    -0.293 NA
HETATM   17  H6  UNL     1      20.571  -2.123  55.437  1.00  0.00     0.187 HD
ENDBRANCH   4  15
BRANCH   8  18
HETATM   18  O2  UNL     1      24.963   3.144  50.576  1.00  0.00    -0.353 OA
HETATM   19  C15 UNL     1      26.366   3.105  50.395  1.00  0.00     0.210 C 
ENDBRANCH   8  18
BRANCH   1  20
HETATM   20  O1  UNL     1      22.086   3.144  50.995  1.00  0.00    -0.353 OA
HETATM   21  C1  UNL     1      21.666   4.303  51.691  1.00  0.00     0.210 C 
ENDBRANCH   1  20
TORSDOF 4
ENDMDL
MODEL 2
REMARK VINA RESULT:      -6.9      2.592      3.861
REMARK  4 active torsions:
REMARK  status: ('A' for Active; 'I' for Inactive)
REMARK    1  A    between atoms: O1_2  and  C2_3 
REMARK    2  A    between atoms: N1_6  and  C5_7 
REMARK    3  A    between atoms: N3_10  and  C7_11 
REMARK    4  A    between atoms: C14_18  and  O2_19 
ROOT
HETATM    1  C2  UNL     1      21.998   1.210  52.833  1.00  0.00     0.103 A 
HETATM    2  C3  UNL     1      22.373   2.390  52.361  1.00  0.00     0.073 A 
HETATM    3  C4  UNL     1      23.795   2.742  52.247  1.00  0.00     0.089 A 
HETATM    4  N1  UNL     1      24.270   3.846  51.809  1.00  0.00    -0.240 NA
HETATM    5  C6  UNL     1      24.777   1.735  52.678  1.00  0.00     0.089 A 
HETATM    6  N3  UNL     1      26.020   1.968  52.609  1.00  0.00    -0.247 NA
HETATM    7  C13 UNL     1      24.257   0.459  53.185  1.00  0.00     0.073 A 
HETATM    8  C14 UNL     1      22.964   0.217  53.256  1.00  0.00     0.103 A 
ENDROOT
BRANCH   6   9
HETATM    9  C7  UNL     1      27.090   1.145  52.966  1.00  0.00     0.057 A 
HETATM   10  C8  UNL     1      27.287  -0.197  52.689  1.00  0.00     0.031 A 
HETATM   11  C9  UNL     1      28.428  -0.823  53.142  1.00  0.00     0.002 A 
HETATM   12  C10 UNL     1      29.401  -0.152  53.875  1.00  0.00     0.000 A 
HETATM   13  C11 UNL     1      29.216   1.180  54.156  1.00  0.00     0.002 A 
HETATM   14  C12 UNL     1      28.071   1.809  53.701  1.00  0.00     0.031 A 
ENDBRANCH   6   9
BRANCH   4  15
HETATM   15  C5  UNL     1      23.521   4.947  51.346  1.00  0.00     0.224 C 
HETATM   16  N2  UNL     1      23.928   5.736  52.301  1.00  0.00    -0.293 NA
HETATM   17  H6  UNL     1      23.601   6.718  52.353  1.00  0.00     0.187 HD
ENDBRANCH   4  15
BRANCH   8  18
HETATM   18  O2  UNL     1      22.465  -0.990  53.736  1.00  0.00    -0.353 OA
HETATM   19  C15 UNL     1      22.530  -1.220  55.132  1.00  0.00     0.210 C 
ENDBRANCH   8  18
BRANCH   1  20
HETATM   20  O1  UNL     1      20.616   1.074  52.859  1.00  0.00    -0.353 OA
HETATM   21  C1  UNL     1      20.004   0.520  51.709  1.00  0.00     0.210 C 
ENDBRANCH   1  20
TORSDOF 4
ENDMDL
MODEL 3
REMARK VINA RESULT:      -6.9      3.355      5.431
REMARK  4 active torsions:
REMARK  status: ('A' for Active; 'I' for Inactive)
REMARK    1  A    between atoms: O1_2  and  C2_3 
REMARK    2  A    between atoms: N1_6  and  C5_7 
REMARK    3  A    between atoms: N3_10  and  C7_11 
REMARK    4  A    between atoms: C14_18  and  O2_19 
ROOT
HETATM    1  C2  UNL     1      23.997   4.964  49.438  1.00  0.00     0.103 A 
HETATM    2  C3  UNL     1      25.246   5.129  49.027  1.00  0.00     0.073 A 
HETATM    3  C4  UNL     1      26.342   4.345  49.611  1.00  0.00     0.089 A 
HETATM    4  N1  UNL     1      27.580   4.419  49.295  1.00  0.00    -0.240 NA
HETATM    5  C6  UNL     1      25.996   3.377  50.664  1.00  0.00     0.089 A 
HETATM    6  N3  UNL     1      26.890   2.666  51.212  1.00  0.00    -0.247 NA
HETATM    7  C13 UNL     1      24.583   3.271  51.044  1.00  0.00     0.073 A 
HETATM    8  C14 UNL     1      23.654   4.011  50.474  1.00  0.00     0.103 A 
ENDROOT
BRANCH   6   9
HETATM    9  C7  UNL     1      26.756   1.705  52.216  1.00  0.00     0.057 A 
HETATM   10  C8  UNL     1      26.729   1.877  53.589  1.00  0.00     0.031 A 
HETATM   11  C9  UNL     1      26.585   0.778  54.409  1.00  0.00     0.002 A 
HETATM   12  C10 UNL     1      26.465  -0.512  53.905  1.00  0.00     0.000 A 
HETATM   13  C11 UNL     1      26.490  -0.694  52.542  1.00  0.00     0.002 A 
HETATM   14  C12 UNL     1      26.634   0.408  51.720  1.00  0.00     0.031 A 
ENDBRANCH   6   9
BRANCH   4  15
HETATM   15  C5  UNL     1      28.138   5.272  48.320  1.00  0.00     0.224 C 
HETATM   16  N2  UNL     1      29.239   5.464  48.991  1.00  0.00    -0.293 NA
HETATM   17  H6  UNL     1      29.989   6.072  48.617  1.00  0.00     0.187 HD
ENDBRANCH   4  15
BRANCH   8  18
HETATM   18  O2  UNL     1      22.313   3.915  50.831  1.00  0.00    -0.353 OA
HETATM   19  C15 UNL     1      22.005   3.321  52.079  1.00  0.00     0.210 C 
ENDBRANCH   8  18
BRANCH   1  20
HETATM   20  O1  UNL     1      23.111   5.796  48.764  1.00  0.00    -0.353 OA
HETATM   21  C1  UNL     1      22.651   5.354  47.500  1.00  0.00     0.210 C 
ENDBRANCH   1  20
TORSDOF 4
ENDMDL
MODEL 4
REMARK VINA RESULT:      -6.7      2.819      5.313
REMARK  4 active torsions:
REMARK  status: ('A' for Active; 'I' for Inactive)
REMARK    1  A    between atoms: O1_2  and  C2_3 
REMARK    2  A    between atoms: N1_6  and  C5_7 
REMARK    3  A    between atoms: N3_10  and  C7_11 
REMARK    4  A    between atoms: C14_18  and  O2_19 
ROOT
HETATM    1  C2  UNL     1      26.240   3.313  50.138  1.00  0.00     0.103 A 
HETATM    2  C3  UNL     1      25.133   3.500  49.434  1.00  0.00     0.073 A 
HETATM    3  C4  UNL     1      23.862   2.890  49.847  1.00  0.00     0.089 A 
HETATM    4  N1  UNL     1      22.737   3.001  49.248  1.00  0.00    -0.240 NA
HETATM    5  C6  UNL     1      23.872   2.068  51.067  1.00  0.00     0.089 A 
HETATM    6  N3  UNL     1      22.813   1.510  51.484  1.00  0.00    -0.247 NA
HETATM    7  C13 UNL     1      25.150   1.925  51.774  1.00  0.00     0.073 A 
HETATM    8  C14 UNL     1      26.250   2.504  51.340  1.00  0.00     0.103 A 
ENDROOT
BRANCH   6   9
HETATM    9  C7  UNL     1      22.629   0.703  52.608  1.00  0.00     0.057 A 
HETATM   10  C8  UNL     1      23.481  -0.243  53.150  1.00  0.00     0.031 A 
HETATM   11  C9  UNL     1      23.097  -0.936  54.278  1.00  0.00     0.002 A 
HETATM   12  C10 UNL     1      21.873  -0.719  54.901  1.00  0.00     0.000 A 
HETATM   13  C11 UNL     1      21.019   0.219  54.371  1.00  0.00     0.002 A 
HETATM   14  C12 UNL     1      21.404   0.914  53.240  1.00  0.00     0.031 A 
ENDBRANCH   6   9
BRANCH   4  15
HETATM   15  C5  UNL     1      22.494   3.734  48.068  1.00  0.00     0.224 C 
HETATM   16  N2  UNL     1      22.247   2.671  47.355  1.00  0.00    -0.293 NA
HETATM   17  H6  UNL     1      22.004   2.751  46.351  1.00  0.00     0.187 HD
ENDBRANCH   4  15
BRANCH   8  18
HETATM   18  O2  UNL     1      27.466   2.372  52.005  1.00  0.00    -0.353 OA
HETATM   19  C15 UNL     1      27.431   1.975  53.364  1.00  0.00     0.210 C 
ENDBRANCH   8  18
BRANCH   1  20
HETATM   20  O1  UNL     1      27.329   3.972  49.583  1.00  0.00    -0.353 OA
HETATM   21  C1  UNL     1      27.052   5.090  48.759  1.00  0.00     0.210 C 
ENDBRANCH   1  20
TORSDOF 4
ENDMDL
MODEL 5
REMARK VINA RESULT:      -6.6      2.754      5.306
REMARK  4 active torsions:
REMARK  status: ('A' for Active; 'I' for Inactive)
REMARK    1  A    between atoms: O1_2  and  C2_3 
REMARK    2  A    between atoms: N1_6  and  C5_7 
REMARK    3  A    between atoms: N3_10  and  C7_11 
REMARK    4  A    between atoms: C14_18  and  O2_19 
ROOT
HETATM    1  C2  UNL     1      25.698   0.443  54.016  1.00  0.00     0.103 A 
HETATM    2  C3  UNL     1      24.504   0.229  53.485  1.00  0.00     0.073 A 
HETATM    3  C4  UNL     1      24.019   1.042  52.361  1.00  0.00     0.089 A 
HETATM    4  N1  UNL     1      22.889   0.925  51.772  1.00  0.00    -0.240 NA
HETATM    5  C6  UNL     1      24.912   2.096  51.855  1.00  0.00     0.089 A 
HETATM    6  N3  UNL     1      24.560   2.837  50.889  1.00  0.00    -0.247 NA
HETATM    7  C13 UNL     1      26.215   2.250  52.514  1.00  0.00     0.073 A 
HETATM    8  C14 UNL     1      26.578   1.481  53.518  1.00  0.00     0.103 A 
ENDROOT
BRANCH   6   9
HETATM    9  C7  UNL     1      25.263   3.877  50.278  1.00  0.00     0.057 A 
HETATM   10  C8  UNL     1      24.998   5.235  50.294  1.00  0.00     0.031 A 
HETATM   11  C9  UNL     1      25.831   6.098  49.615  1.00  0.00     0.002 A 
HETATM   12  C10 UNL     1      26.942   5.653  48.908  1.00  0.00     0.000 A 
HETATM   13  C11 UNL     1      27.216   4.306  48.886  1.00  0.00     0.002 A 
HETATM   14  C12 UNL     1      26.380   3.440  49.566  1.00  0.00     0.031 A 
ENDBRANCH   6   9
BRANCH   4  15
HETATM   15  C5  UNL     1      21.882  -0.010  52.087  1.00  0.00     0.224 C 
HETATM   16  N2  UNL     1      21.031   0.903  52.465  1.00  0.00    -0.293 NA
HETATM   17  H6  UNL     1      20.086   0.641  52.800  1.00  0.00     0.187 HD
ENDBRANCH   4  15
BRANCH   8  18
HETATM   18  O2  UNL     1      27.812   1.622  54.146  1.00  0.00    -0.353 OA
HETATM   19  C15 UNL     1      28.911   0.911  53.606  1.00  0.00     0.210 C 
ENDBRANCH   8  18
BRANCH   1  20
HETATM   20  O1  UNL     1      25.968  -0.428  55.064  1.00  0.00    -0.353 OA
HETATM   21  C1  UNL     1      24.862  -1.087  55.652  1.00  0.00     0.210 C 
ENDBRANCH   1  20
TORSDOF 4
ENDMDL
MODEL 6
REMARK VINA RESULT:      -6.6      2.335      5.251
REMARK  4 active torsions:
REMARK  status: ('A' for Active; 'I' for Inactive)
REMARK    1  A    between atoms: O1_2  and  C2_3 
REMARK    2  A    between atoms: N1_6  and  C5_7 
REMARK    3  A    between atoms: N3_10  and  C7_11 
REMARK    4  A    between atoms: C14_18  and  O2_19 
ROOT
HETATM    1  C2  UNL     1      25.286   3.337  49.997  1.00  0.00     0.103 A 
HETATM    2  C3  UNL     1      26.216   2.996  50.878  1.00  0.00     0.073 A 
HETATM    3  C4  UNL     1      25.896   2.125  52.016  1.00  0.00     0.089 A 
HETATM    4  N1  UNL     1      26.709   1.733  52.923  1.00  0.00    -0.240 NA
HETATM    5  C6  UNL     1      24.508   1.652  52.137  1.00  0.00     0.089 A 
HETATM    6  N3  UNL     1      24.159   0.898  53.093  1.00  0.00    -0.247 NA
HETATM    7  C13 UNL     1      23.556   2.088  51.108  1.00  0.00     0.073 A 
HETATM    8  C14 UNL     1      23.919   2.871  50.115  1.00  0.00     0.103 A 
ENDROOT
BRANCH   6   9
HETATM    9  C7  UNL     1      22.903   0.355  53.370  1.00  0.00     0.057 A 
HETATM   10  C8  UNL     1      21.654   0.937  53.243  1.00  0.00     0.031 A 
HETATM   11  C9  UNL     1      20.530   0.213  53.576  1.00  0.00     0.002 A 
HETATM   12  C10 UNL     1      20.601  -1.095  54.041  1.00  0.00     0.000 A 
HETATM   13  C11 UNL     1      21.837  -1.684  54.171  1.00  0.00     0.002 A 
HETATM   14  C12 UNL     1      22.965  -0.958  53.837  1.00  0.00     0.031 A 
ENDBRANCH   6   9
BRANCH   4  15
HETATM   15  C5  UNL     1      28.077   2.060  53.009  1.00  0.00     0.224 C 
HETATM   16  N2  UNL     1      27.940   2.715  54.128  1.00  0.00    -0.293 NA
HETATM   17  H6  UNL     1      28.757   3.158  54.587  1.00  0.00     0.187 HD
ENDBRANCH   4  15
BRANCH   8  18
HETATM   18  O2  UNL     1      23.021   3.288  49.137  1.00  0.00    -0.353 OA
HETATM   19  C15 UNL     1      22.087   2.339  48.655  1.00  0.00     0.210 C 
ENDBRANCH   8  18
BRANCH   1  20
HETATM   20  O1  UNL     1      25.789   4.162  48.999  1.00  0.00    -0.353 OA
HETATM   21  C1  UNL     1      27.172   4.459  49.049  1.00  0.00     0.210 C 
ENDBRANCH   1  20
TORSDOF 4
ENDMDL
MODEL 7
REMARK VINA RESULT:      -6.6      2.931      6.563
REMARK  4 active torsions:
REMARK  status: ('A' for Active; 'I' for Inactive)
REMARK    1  A    between atoms: O1_2  and  C2_3 
REMARK    2  A    between atoms: N1_6  and  C5_7 
REMARK    3  A    between atoms: N3_10  and  C7_11 
REMARK    4  A    between atoms: C14_18  and  O2_19 
ROOT
HETATM    1  C2  UNL     1      26.973   0.620  53.407  1.00  0.00     0.103 A 
HETATM    2  C3  UNL     1      26.962   1.462  52.383  1.00  0.00     0.073 A 
HETATM    3  C4  UNL     1      25.705   1.821  51.714  1.00  0.00     0.089 A 
HETATM    4  N1  UNL     1      25.575   2.618  50.722  1.00  0.00    -0.240 NA
HETATM    5  C6  UNL     1      24.468   1.211  52.225  1.00  0.00     0.089 A 
HETATM    6  N3  UNL     1      23.346   1.474  51.697  1.00  0.00    -0.247 NA
HETATM    7  C13 UNL     1      24.589   0.293  53.364  1.00  0.00     0.073 A 
HETATM    8  C14 UNL     1      25.755   0.019  53.912  1.00  0.00     0.103 A 
ENDROOT
BRANCH   6   9
HETATM    9  C7  UNL     1      22.080   0.998  52.041  1.00  0.00     0.057 A 
HETATM   10  C8  UNL     1      21.568   0.708  53.294  1.00  0.00     0.031 A 
HETATM   11  C9  UNL     1      20.276   0.243  53.409  1.00  0.00     0.002 A 
HETATM   12  C10 UNL     1      19.456   0.051  52.303  1.00  0.00     0.000 A 
HETATM   13  C11 UNL     1      19.953   0.336  51.053  1.00  0.00     0.002 A 
HETATM   14  C12 UNL     1      21.249   0.803  50.938  1.00  0.00     0.031 A 
ENDBRANCH   6   9
BRANCH   4  15
HETATM   15  C5  UNL     1      26.617   3.311  50.072  1.00  0.00     0.224 C 
HETATM   16  N2  UNL     1      26.140   4.487  50.372  1.00  0.00    -0.293 NA
HETATM   17  H6  UNL     1      26.627   5.350  50.070  1.00  0.00     0.187 HD
ENDBRANCH   4  15
BRANCH   8  18
HETATM   18  O2  UNL     1      25.876  -0.851  54.992  1.00  0.00    -0.353 OA
HETATM   19  C15 UNL     1      24.694  -1.209  55.684  1.00  0.00     0.210 C 
ENDBRANCH   8  18
BRANCH   1  20
HETATM   20  O1  UNL     1      28.255   0.412  53.898  1.00  0.00    -0.353 OA
HETATM   21  C1  UNL     1      28.945  -0.731  53.426  1.00  0.00     0.210 C 
ENDBRANCH   1  20
TORSDOF 4
ENDMDL
MODEL 8
REMARK VINA RESULT:      -6.5      2.516      5.273
REMARK  4 active torsions:
REMARK  status: ('A' for Active; 'I' for Inactive)
REMARK    1  A    between atoms: O1_2  and  C2_3 
REMARK    2  A    between atoms: N1_6  and  C5_7 
REMARK    3  A    between atoms: N3_10  and  C7_11 
REMARK    4  A    between atoms: C14_18  and  O2_19 
ROOT
HETATM    1  C2  UNL     1      22.858  -0.463  52.991  1.00  0.00     0.103 A 
HETATM    2  C3  UNL     1      23.956  -0.392  53.729  1.00  0.00     0.073 A 
HETATM    3  C4  UNL     1      24.975   0.633  53.470  1.00  0.00     0.089 A 
HETATM    4  N1  UNL     1      26.069   0.795  54.114  1.00  0.00    -0.240 NA
HETATM    5  C6  UNL     1      24.726   1.571  52.364  1.00  0.00     0.089 A 
HETATM    6  N3  UNL     1      25.561   2.481  52.083  1.00  0.00    -0.247 NA
HETATM    7  C13 UNL     1      23.478   1.407  51.610  1.00  0.00     0.073 A 
HETATM    8  C14 UNL     1      22.610   0.461  51.902  1.00  0.00     0.103 A 
ENDROOT
BRANCH   6   9
HETATM    9  C7  UNL     1      25.499   3.452  51.082  1.00  0.00     0.057 A 
HETATM   10  C8  UNL     1      24.535   4.423  50.869  1.00  0.00     0.031 A 
HETATM   11  C9  UNL     1      24.669   5.292  49.807  1.00  0.00     0.002 A 
HETATM   12  C10 UNL     1      25.747   5.231  48.931  1.00  0.00     0.000 A 
HETATM   13  C11 UNL     1      26.711   4.271  49.134  1.00  0.00     0.002 A 
HETATM   14  C12 UNL     1      26.576   3.400  50.199  1.00  0.00     0.031 A 
ENDBRANCH   6   9
BRANCH   4  15
HETATM   15  C5  UNL     1      26.514   0.018  55.203  1.00  0.00     0.224 C 
HETATM   16  N2  UNL     1      27.581  -0.400  54.582  1.00  0.00    -0.293 NA
HETATM   17  H6  UNL     1      28.248  -1.042  55.048  1.00  0.00     0.187 HD
ENDBRANCH   4  15
BRANCH   8  18
HETATM   18  O2  UNL     1      21.425   0.300  51.190  1.00  0.00    -0.353 OA
HETATM   19  C15 UNL     1      20.320   1.101  51.565  1.00  0.00     0.210 C 
ENDBRANCH   8  18
BRANCH   1  20
HETATM   20  O1  UNL     1      22.023  -1.497  53.395  1.00  0.00    -0.353 OA
HETATM   21  C1  UNL     1      21.173  -1.243  54.499  1.00  0.00     0.210 C 
ENDBRANCH   1  20
TORSDOF 4
ENDMDL
MODEL 9
REMARK VINA RESULT:      -6.5      2.178      5.583
REMARK  4 active torsions:
REMARK  status: ('A' for Active; 'I' for Inactive)
REMARK    1  A    between atoms: O1_2  and  C2_3 
REMARK    2  A    between atoms: N1_6  and  C5_7 
REMARK    3  A    between atoms: N3_10  and  C7_11 
REMARK    4  A    between atoms: C14_18  and  O2_19 
ROOT
HETATM    1  C2  UNL     1      25.930  -0.277  53.291  1.00  0.00     0.103 A 
HETATM    2  C3  UNL     1      24.743  -0.762  53.625  1.00  0.00     0.073 A 
HETATM    3  C4  UNL     1      23.513  -0.014  53.336  1.00  0.00     0.089 A 
HETATM    4  N1  UNL     1      22.319  -0.383  53.611  1.00  0.00    -0.240 NA
HETATM    5  C6  UNL     1      23.654   1.289  52.668  1.00  0.00     0.089 A 
HETATM    6  N3  UNL     1      22.636   1.989  52.388  1.00  0.00    -0.247 NA
HETATM    7  C13 UNL     1      25.014   1.735  52.341  1.00  0.00     0.073 A 
HETATM    8  C14 UNL     1      26.071   1.006  52.632  1.00  0.00     0.103 A 
ENDROOT
BRANCH   6   9
HETATM    9  C7  UNL     1      22.572   3.235  51.762  1.00  0.00     0.057 A 
HETATM   10  C8  UNL     1      22.625   4.498  52.327  1.00  0.00     0.031 A 
HETATM   11  C9  UNL     1      22.544   5.609  51.515  1.00  0.00     0.002 A 
HETATM   12  C10 UNL     1      22.409   5.511  50.135  1.00  0.00     0.000 A 
HETATM   13  C11 UNL     1      22.356   4.262  49.563  1.00  0.00     0.002 A 
HETATM   14  C12 UNL     1      22.438   3.147  50.377  1.00  0.00     0.031 A 
ENDBRANCH   6   9
BRANCH   4  15
HETATM   15  C5  UNL     1      21.947  -1.585  54.248  1.00  0.00     0.224 C 
HETATM   16  N2  UNL     1      20.978  -1.031  54.921  1.00  0.00    -0.293 NA
HETATM   17  H6  UNL     1      20.393  -1.592  55.567  1.00  0.00     0.187 HD
ENDBRANCH   4  15
BRANCH   8  18
HETATM   18  O2  UNL     1      27.362   1.424  52.325  1.00  0.00    -0.353 OA
HETATM   19  C15 UNL     1      28.047   2.204  53.288  1.00  0.00     0.210 C 
ENDBRANCH   8  18
BRANCH   1  20
HETATM   20  O1  UNL     1      26.964  -1.133  53.649  1.00  0.00    -0.353 OA
HETATM   21  C1  UNL     1      27.317  -2.138  52.716  1.00  0.00     0.210 C 
ENDBRANCH   1  20
TORSDOF 4
ENDMDL
