MODEL 1
REMARK VINA RESULT:      -8.6      0.000      0.000
REMARK  6 active torsions:
REMARK  status: ('A' for Active; 'I' for Inactive)
REMARK    1  A    between atoms: O1_1  and  C1_2 
REMARK    2  A    between atoms: C2_3  and  N1_4 
REMARK    3  A    between atoms: N1_4  and  C3_5 
REMARK    4  A    between atoms: C6_8  and  C7_9 
REMARK    5  A    between atoms: C7_9  and  O2_10 
REMARK    6  A    between atoms: C7_9  and  C8_11 
ROOT
HETATM    1  C3  UNL     1      24.333   2.551  51.699  1.00  0.00     0.128 A 
HETATM    2  C4  UNL     1      25.139   2.919  50.494  1.00  0.00     0.003 A 
HETATM    3  C5  UNL     1      26.421   2.823  50.795  1.00  0.00     0.008 A 
HETATM    4  C6  UNL     1      26.656   2.404  52.164  1.00  0.00    -0.027 A 
HETATM    5  C14 UNL     1      25.421   2.252  52.665  1.00  0.00     0.012 A 
ENDROOT
BRANCH   1   6
HETATM    6  N1  UNL     1      23.586   1.370  51.326  1.00  0.00    -0.379 N 
HETATM    7  H2  UNL     1      23.783   0.604  50.622  1.00  0.00     0.160 HD
BRANCH   6   8
HETATM    8  C2  UNL     1      22.391   1.284  52.071  1.00  0.00     0.066 C 
HETATM    9  C1  UNL     1      21.884   0.275  52.764  1.00  0.00     0.104 C 
HETATM   10  C20 UNL     1      20.593   0.625  53.397  1.00  0.00     0.304 C 
HETATM   11  N2  UNL     1      20.227   1.843  52.794  1.00  0.00     0.108 N 
HETATM   12  C19 UNL     1      19.621  -0.457  53.419  1.00  0.00     0.011 C 
HETATM   13  C15 UNL     1      21.428   2.409  52.210  1.00  0.00     0.332 C 
HETATM   14  C16 UNL     1      19.169   1.855  51.857  1.00  0.00     0.278 C 
HETATM   15  C17 UNL     1      18.539   0.558  51.508  1.00  0.00     0.057 C 
HETATM   16  C18 UNL     1      18.654  -0.497  52.538  1.00  0.00    -0.026 C 
BRANCH   9  17
HETATM   17  O1  UNL     1      22.390  -0.995  52.954  1.00  0.00    -0.360 OA
HETATM   18  H1  UNL     1      23.324  -1.162  53.283  1.00  0.00     0.217 HD
ENDBRANCH   9  17
ENDBRANCH   6   8
ENDBRANCH   1   6
BRANCH   4  19
HETATM   19  C7  UNL     1      27.860   2.158  52.955  1.00  0.00     0.184 C 
BRANCH  19  20
HETATM   20  O2  UNL     1      27.825   2.759  54.206  1.00  0.00    -0.386 OA
HETATM   21  H7  UNL     1      27.339   3.606  54.126  1.00  0.00     0.210 HD
ENDBRANCH  19  20
BRANCH  19  22
HETATM   22  C8  UNL     1      28.120   0.700  53.021  1.00  0.00    -0.025 A 
HETATM   23  C9  UNL     1      27.372  -0.402  52.665  1.00  0.00     0.010 A 
HETATM   24  C10 UNL     1      27.887  -1.663  52.844  1.00  0.00     0.001 A 
HETATM   25  C11 UNL     1      29.134  -1.895  53.370  1.00  0.00     0.000 A 
HETATM   26  C12 UNL     1      29.895  -0.806  53.731  1.00  0.00     0.001 A 
HETATM   27  C13 UNL     1      29.393   0.490  53.559  1.00  0.00     0.010 A 
ENDBRANCH  19  22
ENDBRANCH   4  19
TORSDOF 6
ENDMDL
MODEL 2
REMARK VINA RESULT:      -8.5      3.561      7.058
REMARK  6 active torsions:
REMARK  status: ('A' for Active; 'I' for Inactive)
REMARK    1  A    between atoms: O1_1  and  C1_2 
REMARK    2  A    between atoms: C2_3  and  N1_4 
REMARK    3  A    between atoms: N1_4  and  C3_5 
REMARK    4  A    between atoms: C6_8  and  C7_9 
REMARK    5  A    between atoms: C7_9  and  O2_10 
REMARK    6  A    between atoms: C7_9  and  C8_11 
ROOT
HETATM    1  C3  UNL     1      25.063   2.913  51.213  1.00  0.00     0.128 A 
HETATM    2  C4  UNL     1      26.441   2.758  50.653  1.00  0.00     0.003 A 
HETATM    3  C5  UNL     1      26.634   3.689  49.737  1.00  0.00     0.008 A 
HETATM    4  C6  UNL     1      25.485   4.556  49.553  1.00  0.00    -0.027 A 
HETATM    5  C14 UNL     1      24.586   4.080  50.428  1.00  0.00     0.012 A 
ENDROOT
BRANCH   1   6
HETATM    6  N1  UNL     1      25.242   3.226  52.614  1.00  0.00    -0.379 N 
HETATM    7  H2  UNL     1      25.074   4.114  53.165  1.00  0.00     0.160 HD
BRANCH   6   8
HETATM    8  C2  UNL     1      25.731   2.103  53.314  1.00  0.00     0.066 C 
HETATM    9  C1  UNL     1      26.872   1.927  53.964  1.00  0.00     0.104 C 
HETATM   10  C20 UNL     1      26.975   0.576  54.559  1.00  0.00     0.304 C 
HETATM   11  N2  UNL     1      25.918  -0.145  53.973  1.00  0.00     0.108 N 
HETATM   12  C19 UNL     1      28.311   0.002  54.520  1.00  0.00     0.011 C 
HETATM   13  C15 UNL     1      24.978   0.826  53.445  1.00  0.00     0.332 C 
HETATM   14  C16 UNL     1      26.213  -1.126  52.999  1.00  0.00     0.278 C 
HETATM   15  C17 UNL     1      27.631  -1.297  52.596  1.00  0.00     0.057 C 
HETATM   16  C18 UNL     1      28.628  -0.877  53.605  1.00  0.00    -0.026 C 
BRANCH   9  17
HETATM   17  O1  UNL     1      27.920   2.809  54.142  1.00  0.00    -0.360 OA
HETATM   18  H1  UNL     1      28.549   3.059  53.399  1.00  0.00     0.217 HD
ENDBRANCH   9  17
ENDBRANCH   6   8
ENDBRANCH   1   6
BRANCH   4  19
HETATM   19  C7  UNL     1      25.209   5.701  48.688  1.00  0.00     0.184 C 
BRANCH  19  20
HETATM   20  O2  UNL     1      23.962   6.269  48.914  1.00  0.00    -0.386 OA
HETATM   21  H7  UNL     1      23.310   5.819  48.336  1.00  0.00     0.210 HD
ENDBRANCH  19  20
BRANCH  19  22
HETATM   22  C8  UNL     1      26.317   6.680  48.791  1.00  0.00    -0.025 A 
HETATM   23  C9  UNL     1      27.504   6.826  48.105  1.00  0.00     0.010 A 
HETATM   24  C10 UNL     1      28.354   7.856  48.426  1.00  0.00     0.001 A 
HETATM   25  C11 UNL     1      28.084   8.771  49.414  1.00  0.00     0.000 A 
HETATM   26  C12 UNL     1      26.903   8.640  50.109  1.00  0.00     0.001 A 
HETATM   27  C13 UNL     1      26.018   7.598  49.801  1.00  0.00     0.010 A 
ENDBRANCH  19  22
ENDBRANCH   4  19
TORSDOF 6
ENDMDL
MODEL 3
REMARK VINA RESULT:      -8.1      5.921     10.387
REMARK  6 active torsions:
REMARK  status: ('A' for Active; 'I' for Inactive)
REMARK    1  A    between atoms: O1_1  and  C1_2 
REMARK    2  A    between atoms: C2_3  and  N1_4 
REMARK    3  A    between atoms: N1_4  and  C3_5 
REMARK    4  A    between atoms: C6_8  and  C7_9 
REMARK    5  A    between atoms: C7_9  and  O2_10 
REMARK    6  A    between atoms: C7_9  and  C8_11 
ROOT
HETATM    1  C3  UNL     1      28.154   6.261  48.152  1.00  0.00     0.128 A 
HETATM    2  C4  UNL     1      26.884   6.900  48.614  1.00  0.00     0.003 A 
HETATM    3  C5  UNL     1      26.164   5.999  49.256  1.00  0.00     0.008 A 
HETATM    4  C6  UNL     1      26.801   4.697  49.317  1.00  0.00    -0.027 A 
HETATM    5  C14 UNL     1      27.960   4.881  48.667  1.00  0.00     0.012 A 
ENDROOT
BRANCH   1   6
HETATM    6  N1  UNL     1      29.218   6.961  48.838  1.00  0.00    -0.379 N 
HETATM    7  H2  UNL     1      29.202   7.698  49.597  1.00  0.00     0.160 HD
BRANCH   6   8
HETATM    8  C2  UNL     1      30.477   6.537  48.362  1.00  0.00     0.066 C 
HETATM    9  C1  UNL     1      31.466   5.917  48.989  1.00  0.00     0.104 C 
HETATM   10  C20 UNL     1      32.619   5.659  48.098  1.00  0.00     0.304 C 
HETATM   11  N2  UNL     1      32.352   6.428  46.950  1.00  0.00     0.108 N 
HETATM   12  C19 UNL     1      33.917   5.798  48.738  1.00  0.00     0.011 C 
HETATM   13  C15 UNL     1      30.933   6.734  46.960  1.00  0.00     0.332 C 
HETATM   14  C16 UNL     1      33.107   7.600  46.718  1.00  0.00     0.278 C 
HETATM   15  C17 UNL     1      34.107   7.994  47.741  1.00  0.00     0.057 C 
HETATM   16  C18 UNL     1      34.623   6.887  48.577  1.00  0.00    -0.026 C 
BRANCH   9  17
HETATM   17  O1  UNL     1      31.543   5.506  50.305  1.00  0.00    -0.360 OA
HETATM   18  H1  UNL     1      31.351   4.561  50.589  1.00  0.00     0.217 HD
ENDBRANCH   9  17
ENDBRANCH   6   8
ENDBRANCH   1   6
BRANCH   4  19
HETATM   19  C7  UNL     1      26.422   3.411  49.899  1.00  0.00     0.184 C 
BRANCH  19  20
HETATM   20  O2  UNL     1      27.072   3.140  51.096  1.00  0.00    -0.386 OA
HETATM   21  H7  UNL     1      26.652   3.676  51.801  1.00  0.00     0.210 HD
ENDBRANCH  19  20
BRANCH  19  22
HETATM   22  C8  UNL     1      24.946   3.333  50.012  1.00  0.00    -0.025 A 
HETATM   23  C9  UNL     1      23.941   3.216  49.077  1.00  0.00     0.010 A 
HETATM   24  C10 UNL     1      22.630   3.164  49.488  1.00  0.00     0.001 A 
HETATM   25  C11 UNL     1      22.256   3.222  50.808  1.00  0.00     0.000 A 
HETATM   26  C12 UNL     1      23.248   3.338  51.755  1.00  0.00     0.001 A 
HETATM   27  C13 UNL     1      24.592   3.394  51.363  1.00  0.00     0.010 A 
ENDBRANCH  19  22
ENDBRANCH   4  19
TORSDOF 6
ENDMDL
MODEL 4
REMARK VINA RESULT:      -8.0      2.894      4.447
REMARK  6 active torsions:
REMARK  status: ('A' for Active; 'I' for Inactive)
REMARK    1  A    between atoms: O1_1  and  C1_2 
REMARK    2  A    between atoms: C2_3  and  N1_4 
REMARK    3  A    between atoms: N1_4  and  C3_5 
REMARK    4  A    between atoms: C6_8  and  C7_9 
REMARK    5  A    between atoms: C7_9  and  O2_10 
REMARK    6  A    between atoms: C7_9  and  C8_11 
ROOT
HETATM    1  C3  UNL     1      23.387   1.596  51.731  1.00  0.00     0.128 A 
HETATM    2  C4  UNL     1      23.082   0.559  52.765  1.00  0.00     0.003 A 
HETATM    3  C5  UNL     1      24.189   0.284  53.430  1.00  0.00     0.008 A 
HETATM    4  C6  UNL     1      25.335   1.046  52.970  1.00  0.00    -0.027 A 
HETATM    5  C14 UNL     1      24.836   1.802  51.980  1.00  0.00     0.012 A 
ENDROOT
BRANCH   1   6
HETATM    6  N1  UNL     1      22.595   2.752  52.088  1.00  0.00    -0.379 N 
HETATM    7  H2  UNL     1      21.832   2.889  52.808  1.00  0.00     0.160 HD
BRANCH   6   8
HETATM    8  C2  UNL     1      22.957   3.863  51.297  1.00  0.00     0.066 C 
HETATM    9  C1  UNL     1      23.484   5.028  51.646  1.00  0.00     0.104 C 
HETATM   10  C20 UNL     1      23.704   5.913  50.480  1.00  0.00     0.304 C 
HETATM   11  N2  UNL     1      23.004   5.289  49.431  1.00  0.00     0.108 N 
HETATM   12  C19 UNL     1      23.454   7.322  50.739  1.00  0.00     0.011 C 
HETATM   13  C15 UNL     1      22.790   3.908  49.820  1.00  0.00     0.332 C 
HETATM   14  C16 UNL     1      21.797   5.865  48.973  1.00  0.00     0.278 C 
HETATM   15  C17 UNL     1      21.296   7.072  49.676  1.00  0.00     0.057 C 
HETATM   16  C18 UNL     1      22.329   7.875  50.365  1.00  0.00    -0.026 C 
BRANCH   9  17
HETATM   17  O1  UNL     1      23.832   5.489  52.900  1.00  0.00    -0.360 OA
HETATM   18  H1  UNL     1      23.151   5.782  53.577  1.00  0.00     0.217 HD
ENDBRANCH   9  17
ENDBRANCH   6   8
ENDBRANCH   1   6
BRANCH   4  19
HETATM   19  C7  UNL     1      26.740   1.102  53.369  1.00  0.00     0.184 C 
BRANCH  19  20
HETATM   20  O2  UNL     1      26.926   1.624  54.643  1.00  0.00    -0.386 OA
HETATM   21  H7  UNL     1      26.636   2.560  54.636  1.00  0.00     0.210 HD
ENDBRANCH  19  20
BRANCH  19  22
HETATM   22  C8  UNL     1      27.358  -0.234  53.197  1.00  0.00    -0.025 A 
HETATM   23  C9  UNL     1      26.881  -1.430  52.703  1.00  0.00     0.010 A 
HETATM   24  C10 UNL     1      27.706  -2.528  52.662  1.00  0.00     0.001 A 
HETATM   25  C11 UNL     1      29.009  -2.502  53.095  1.00  0.00     0.000 A 
HETATM   26  C12 UNL     1      29.502  -1.317  53.590  1.00  0.00     0.001 A 
HETATM   27  C13 UNL     1      28.682  -0.182  53.643  1.00  0.00     0.010 A 
ENDBRANCH  19  22
ENDBRANCH   4  19
TORSDOF 6
ENDMDL
MODEL 5
REMARK VINA RESULT:      -8.0      3.878      7.837
REMARK  6 active torsions:
REMARK  status: ('A' for Active; 'I' for Inactive)
REMARK    1  A    between atoms: O1_1  and  C1_2 
REMARK    2  A    between atoms: C2_3  and  N1_4 
REMARK    3  A    between atoms: N1_4  and  C3_5 
REMARK    4  A    between atoms: C6_8  and  C7_9 
REMARK    5  A    between atoms: C7_9  and  O2_10 
REMARK    6  A    between atoms: C7_9  and  C8_11 
ROOT
HETATM    1  C3  UNL     1      24.967   2.702  50.789  1.00  0.00     0.128 A 
HETATM    2  C4  UNL     1      24.716   3.269  49.428  1.00  0.00     0.003 A 
HETATM    3  C5  UNL     1      24.213   4.483  49.560  1.00  0.00     0.008 A 
HETATM    4  C6  UNL     1      24.057   4.889  50.944  1.00  0.00    -0.027 A 
HETATM    5  C14 UNL     1      24.506   3.832  51.637  1.00  0.00     0.012 A 
ENDROOT
BRANCH   1   6
HETATM    6  N1  UNL     1      26.396   2.497  50.872  1.00  0.00    -0.379 N 
HETATM    7  H2  UNL     1      27.190   2.801  50.241  1.00  0.00     0.160 HD
BRANCH   6   8
HETATM    8  C2  UNL     1      26.723   1.752  52.024  1.00  0.00     0.066 C 
HETATM    9  C1  UNL     1      27.675   1.943  52.927  1.00  0.00     0.104 C 
HETATM   10  C20 UNL     1      27.659   0.906  53.983  1.00  0.00     0.304 C 
HETATM   11  N2  UNL     1      26.793  -0.086  53.486  1.00  0.00     0.108 N 
HETATM   12  C19 UNL     1      28.975   0.506  54.452  1.00  0.00     0.011 C 
HETATM   13  C15 UNL     1      25.990   0.528  52.446  1.00  0.00     0.332 C 
HETATM   14  C16 UNL     1      27.340  -1.308  53.031  1.00  0.00     0.278 C 
HETATM   15  C17 UNL     1      28.816  -1.453  53.042  1.00  0.00     0.057 C 
HETATM   16  C18 UNL     1      29.527  -0.598  54.018  1.00  0.00    -0.026 C 
BRANCH   9  17
HETATM   17  O1  UNL     1      28.627   2.940  52.995  1.00  0.00    -0.360 OA
HETATM   18  H1  UNL     1      28.555   3.715  53.630  1.00  0.00     0.217 HD
ENDBRANCH   9  17
ENDBRANCH   6   8
ENDBRANCH   1   6
BRANCH   4  19
HETATM   19  C7  UNL     1      23.560   6.100  51.594  1.00  0.00     0.184 C 
BRANCH  19  20
HETATM   20  O2  UNL     1      24.432   6.605  52.550  1.00  0.00    -0.386 OA
HETATM   21  H7  UNL     1      23.920   7.174  53.162  1.00  0.00     0.210 HD
ENDBRANCH  19  20
BRANCH  19  22
HETATM   22  C8  UNL     1      23.191   7.100  50.564  1.00  0.00    -0.025 A 
HETATM   23  C9  UNL     1      22.004   7.391  49.925  1.00  0.00     0.010 A 
HETATM   24  C10 UNL     1      21.961   8.400  48.993  1.00  0.00     0.001 A 
HETATM   25  C11 UNL     1      23.059   9.153  48.653  1.00  0.00     0.000 A 
HETATM   26  C12 UNL     1      24.251   8.876  49.282  1.00  0.00     0.001 A 
HETATM   27  C13 UNL     1      24.322   7.853  50.236  1.00  0.00     0.010 A 
ENDBRANCH  19  22
ENDBRANCH   4  19
TORSDOF 6
ENDMDL
MODEL 6
REMARK VINA RESULT:      -7.9      3.223      6.235
REMARK  6 active torsions:
REMARK  status: ('A' for Active; 'I' for Inactive)
REMARK    1  A    between atoms: O1_1  and  C1_2 
REMARK    2  A    between atoms: C2_3  and  N1_4 
REMARK    3  A    between atoms: N1_4  and  C3_5 
REMARK    4  A    between atoms: C6_8  and  C7_9 
REMARK    5  A    between atoms: C7_9  and  O2_10 
REMARK    6  A    between atoms: C7_9  and  C8_11 
ROOT
HETATM    1  C3  UNL     1      25.022   2.756  51.032  1.00  0.00     0.128 A 
HETATM    2  C4  UNL     1      23.646   2.186  50.900  1.00  0.00     0.003 A 
HETATM    3  C5  UNL     1      23.484   1.250  51.817  1.00  0.00     0.008 A 
HETATM    4  C6  UNL     1      24.656   1.059  52.651  1.00  0.00    -0.027 A 
HETATM    5  C14 UNL     1      25.535   1.951  52.170  1.00  0.00     0.012 A 
ENDROOT
BRANCH   1   6
HETATM    6  N1  UNL     1      24.840   4.148  51.377  1.00  0.00    -0.379 N 
HETATM    7  H2  UNL     1      24.503   4.616  52.265  1.00  0.00     0.160 HD
BRANCH   6   8
HETATM    8  C2  UNL     1      25.193   4.978  50.293  1.00  0.00     0.066 C 
HETATM    9  C1  UNL     1      26.302   5.016  49.568  1.00  0.00     0.104 C 
HETATM   10  C20 UNL     1      26.248   6.055  48.516  1.00  0.00     0.304 C 
HETATM   11  N2  UNL     1      25.121   6.831  48.850  1.00  0.00     0.108 N 
HETATM   12  C19 UNL     1      27.511   6.735  48.276  1.00  0.00     0.011 C 
HETATM   13  C15 UNL     1      24.301   6.033  49.742  1.00  0.00     0.332 C 
HETATM   14  C16 UNL     1      25.313   8.126  49.382  1.00  0.00     0.278 C 
HETATM   15  C17 UNL     1      26.706   8.576  49.623  1.00  0.00     0.057 C 
HETATM   16  C18 UNL     1      27.735   7.917  48.790  1.00  0.00    -0.026 C 
BRANCH   9  17
HETATM   17  O1  UNL     1      27.440   4.241  49.672  1.00  0.00    -0.360 OA
HETATM   18  H1  UNL     1      27.958   3.929  48.870  1.00  0.00     0.217 HD
ENDBRANCH   9  17
ENDBRANCH   6   8
ENDBRANCH   1   6
BRANCH   4  19
HETATM   19  C7  UNL     1      24.969   0.174  53.771  1.00  0.00     0.184 C 
BRANCH  19  20
HETATM   20  O2  UNL     1      24.082  -0.889  53.892  1.00  0.00    -0.386 OA
HETATM   21  H7  UNL     1      23.434  -0.832  53.159  1.00  0.00     0.210 HD
ENDBRANCH  19  20
BRANCH  19  22
HETATM   22  C8  UNL     1      26.383  -0.262  53.678  1.00  0.00    -0.025 A 
HETATM   23  C9  UNL     1      27.043  -1.123  52.828  1.00  0.00     0.010 A 
HETATM   24  C10 UNL     1      28.392  -1.335  52.985  1.00  0.00     0.001 A 
HETATM   25  C11 UNL     1      29.137  -0.723  53.963  1.00  0.00     0.000 A 
HETATM   26  C12 UNL     1      28.493   0.140  54.820  1.00  0.00     0.001 A 
HETATM   27  C13 UNL     1      27.119   0.374  54.681  1.00  0.00     0.010 A 
ENDBRANCH  19  22
ENDBRANCH   4  19
TORSDOF 6
ENDMDL
MODEL 7
REMARK VINA RESULT:      -7.8      5.794     10.110
REMARK  6 active torsions:
REMARK  status: ('A' for Active; 'I' for Inactive)
REMARK    1  A    between atoms: O1_1  and  C1_2 
REMARK    2  A    between atoms: C2_3  and  N1_4 
REMARK    3  A    between atoms: N1_4  and  C3_5 
REMARK    4  A    between atoms: C6_8  and  C7_9 
REMARK    5  A    between atoms: C7_9  and  O2_10 
REMARK    6  A    between atoms: C7_9  and  C8_11 
ROOT
HETATM    1  C3  UNL     1      28.139   6.195  48.106  1.00  0.00     0.128 A 
HETATM    2  C4  UNL     1      26.828   6.811  48.480  1.00  0.00     0.003 A 
HETATM    3  C5  UNL     1      26.110   5.916  49.133  1.00  0.00     0.008 A 
HETATM    4  C6  UNL     1      26.787   4.642  49.286  1.00  0.00    -0.027 A 
HETATM    5  C14 UNL     1      27.967   4.835  48.678  1.00  0.00     0.012 A 
ENDROOT
BRANCH   1   6
HETATM    6  N1  UNL     1      29.147   6.964  48.802  1.00  0.00    -0.379 N 
HETATM    7  H2  UNL     1      29.076   7.685  49.574  1.00  0.00     0.160 HD
BRANCH   6   8
HETATM    8  C2  UNL     1      30.434   6.647  48.318  1.00  0.00     0.066 C 
HETATM    9  C1  UNL     1      31.007   6.932  47.157  1.00  0.00     0.104 C 
HETATM   10  C20 UNL     1      32.384   6.398  47.068  1.00  0.00     0.304 C 
HETATM   11  N2  UNL     1      32.492   5.524  48.166  1.00  0.00     0.108 N 
HETATM   12  C19 UNL     1      32.754   5.906  45.751  1.00  0.00     0.011 C 
HETATM   13  C15 UNL     1      31.438   5.876  49.099  1.00  0.00     0.332 C 
HETATM   14  C16 UNL     1      32.500   4.129  47.934  1.00  0.00     0.278 C 
HETATM   15  C17 UNL     1      32.327   3.658  46.538  1.00  0.00     0.057 C 
HETATM   16  C18 UNL     1      32.731   4.624  45.492  1.00  0.00    -0.026 C 
BRANCH   9  17
HETATM   17  O1  UNL     1      30.499   7.631  46.081  1.00  0.00    -0.360 OA
HETATM   18  H1  UNL     1      29.548   7.531  45.771  1.00  0.00     0.217 HD
ENDBRANCH   9  17
ENDBRANCH   6   8
ENDBRANCH   1   6
BRANCH   4  19
HETATM   19  C7  UNL     1      26.425   3.372  49.913  1.00  0.00     0.184 C 
BRANCH  19  20
HETATM   20  O2  UNL     1      27.113   3.130  51.095  1.00  0.00    -0.386 OA
HETATM   21  H7  UNL     1      27.889   2.568  50.889  1.00  0.00     0.210 HD
ENDBRANCH  19  20
BRANCH  19  22
HETATM   22  C8  UNL     1      24.954   3.301  50.075  1.00  0.00    -0.025 A 
HETATM   23  C9  UNL     1      23.919   3.143  49.178  1.00  0.00     0.010 A 
HETATM   24  C10 UNL     1      22.622   3.110  49.631  1.00  0.00     0.001 A 
HETATM   25  C11 UNL     1      22.290   3.228  50.958  1.00  0.00     0.000 A 
HETATM   26  C12 UNL     1      23.311   3.386  51.868  1.00  0.00     0.001 A 
HETATM   27  C13 UNL     1      24.641   3.422  51.432  1.00  0.00     0.010 A 
ENDBRANCH  19  22
ENDBRANCH   4  19
TORSDOF 6
ENDMDL
MODEL 8
REMARK VINA RESULT:      -7.8      1.991      6.568
REMARK  6 active torsions:
REMARK  status: ('A' for Active; 'I' for Inactive)
REMARK    1  A    between atoms: O1_1  and  C1_2 
REMARK    2  A    between atoms: C2_3  and  N1_4 
REMARK    3  A    between atoms: N1_4  and  C3_5 
REMARK    4  A    between atoms: C6_8  and  C7_9 
REMARK    5  A    between atoms: C7_9  and  O2_10 
REMARK    6  A    between atoms: C7_9  and  C8_11 
ROOT
HETATM    1  C3  UNL     1      24.949   2.742  51.449  1.00  0.00     0.128 A 
HETATM    2  C4  UNL     1      24.167   3.900  50.914  1.00  0.00     0.003 A 
HETATM    3  C5  UNL     1      22.914   3.521  50.738  1.00  0.00     0.008 A 
HETATM    4  C6  UNL     1      22.679   2.137  51.105  1.00  0.00    -0.027 A 
HETATM    5  C14 UNL     1      23.883   1.710  51.516  1.00  0.00     0.012 A 
ENDROOT
BRANCH   1   6
HETATM    6  N1  UNL     1      25.406   3.149  52.759  1.00  0.00    -0.379 N 
HETATM    7  H2  UNL     1      25.379   4.083  53.257  1.00  0.00     0.160 HD
BRANCH   6   8
HETATM    8  C2  UNL     1      25.981   2.058  53.444  1.00  0.00     0.066 C 
HETATM    9  C1  UNL     1      27.201   1.903  53.939  1.00  0.00     0.104 C 
HETATM   10  C20 UNL     1      27.378   0.583  54.585  1.00  0.00     0.304 C 
HETATM   11  N2  UNL     1      26.246  -0.154  54.190  1.00  0.00     0.108 N 
HETATM   12  C19 UNL     1      28.692  -0.009  54.393  1.00  0.00     0.011 C 
HETATM   13  C15 UNL     1      25.247   0.800  53.746  1.00  0.00     0.332 C 
HETATM   14  C16 UNL     1      26.398  -1.188  53.239  1.00  0.00     0.278 C 
HETATM   15  C17 UNL     1      27.745  -1.399  52.654  1.00  0.00     0.057 C 
HETATM   16  C18 UNL     1      28.875  -0.939  53.491  1.00  0.00    -0.026 C 
BRANCH   9  17
HETATM   17  O1  UNL     1      28.267   2.779  53.922  1.00  0.00    -0.360 OA
HETATM   18  H1  UNL     1      28.853   2.904  53.115  1.00  0.00     0.217 HD
ENDBRANCH   9  17
ENDBRANCH   6   8
ENDBRANCH   1   6
BRANCH   4  19
HETATM   19  C7  UNL     1      21.501   1.274  51.095  1.00  0.00     0.184 C 
BRANCH  19  20
HETATM   20  O2  UNL     1      21.498   0.363  50.046  1.00  0.00    -0.386 OA
HETATM   21  H7  UNL     1      21.710   0.846  49.220  1.00  0.00     0.210 HD
ENDBRANCH  19  20
BRANCH  19  22
HETATM   22  C8  UNL     1      21.347   0.629  52.420  1.00  0.00    -0.025 A 
HETATM   23  C9  UNL     1      20.705   1.011  53.579  1.00  0.00     0.010 A 
HETATM   24  C10 UNL     1      20.731   0.185  54.677  1.00  0.00     0.001 A 
HETATM   25  C11 UNL     1      21.375  -1.028  54.687  1.00  0.00     0.000 A 
HETATM   26  C12 UNL     1      22.021  -1.425  53.538  1.00  0.00     0.001 A 
HETATM   27  C13 UNL     1      22.010  -0.602  52.405  1.00  0.00     0.010 A 
ENDBRANCH  19  22
ENDBRANCH   4  19
TORSDOF 6
ENDMDL
MODEL 9
REMARK VINA RESULT:      -7.7      1.945      3.242
REMARK  6 active torsions:
REMARK  status: ('A' for Active; 'I' for Inactive)
REMARK    1  A    between atoms: O1_1  and  C1_2 
REMARK    2  A    between atoms: C2_3  and  N1_4 
REMARK    3  A    between atoms: N1_4  and  C3_5 
REMARK    4  A    between atoms: C6_8  and  C7_9 
REMARK    5  A    between atoms: C7_9  and  O2_10 
REMARK    6  A    between atoms: C7_9  and  C8_11 
ROOT
HETATM    1  C3  UNL     1      22.060  -0.139  52.772  1.00  0.00     0.128 A 
HETATM    2  C4  UNL     1      22.720  -0.877  53.893  1.00  0.00     0.003 A 
HETATM    3  C5  UNL     1      23.961  -0.442  54.015  1.00  0.00     0.008 A 
HETATM    4  C6  UNL     1      24.302   0.589  53.053  1.00  0.00    -0.027 A 
HETATM    5  C14 UNL     1      23.174   0.745  52.343  1.00  0.00     0.012 A 
ENDROOT
BRANCH   1   6
HETATM    6  N1  UNL     1      20.971   0.598  53.374  1.00  0.00    -0.379 N 
HETATM    7  H2  UNL     1      20.727   0.795  54.385  1.00  0.00     0.160 HD
BRANCH   6   8
HETATM    8  C2  UNL     1      20.118   1.122  52.380  1.00  0.00     0.066 C 
HETATM    9  C1  UNL     1      19.779   2.376  52.114  1.00  0.00     0.104 C 
HETATM   10  C20 UNL     1      18.847   2.472  50.969  1.00  0.00     0.304 C 
HETATM   11  N2  UNL     1      18.432   1.146  50.744  1.00  0.00     0.108 N 
HETATM   12  C19 UNL     1      17.831   3.503  51.106  1.00  0.00     0.011 C 
HETATM   13  C15 UNL     1      19.402   0.279  51.385  1.00  0.00     0.332 C 
HETATM   14  C16 UNL     1      17.118   0.768  51.104  1.00  0.00     0.278 C 
HETATM   15  C17 UNL     1      16.262   1.783  51.765  1.00  0.00     0.057 C 
HETATM   16  C18 UNL     1      16.616   3.191  51.478  1.00  0.00    -0.026 C 
BRANCH   9  17
HETATM   17  O1  UNL     1      20.172   3.538  52.745  1.00  0.00    -0.360 OA
HETATM   18  H1  UNL     1      20.367   3.580  53.730  1.00  0.00     0.217 HD
ENDBRANCH   9  17
ENDBRANCH   6   8
ENDBRANCH   1   6
BRANCH   4  19
HETATM   19  C7  UNL     1      25.511   1.366  52.787  1.00  0.00     0.184 C 
BRANCH  19  20
HETATM   20  O2  UNL     1      25.524   2.595  53.433  1.00  0.00    -0.386 OA
HETATM   21  H7  UNL     1      25.292   3.288  52.780  1.00  0.00     0.210 HD
ENDBRANCH  19  20
BRANCH  19  22
HETATM   22  C8  UNL     1      26.706   0.542  53.089  1.00  0.00    -0.025 A 
HETATM   23  C9  UNL     1      27.175  -0.649  52.577  1.00  0.00     0.010 A 
HETATM   24  C10 UNL     1      28.343  -1.186  53.062  1.00  0.00     0.001 A 
HETATM   25  C11 UNL     1      29.088  -0.590  54.050  1.00  0.00     0.000 A 
HETATM   26  C12 UNL     1      28.634   0.600  54.572  1.00  0.00     0.001 A 
HETATM   27  C13 UNL     1      27.446   1.168  54.095  1.00  0.00     0.010 A 
ENDBRANCH  19  22
ENDBRANCH   4  19
TORSDOF 6
ENDMDL
