MODEL 1
REMARK VINA RESULT:      -7.5      0.000      0.000
REMARK  9 active torsions:
REMARK  status: ('A' for Active; 'I' for Inactive)
REMARK    1  A    between atoms: C2_2  and  C4_4 
REMARK    2  A    between atoms: C7_7  and  N1_8 
REMARK       I    between atoms: N1_8  and  C8_9 
REMARK       I    between atoms: C8_9  and  N2_11 
REMARK    3  A    between atoms: N2_11  and  C9_12 
REMARK    4  A    between atoms: C12_15  and  C13_16 
REMARK    5  A    between atoms: C13_16  and  N3_17 
REMARK    6  A    between atoms: N3_17  and  C14_18 
REMARK    7  A    between atoms: N3_17  and  C16_21 
REMARK    8  A    between atoms: C14_18  and  C15_19 
REMARK    9  A    between atoms: C16_21  and  C17_22 
ROOT
HETATM    1  N1  UNL     1      24.340   2.741  50.635  1.00  0.00    -0.309 N 
HETATM    2  C8  UNL     1      25.559   3.393  50.310  1.00  0.00     0.325 C 
HETATM    3  O1  UNL     1      26.644   3.094  50.841  1.00  0.00    -0.247 OA
HETATM    4  N2  UNL     1      25.408   4.397  49.337  1.00  0.00    -0.309 N 
HETATM    5  H10 UNL     1      23.406   2.946  50.225  1.00  0.00     0.170 HD
HETATM    6  H11 UNL     1      24.520   4.687  48.860  1.00  0.00     0.170 HD
ENDROOT
BRANCH   4   7
HETATM    7  C9  UNL     1      26.546   5.126  48.918  1.00  0.00     0.033 A 
HETATM    8  C10 UNL     1      26.505   6.432  48.745  1.00  0.00     0.007 A 
HETATM    9  C11 UNL     1      27.819   6.993  48.300  1.00  0.00     0.065 A 
HETATM   10  C12 UNL     1      28.713   5.816  48.226  1.00  0.00    -0.057 A 
HETATM   11  C18 UNL     1      27.911   4.804  48.589  1.00  0.00     0.034 A 
BRANCH  10  12
HETATM   12  C13 UNL     1      30.123   5.514  47.903  1.00  0.00     0.151 C 
BRANCH  12  13
HETATM   13  N3  UNL     1      31.056   6.460  48.430  1.00  0.00    -0.407 N 
BRANCH  13  14
HETATM   14  C14 UNL     1      31.982   5.978  49.390  1.00  0.00     0.132 C 
BRANCH  14  15
HETATM   15  C15 UNL     1      33.367   5.869  48.750  1.00  0.00     0.134 C 
HETATM   16 CL1  UNL     1      33.573   4.312  47.930  1.00  0.00    -0.129 Cl
ENDBRANCH  14  15
ENDBRANCH  13  14
BRANCH  13  17
HETATM   17  C16 UNL     1      31.552   7.382  47.464  1.00  0.00     0.132 C 
BRANCH  17  18
HETATM   18  C17 UNL     1      31.212   8.817  47.765  1.00  0.00     0.134 C 
HETATM   19 CL2  UNL     1      30.520   8.922  49.414  1.00  0.00    -0.129 Cl
ENDBRANCH  17  18
ENDBRANCH  13  17
ENDBRANCH  12  13
ENDBRANCH  10  12
ENDBRANCH   4   7
BRANCH   1  20
HETATM   20  C7  UNL     1      23.916   1.704  51.506  1.00  0.00     0.036 A 
HETATM   21  C6  UNL     1      22.574   1.319  51.421  1.00  0.00     0.030 A 
HETATM   22  C5  UNL     1      22.008   0.335  52.193  1.00  0.00     0.010 A 
HETATM   23  C4  UNL     1      22.844  -0.286  53.093  1.00  0.00    -0.055 A 
HETATM   24  C20 UNL     1      24.177   0.037  53.234  1.00  0.00     0.010 A 
HETATM   25  C19 UNL     1      24.682   1.036  52.426  1.00  0.00     0.030 A 
BRANCH  23  26
HETATM   26  C2  UNL     1      22.278  -1.363  53.956  1.00  0.00     0.010 C 
HETATM   27  C1  UNL     1      22.888  -1.299  55.334  1.00  0.00     0.015 C 
HETATM   28  C3  UNL     1      20.786  -1.213  54.077  1.00  0.00     0.015 C 
ENDBRANCH  23  26
ENDBRANCH   1  20
TORSDOF 9
ENDMDL
MODEL 2
REMARK VINA RESULT:      -7.5      0.789      1.986
REMARK  9 active torsions:
REMARK  status: ('A' for Active; 'I' for Inactive)
REMARK    1  A    between atoms: C2_2  and  C4_4 
REMARK    2  A    between atoms: C7_7  and  N1_8 
REMARK       I    between atoms: N1_8  and  C8_9 
REMARK       I    between atoms: C8_9  and  N2_11 
REMARK    3  A    between atoms: N2_11  and  C9_12 
REMARK    4  A    between atoms: C12_15  and  C13_16 
REMARK    5  A    between atoms: C13_16  and  N3_17 
REMARK    6  A    between atoms: N3_17  and  C14_18 
REMARK    7  A    between atoms: N3_17  and  C16_21 
REMARK    8  A    between atoms: C14_18  and  C15_19 
REMARK    9  A    between atoms: C16_21  and  C17_22 
ROOT
HETATM    1  N1  UNL     1      24.507   3.125  50.641  1.00  0.00    -0.309 N 
HETATM    2  C8  UNL     1      25.762   3.596  50.172  1.00  0.00     0.325 C 
HETATM    3  O1  UNL     1      26.839   3.044  50.465  1.00  0.00    -0.247 OA
HETATM    4  N2  UNL     1      25.657   4.734  49.353  1.00  0.00    -0.309 N 
HETATM    5  H10 UNL     1      23.578   3.543  50.429  1.00  0.00     0.170 HD
HETATM    6  H11 UNL     1      24.777   5.236  49.077  1.00  0.00     0.170 HD
ENDROOT
BRANCH   4   7
HETATM    7  C9  UNL     1      26.834   5.306  48.815  1.00  0.00     0.033 A 
HETATM    8  C10 UNL     1      26.865   6.555  48.394  1.00  0.00     0.007 A 
HETATM    9  C11 UNL     1      28.208   6.947  47.864  1.00  0.00     0.065 A 
HETATM   10  C12 UNL     1      29.036   5.732  48.028  1.00  0.00    -0.057 A 
HETATM   11  C18 UNL     1      28.179   4.853  48.570  1.00  0.00     0.034 A 
BRANCH  10  12
HETATM   12  C13 UNL     1      30.428   5.298  47.786  1.00  0.00     0.151 C 
BRANCH  12  13
HETATM   13  N3  UNL     1      31.408   6.293  48.085  1.00  0.00    -0.407 N 
BRANCH  13  14
HETATM   14  C14 UNL     1      31.573   6.638  49.451  1.00  0.00     0.132 C 
BRANCH  14  15
HETATM   15  C15 UNL     1      31.941   8.119  49.560  1.00  0.00     0.134 C 
HETATM   16 CL1  UNL     1      30.499   9.145  49.462  1.00  0.00    -0.129 Cl
ENDBRANCH  14  15
ENDBRANCH  13  14
BRANCH  13  17
HETATM   17  C16 UNL     1      32.592   6.193  47.299  1.00  0.00     0.132 C 
BRANCH  17  18
HETATM   18  C17 UNL     1      33.368   4.925  47.530  1.00  0.00     0.134 C 
HETATM   19 CL2  UNL     1      34.897   5.318  48.378  1.00  0.00    -0.129 Cl
ENDBRANCH  17  18
ENDBRANCH  13  17
ENDBRANCH  12  13
ENDBRANCH  10  12
ENDBRANCH   4   7
BRANCH   1  20
HETATM   20  C7  UNL     1      24.033   2.069  51.460  1.00  0.00     0.036 A 
HETATM   21  C6  UNL     1      22.766   1.559  51.161  1.00  0.00     0.030 A 
HETATM   22  C5  UNL     1      22.164   0.539  51.856  1.00  0.00     0.010 A 
HETATM   23  C4  UNL     1      22.884   0.014  52.906  1.00  0.00    -0.055 A 
HETATM   24  C20 UNL     1      24.138   0.463  53.261  1.00  0.00     0.010 A 
HETATM   25  C19 UNL     1      24.684   1.491  52.518  1.00  0.00     0.030 A 
BRANCH  23  26
HETATM   26  C2  UNL     1      22.276  -1.096  53.694  1.00  0.00     0.010 C 
HETATM   27  C1  UNL     1      22.926  -1.187  55.052  1.00  0.00     0.015 C 
HETATM   28  C3  UNL     1      20.800  -0.867  53.876  1.00  0.00     0.015 C 
ENDBRANCH  23  26
ENDBRANCH   1  20
TORSDOF 9
ENDMDL
MODEL 3
REMARK VINA RESULT:      -7.4      1.528      2.468
REMARK  9 active torsions:
REMARK  status: ('A' for Active; 'I' for Inactive)
REMARK    1  A    between atoms: C2_2  and  C4_4 
REMARK    2  A    between atoms: C7_7  and  N1_8 
REMARK       I    between atoms: N1_8  and  C8_9 
REMARK       I    between atoms: C8_9  and  N2_11 
REMARK    3  A    between atoms: N2_11  and  C9_12 
REMARK    4  A    between atoms: C12_15  and  C13_16 
REMARK    5  A    between atoms: C13_16  and  N3_17 
REMARK    6  A    between atoms: N3_17  and  C14_18 
REMARK    7  A    between atoms: N3_17  and  C16_21 
REMARK    8  A    between atoms: C14_18  and  C15_19 
REMARK    9  A    between atoms: C16_21  and  C17_22 
ROOT
HETATM    1  N1  UNL     1      26.038   4.449  50.480  1.00  0.00    -0.309 N 
HETATM    2  C8  UNL     1      26.917   4.854  49.441  1.00  0.00     0.325 C 
HETATM    3  O1  UNL     1      27.577   4.044  48.765  1.00  0.00    -0.247 OA
HETATM    4  N2  UNL     1      26.957   6.248  49.262  1.00  0.00    -0.309 N 
HETATM    5  H10 UNL     1      25.462   5.077  51.076  1.00  0.00     0.170 HD
HETATM    6  H11 UNL     1      26.424   6.971  49.803  1.00  0.00     0.170 HD
ENDROOT
BRANCH   4   7
HETATM    7  C9  UNL     1      27.792   6.788  48.255  1.00  0.00     0.033 A 
HETATM    8  C10 UNL     1      27.340   7.661  47.377  1.00  0.00     0.007 A 
HETATM    9  C11 UNL     1      28.393   8.096  46.407  1.00  0.00     0.065 A 
HETATM   10  C12 UNL     1      29.604   7.355  46.824  1.00  0.00    -0.057 A 
HETATM   11  C18 UNL     1      29.173   6.639  47.874  1.00  0.00     0.034 A 
BRANCH  10  12
HETATM   12  C13 UNL     1      31.021   7.235  46.425  1.00  0.00     0.151 C 
BRANCH  12  13
HETATM   13  N3  UNL     1      31.907   6.942  47.507  1.00  0.00    -0.407 N 
BRANCH  13  14
HETATM   14  C14 UNL     1      32.816   5.870  47.318  1.00  0.00     0.132 C 
BRANCH  14  15
HETATM   15  C15 UNL     1      32.241   4.599  47.944  1.00  0.00     0.134 C 
HETATM   16 CL1  UNL     1      31.846   3.396  46.704  1.00  0.00    -0.129 Cl
ENDBRANCH  14  15
ENDBRANCH  13  14
BRANCH  13  17
HETATM   17  C16 UNL     1      32.406   8.098  48.176  1.00  0.00     0.132 C 
BRANCH  17  18
HETATM   18  C17 UNL     1      31.870   8.270  49.571  1.00  0.00     0.134 C 
HETATM   19 CL2  UNL     1      30.641   9.574  49.572  1.00  0.00    -0.129 Cl
ENDBRANCH  17  18
ENDBRANCH  13  17
ENDBRANCH  12  13
ENDBRANCH  10  12
ENDBRANCH   4   7
BRANCH   1  20
HETATM   20  C7  UNL     1      25.621   3.229  51.073  1.00  0.00     0.036 A 
HETATM   21  C6  UNL     1      26.613   2.448  51.674  1.00  0.00     0.030 A 
HETATM   22  C5  UNL     1      26.375   1.244  52.289  1.00  0.00     0.010 A 
HETATM   23  C4  UNL     1      25.068   0.812  52.291  1.00  0.00    -0.055 A 
HETATM   24  C20 UNL     1      24.036   1.526  51.720  1.00  0.00     0.010 A 
HETATM   25  C19 UNL     1      24.345   2.730  51.119  1.00  0.00     0.030 A 
BRANCH  23  26
HETATM   26  C2  UNL     1      24.756  -0.491  52.946  1.00  0.00     0.010 C 
HETATM   27  C1  UNL     1      25.624  -0.680  54.164  1.00  0.00     0.015 C 
HETATM   28  C3  UNL     1      23.312  -0.540  53.365  1.00  0.00     0.015 C 
ENDBRANCH  23  26
ENDBRANCH   1  20
TORSDOF 9
ENDMDL
MODEL 4
REMARK VINA RESULT:      -7.2      1.790      2.761
REMARK  9 active torsions:
REMARK  status: ('A' for Active; 'I' for Inactive)
REMARK    1  A    between atoms: C2_2  and  C4_4 
REMARK    2  A    between atoms: C7_7  and  N1_8 
REMARK       I    between atoms: N1_8  and  C8_9 
REMARK       I    between atoms: C8_9  and  N2_11 
REMARK    3  A    between atoms: N2_11  and  C9_12 
REMARK    4  A    between atoms: C12_15  and  C13_16 
REMARK    5  A    between atoms: C13_16  and  N3_17 
REMARK    6  A    between atoms: N3_17  and  C14_18 
REMARK    7  A    between atoms: N3_17  and  C16_21 
REMARK    8  A    between atoms: C14_18  and  C15_19 
REMARK    9  A    between atoms: C16_21  and  C17_22 
ROOT
HETATM    1  N1  UNL     1      25.922   4.507  50.477  1.00  0.00    -0.309 N 
HETATM    2  C8  UNL     1      26.887   4.847  49.491  1.00  0.00     0.325 C 
HETATM    3  O1  UNL     1      27.547   3.992  48.874  1.00  0.00    -0.247 OA
HETATM    4  N2  UNL     1      27.012   6.233  49.294  1.00  0.00    -0.309 N 
HETATM    5  H10 UNL     1      25.342   5.175  51.023  1.00  0.00     0.170 HD
HETATM    6  H11 UNL     1      26.482   6.993  49.787  1.00  0.00     0.170 HD
ENDROOT
BRANCH   4   7
HETATM    7  C9  UNL     1      27.938   6.712  48.336  1.00  0.00     0.033 A 
HETATM    8  C10 UNL     1      27.553   7.437  47.305  1.00  0.00     0.007 A 
HETATM    9  C11 UNL     1      28.696   7.832  46.424  1.00  0.00     0.065 A 
HETATM   10  C12 UNL     1      29.884   7.239  47.077  1.00  0.00    -0.057 A 
HETATM   11  C18 UNL     1      29.362   6.623  48.149  1.00  0.00     0.034 A 
BRANCH  10  12
HETATM   12  C13 UNL     1      31.346   7.179  46.874  1.00  0.00     0.151 C 
BRANCH  12  13
HETATM   13  N3  UNL     1      31.973   6.053  47.489  1.00  0.00    -0.407 N 
BRANCH  13  14
HETATM   14  C14 UNL     1      32.488   5.055  46.622  1.00  0.00     0.132 C 
BRANCH  14  15
HETATM   15  C15 UNL     1      31.884   3.699  46.993  1.00  0.00     0.134 C 
HETATM   16 CL1  UNL     1      33.085   2.655  47.773  1.00  0.00    -0.129 Cl
ENDBRANCH  14  15
ENDBRANCH  13  14
BRANCH  13  17
HETATM   17  C16 UNL     1      32.760   6.381  48.631  1.00  0.00     0.132 C 
BRANCH  17  18
HETATM   18  C17 UNL     1      34.187   6.731  48.305  1.00  0.00     0.134 C 
HETATM   19 CL2  UNL     1      35.272   5.498  49.021  1.00  0.00    -0.129 Cl
ENDBRANCH  17  18
ENDBRANCH  13  17
ENDBRANCH  12  13
ENDBRANCH  10  12
ENDBRANCH   4   7
BRANCH   1  20
HETATM   20  C7  UNL     1      25.405   3.321  51.060  1.00  0.00     0.036 A 
HETATM   21  C6  UNL     1      26.334   2.426  51.598  1.00  0.00     0.030 A 
HETATM   22  C5  UNL     1      25.998   1.236  52.196  1.00  0.00     0.010 A 
HETATM   23  C4  UNL     1      24.653   0.943  52.246  1.00  0.00    -0.055 A 
HETATM   24  C20 UNL     1      23.679   1.775  51.738  1.00  0.00     0.010 A 
HETATM   25  C19 UNL     1      24.087   2.956  51.152  1.00  0.00     0.030 A 
BRANCH  23  26
HETATM   26  C2  UNL     1      24.235  -0.338  52.885  1.00  0.00     0.010 C 
HETATM   27  C1  UNL     1      24.965  -0.530  54.190  1.00  0.00     0.015 C 
HETATM   28  C3  UNL     1      22.754  -0.336  53.152  1.00  0.00     0.015 C 
ENDBRANCH  23  26
ENDBRANCH   1  20
TORSDOF 9
ENDMDL
MODEL 5
REMARK VINA RESULT:      -7.2      1.694      2.279
REMARK  9 active torsions:
REMARK  status: ('A' for Active; 'I' for Inactive)
REMARK    1  A    between atoms: C2_2  and  C4_4 
REMARK    2  A    between atoms: C7_7  and  N1_8 
REMARK       I    between atoms: N1_8  and  C8_9 
REMARK       I    between atoms: C8_9  and  N2_11 
REMARK    3  A    between atoms: N2_11  and  C9_12 
REMARK    4  A    between atoms: C12_15  and  C13_16 
REMARK    5  A    between atoms: C13_16  and  N3_17 
REMARK    6  A    between atoms: N3_17  and  C14_18 
REMARK    7  A    between atoms: N3_17  and  C16_21 
REMARK    8  A    between atoms: C14_18  and  C15_19 
REMARK    9  A    between atoms: C16_21  and  C17_22 
ROOT
HETATM    1  N1  UNL     1      25.888   4.247  50.791  1.00  0.00    -0.309 N 
HETATM    2  C8  UNL     1      26.661   4.729  49.701  1.00  0.00     0.325 C 
HETATM    3  O1  UNL     1      27.332   3.979  48.970  1.00  0.00    -0.247 OA
HETATM    4  N2  UNL     1      26.585   6.124  49.543  1.00  0.00    -0.309 N 
HETATM    5  H10 UNL     1      25.308   4.823  51.435  1.00  0.00     0.170 HD
HETATM    6  H11 UNL     1      26.037   6.799  50.131  1.00  0.00     0.170 HD
ENDROOT
BRANCH   4   7
HETATM    7  C9  UNL     1      27.306   6.738  48.491  1.00  0.00     0.033 A 
HETATM    8  C10 UNL     1      26.699   7.432  47.550  1.00  0.00     0.007 A 
HETATM    9  C11 UNL     1      27.655   7.989  46.542  1.00  0.00     0.065 A 
HETATM   10  C12 UNL     1      28.983   7.536  47.008  1.00  0.00    -0.057 A 
HETATM   11  C18 UNL     1      28.692   6.833  48.114  1.00  0.00     0.034 A 
BRANCH  10  12
HETATM   12  C13 UNL     1      30.401   7.666  46.611  1.00  0.00     0.151 C 
BRANCH  12  13
HETATM   13  N3  UNL     1      31.149   8.580  47.414  1.00  0.00    -0.407 N 
BRANCH  13  14
HETATM   14  C14 UNL     1      32.303   8.068  48.061  1.00  0.00     0.132 C 
BRANCH  14  15
HETATM   15  C15 UNL     1      31.975   7.772  49.525  1.00  0.00     0.134 C 
HETATM   16 CL1  UNL     1      31.856   6.028  49.815  1.00  0.00    -0.129 Cl
ENDBRANCH  14  15
ENDBRANCH  13  14
BRANCH  13  17
HETATM   17  C16 UNL     1      31.250   9.889  46.859  1.00  0.00     0.132 C 
BRANCH  17  18
HETATM   18  C17 UNL     1      30.280  10.875  47.451  1.00  0.00     0.134 C 
HETATM   19 CL2  UNL     1      30.745  11.210  49.149  1.00  0.00    -0.129 Cl
ENDBRANCH  17  18
ENDBRANCH  13  17
ENDBRANCH  12  13
ENDBRANCH  10  12
ENDBRANCH   4   7
BRANCH   1  20
HETATM   20  C7  UNL     1      25.605   2.992  51.390  1.00  0.00     0.036 A 
HETATM   21  C6  UNL     1      24.336   2.836  51.957  1.00  0.00     0.030 A 
HETATM   22  C5  UNL     1      23.907   1.687  52.575  1.00  0.00     0.010 A 
HETATM   23  C4  UNL     1      24.811   0.649  52.619  1.00  0.00    -0.055 A 
HETATM   24  C20 UNL     1      26.078   0.727  52.081  1.00  0.00     0.010 A 
HETATM   25  C19 UNL     1      26.444   1.912  51.474  1.00  0.00     0.030 A 
BRANCH  23  26
HETATM   26  C2  UNL     1      24.394  -0.621  53.279  1.00  0.00     0.010 C 
HETATM   27  C1  UNL     1      25.107  -0.780  54.598  1.00  0.00     0.015 C 
HETATM   28  C3  UNL     1      22.910  -0.627  53.524  1.00  0.00     0.015 C 
ENDBRANCH  23  26
ENDBRANCH   1  20
TORSDOF 9
ENDMDL
MODEL 6
REMARK VINA RESULT:      -6.9      3.111      5.360
REMARK  9 active torsions:
REMARK  status: ('A' for Active; 'I' for Inactive)
REMARK    1  A    between atoms: C2_2  and  C4_4 
REMARK    2  A    between atoms: C7_7  and  N1_8 
REMARK       I    between atoms: N1_8  and  C8_9 
REMARK       I    between atoms: C8_9  and  N2_11 
REMARK    3  A    between atoms: N2_11  and  C9_12 
REMARK    4  A    between atoms: C12_15  and  C13_16 
REMARK    5  A    between atoms: C13_16  and  N3_17 
REMARK    6  A    between atoms: N3_17  and  C14_18 
REMARK    7  A    between atoms: N3_17  and  C16_21 
REMARK    8  A    between atoms: C14_18  and  C15_19 
REMARK    9  A    between atoms: C16_21  and  C17_22 
ROOT
HETATM    1  N1  UNL     1      27.434   5.942  49.108  1.00  0.00    -0.309 N 
HETATM    2  C8  UNL     1      28.774   5.829  48.653  1.00  0.00     0.325 C 
HETATM    3  O1  UNL     1      29.220   4.793  48.127  1.00  0.00    -0.247 OA
HETATM    4  N2  UNL     1      29.530   6.996  48.860  1.00  0.00    -0.309 N 
HETATM    5  H10 UNL     1      27.006   6.779  49.554  1.00  0.00     0.170 HD
HETATM    6  H11 UNL     1      29.204   7.892  49.299  1.00  0.00     0.170 HD
ENDROOT
BRANCH   4   7
HETATM    7  C9  UNL     1      30.885   7.021  48.451  1.00  0.00     0.033 A 
HETATM    8  C10 UNL     1      31.867   7.163  49.318  1.00  0.00     0.007 A 
HETATM    9  C11 UNL     1      33.213   7.162  48.665  1.00  0.00     0.065 A 
HETATM   10  C12 UNL     1      32.922   6.986  47.226  1.00  0.00    -0.057 A 
HETATM   11  C18 UNL     1      31.581   6.917  47.195  1.00  0.00     0.034 A 
BRANCH  10  12
HETATM   12  C13 UNL     1      33.661   6.862  45.952  1.00  0.00     0.151 C 
BRANCH  12  13
HETATM   13  N3  UNL     1      33.400   5.649  45.244  1.00  0.00    -0.407 N 
BRANCH  13  14
HETATM   14  C14 UNL     1      32.939   5.774  43.908  1.00  0.00     0.132 C 
BRANCH  14  15
HETATM   15  C15 UNL     1      33.953   5.133  42.959  1.00  0.00     0.134 C 
HETATM   16 CL1  UNL     1      33.141   4.180  41.705  1.00  0.00    -0.129 Cl
ENDBRANCH  14  15
ENDBRANCH  13  14
BRANCH  13  17
HETATM   17  C16 UNL     1      34.343   4.613  45.505  1.00  0.00     0.132 C 
BRANCH  17  18
HETATM   18  C17 UNL     1      33.846   3.567  46.466  1.00  0.00     0.134 C 
HETATM   19 CL2  UNL     1      32.059   3.474  46.358  1.00  0.00    -0.129 Cl
ENDBRANCH  17  18
ENDBRANCH  13  17
ENDBRANCH  12  13
ENDBRANCH  10  12
ENDBRANCH   4   7
BRANCH   1  20
HETATM   20  C7  UNL     1      26.279   5.120  49.155  1.00  0.00     0.036 A 
HETATM   21  C6  UNL     1      25.077   5.696  48.733  1.00  0.00     0.030 A 
HETATM   22  C5  UNL     1      23.872   5.037  48.717  1.00  0.00     0.010 A 
HETATM   23  C4  UNL     1      23.891   3.730  49.153  1.00  0.00    -0.055 A 
HETATM   24  C20 UNL     1      25.036   3.094  49.583  1.00  0.00     0.010 A 
HETATM   25  C19 UNL     1      26.213   3.816  49.572  1.00  0.00     0.030 A 
BRANCH  23  26
HETATM   26  C2  UNL     1      22.609   2.970  49.156  1.00  0.00     0.010 C 
HETATM   27  C1  UNL     1      22.376   2.340  47.806  1.00  0.00     0.015 C 
HETATM   28  C3  UNL     1      22.639   1.887  50.199  1.00  0.00     0.015 C 
ENDBRANCH  23  26
ENDBRANCH   1  20
TORSDOF 9
ENDMDL
MODEL 7
REMARK VINA RESULT:      -6.9      3.089      4.190
REMARK  9 active torsions:
REMARK  status: ('A' for Active; 'I' for Inactive)
REMARK    1  A    between atoms: C2_2  and  C4_4 
REMARK    2  A    between atoms: C7_7  and  N1_8 
REMARK       I    between atoms: N1_8  and  C8_9 
REMARK       I    between atoms: C8_9  and  N2_11 
REMARK    3  A    between atoms: N2_11  and  C9_12 
REMARK    4  A    between atoms: C12_15  and  C13_16 
REMARK    5  A    between atoms: C13_16  and  N3_17 
REMARK    6  A    between atoms: N3_17  and  C14_18 
REMARK    7  A    between atoms: N3_17  and  C16_21 
REMARK    8  A    between atoms: C14_18  and  C15_19 
REMARK    9  A    between atoms: C16_21  and  C17_22 
ROOT
HETATM    1  N1  UNL     1      26.010   3.190  51.576  1.00  0.00    -0.309 N 
HETATM    2  C8  UNL     1      26.142   4.043  50.448  1.00  0.00     0.325 C 
HETATM    3  O1  UNL     1      26.957   3.827  49.533  1.00  0.00    -0.247 OA
HETATM    4  N2  UNL     1      25.263   5.140  50.478  1.00  0.00    -0.309 N 
HETATM    5  H10 UNL     1      25.349   3.319  52.368  1.00  0.00     0.170 HD
HETATM    6  H11 UNL     1      24.560   5.368  51.223  1.00  0.00     0.170 HD
ENDROOT
BRANCH   4   7
HETATM    7  C9  UNL     1      25.286   6.070  49.411  1.00  0.00     0.033 A 
HETATM    8  C10 UNL     1      24.392   6.035  48.444  1.00  0.00     0.007 A 
HETATM    9  C11 UNL     1      24.608   7.109  47.424  1.00  0.00     0.065 A 
HETATM   10  C12 UNL     1      25.794   7.845  47.913  1.00  0.00    -0.057 A 
HETATM   11  C18 UNL     1      26.113   7.189  49.040  1.00  0.00     0.034 A 
BRANCH  10  12
HETATM   12  C13 UNL     1      26.616   9.009  47.521  1.00  0.00     0.151 C 
BRANCH  12  13
HETATM   13  N3  UNL     1      28.023   8.794  47.638  1.00  0.00    -0.407 N 
BRANCH  13  14
HETATM   14  C14 UNL     1      28.551   7.648  46.991  1.00  0.00     0.132 C 
BRANCH  14  15
HETATM   15  C15 UNL     1      29.722   7.097  47.808  1.00  0.00     0.134 C 
HETATM   16 CL1  UNL     1      29.620   5.335  47.966  1.00  0.00    -0.129 Cl
ENDBRANCH  14  15
ENDBRANCH  13  14
BRANCH  13  17
HETATM   17  C16 UNL     1      28.798   9.987  47.567  1.00  0.00     0.132 C 
BRANCH  17  18
HETATM   18  C17 UNL     1      28.907  10.719  48.877  1.00  0.00     0.134 C 
HETATM   19 CL2  UNL     1      30.627  11.117  49.186  1.00  0.00    -0.129 Cl
ENDBRANCH  17  18
ENDBRANCH  13  17
ENDBRANCH  12  13
ENDBRANCH  10  12
ENDBRANCH   4   7
BRANCH   1  20
HETATM   20  C7  UNL     1      26.610   1.996  52.051  1.00  0.00     0.036 A 
HETATM   21  C6  UNL     1      27.729   2.137  52.877  1.00  0.00     0.030 A 
HETATM   22  C5  UNL     1      28.423   1.082  53.418  1.00  0.00     0.010 A 
HETATM   23  C4  UNL     1      27.957  -0.175  53.102  1.00  0.00    -0.055 A 
HETATM   24  C20 UNL     1      26.861  -0.394  52.296  1.00  0.00     0.010 A 
HETATM   25  C19 UNL     1      26.210   0.712  51.786  1.00  0.00     0.030 A 
BRANCH  23  26
HETATM   26  C2  UNL     1      28.676  -1.355  53.664  1.00  0.00     0.010 C 
HETATM   27  C1  UNL     1      28.424  -2.571  52.809  1.00  0.00     0.015 C 
HETATM   28  C3  UNL     1      30.156  -1.095  53.718  1.00  0.00     0.015 C 
ENDBRANCH  23  26
ENDBRANCH   1  20
TORSDOF 9
ENDMDL
MODEL 8
REMARK VINA RESULT:      -6.8      4.403     10.675
REMARK  9 active torsions:
REMARK  status: ('A' for Active; 'I' for Inactive)
REMARK    1  A    between atoms: C2_2  and  C4_4 
REMARK    2  A    between atoms: C7_7  and  N1_8 
REMARK       I    between atoms: N1_8  and  C8_9 
REMARK       I    between atoms: C8_9  and  N2_11 
REMARK    3  A    between atoms: N2_11  and  C9_12 
REMARK    4  A    between atoms: C12_15  and  C13_16 
REMARK    5  A    between atoms: C13_16  and  N3_17 
REMARK    6  A    between atoms: N3_17  and  C14_18 
REMARK    7  A    between atoms: N3_17  and  C16_21 
REMARK    8  A    between atoms: C14_18  and  C15_19 
REMARK    9  A    between atoms: C16_21  and  C17_22 
ROOT
HETATM    1  N1  UNL     1      25.694   5.732  50.251  1.00  0.00    -0.309 N 
HETATM    2  C8  UNL     1      25.256   4.389  50.397  1.00  0.00     0.325 C 
HETATM    3  O1  UNL     1      25.205   3.591  49.443  1.00  0.00    -0.247 OA
HETATM    4  N2  UNL     1      24.892   4.065  51.716  1.00  0.00    -0.309 N 
HETATM    5  H10 UNL     1      25.759   6.442  51.009  1.00  0.00     0.170 HD
HETATM    6  H11 UNL     1      24.916   4.698  52.553  1.00  0.00     0.170 HD
ENDROOT
BRANCH   4   7
HETATM    7  C9  UNL     1      24.439   2.756  52.004  1.00  0.00     0.033 A 
HETATM    8  C10 UNL     1      25.227   1.858  52.559  1.00  0.00     0.007 A 
HETATM    9  C11 UNL     1      24.541   0.545  52.770  1.00  0.00     0.065 A 
HETATM   10  C12 UNL     1      23.169   0.763  52.261  1.00  0.00    -0.057 A 
HETATM   11  C18 UNL     1      23.200   2.039  51.846  1.00  0.00     0.034 A 
BRANCH  10  12
HETATM   12  C13 UNL     1      21.903   0.011  52.128  1.00  0.00     0.151 C 
BRANCH  12  13
HETATM   13  N3  UNL     1      20.845   0.503  52.952  1.00  0.00    -0.407 N 
BRANCH  13  14
HETATM   14  C14 UNL     1      19.536   0.459  52.406  1.00  0.00     0.132 C 
BRANCH  14  15
HETATM   15  C15 UNL     1      19.366   1.597  51.400  1.00  0.00     0.134 C 
HETATM   16 CL1  UNL     1      19.802   3.157  52.118  1.00  0.00    -0.129 Cl
ENDBRANCH  14  15
ENDBRANCH  13  14
BRANCH  13  17
HETATM   17  C16 UNL     1      20.979   0.166  54.330  1.00  0.00     0.132 C 
BRANCH  17  18
HETATM   18  C17 UNL     1      21.298  -1.284  54.571  1.00  0.00     0.134 C 
HETATM   19 CL2  UNL     1      22.893  -1.408  55.378  1.00  0.00    -0.129 Cl
ENDBRANCH  17  18
ENDBRANCH  13  17
ENDBRANCH  12  13
ENDBRANCH  10  12
ENDBRANCH   4   7
BRANCH   1  20
HETATM   20  C7  UNL     1      26.158   6.565  49.201  1.00  0.00     0.036 A 
HETATM   21  C6  UNL     1      27.387   6.230  48.626  1.00  0.00     0.030 A 
HETATM   22  C5  UNL     1      27.974   6.934  47.603  1.00  0.00     0.010 A 
HETATM   23  C4  UNL     1      27.279   8.031  47.145  1.00  0.00    -0.055 A 
HETATM   24  C20 UNL     1      26.062   8.423  47.661  1.00  0.00     0.010 A 
HETATM   25  C19 UNL     1      25.529   7.670  48.688  1.00  0.00     0.030 A 
BRANCH  23  26
HETATM   26  C2  UNL     1      27.873   8.830  46.035  1.00  0.00     0.010 C 
HETATM   27  C1  UNL     1      27.373   8.324  44.706  1.00  0.00     0.015 C 
HETATM   28  C3  UNL     1      27.505  10.282  46.173  1.00  0.00     0.015 C 
ENDBRANCH  23  26
ENDBRANCH   1  20
TORSDOF 9
ENDMDL
MODEL 9
REMARK VINA RESULT:      -6.8      3.823     10.167
REMARK  9 active torsions:
REMARK  status: ('A' for Active; 'I' for Inactive)
REMARK    1  A    between atoms: C2_2  and  C4_4 
REMARK    2  A    between atoms: C7_7  and  N1_8 
REMARK       I    between atoms: N1_8  and  C8_9 
REMARK       I    between atoms: C8_9  and  N2_11 
REMARK    3  A    between atoms: N2_11  and  C9_12 
REMARK    4  A    between atoms: C12_15  and  C13_16 
REMARK    5  A    between atoms: C13_16  and  N3_17 
REMARK    6  A    between atoms: N3_17  and  C14_18 
REMARK    7  A    between atoms: N3_17  and  C16_21 
REMARK    8  A    between atoms: C14_18  and  C15_19 
REMARK    9  A    between atoms: C16_21  and  C17_22 
ROOT
HETATM    1  N1  UNL     1      25.818   6.040  50.110  1.00  0.00    -0.309 N 
HETATM    2  C8  UNL     1      25.125   4.810  50.269  1.00  0.00     0.325 C 
HETATM    3  O1  UNL     1      24.987   3.992  49.342  1.00  0.00    -0.247 OA
HETATM    4  N2  UNL     1      24.621   4.623  51.568  1.00  0.00    -0.309 N 
HETATM    5  H10 UNL     1      25.965   6.761  50.845  1.00  0.00     0.170 HD
HETATM    6  H11 UNL     1      24.709   5.280  52.382  1.00  0.00     0.170 HD
ENDROOT
BRANCH   4   7
HETATM    7  C9  UNL     1      23.910   3.436  51.867  1.00  0.00     0.033 A 
HETATM    8  C10 UNL     1      22.594   3.389  51.819  1.00  0.00     0.007 A 
HETATM    9  C11 UNL     1      22.057   2.038  52.173  1.00  0.00     0.065 A 
HETATM   10  C12 UNL     1      23.261   1.224  52.445  1.00  0.00    -0.057 A 
HETATM   11  C18 UNL     1      24.264   2.095  52.251  1.00  0.00     0.034 A 
BRANCH  10  12
HETATM   12  C13 UNL     1      23.599  -0.165  52.821  1.00  0.00     0.151 C 
BRANCH  12  13
HETATM   13  N3  UNL     1      23.986  -0.320  54.187  1.00  0.00    -0.407 N 
BRANCH  13  14
HETATM   14  C14 UNL     1      23.143  -1.118  55.004  1.00  0.00     0.132 C 
BRANCH  14  15
HETATM   15  C15 UNL     1      21.739  -1.156  54.399  1.00  0.00     0.134 C 
HETATM   16 CL1  UNL     1      20.772   0.228  54.937  1.00  0.00    -0.129 Cl
ENDBRANCH  14  15
ENDBRANCH  13  14
BRANCH  13  17
HETATM   17  C16 UNL     1      25.390  -0.465  54.379  1.00  0.00     0.132 C 
BRANCH  17  18
HETATM   18  C17 UNL     1      26.099  -1.101  53.214  1.00  0.00     0.134 C 
HETATM   19 CL2  UNL     1      27.241   0.083  52.503  1.00  0.00    -0.129 Cl
ENDBRANCH  17  18
ENDBRANCH  13  17
ENDBRANCH  12  13
ENDBRANCH  10  12
ENDBRANCH   4   7
BRANCH   1  20
HETATM   20  C7  UNL     1      26.498   6.722  49.068  1.00  0.00     0.036 A 
HETATM   21  C6  UNL     1      27.688   6.148  48.611  1.00  0.00     0.030 A 
HETATM   22  C5  UNL     1      28.465   6.683  47.613  1.00  0.00     0.010 A 
HETATM   23  C4  UNL     1      28.010   7.856  47.054  1.00  0.00    -0.055 A 
HETATM   24  C20 UNL     1      26.848   8.481  47.450  1.00  0.00     0.010 A 
HETATM   25  C19 UNL     1      26.115   7.889  48.460  1.00  0.00     0.030 A 
BRANCH  23  26
HETATM   26  C2  UNL     1      28.818   8.478  45.965  1.00  0.00     0.010 C 
HETATM   27  C1  UNL     1      27.985   8.618  44.716  1.00  0.00     0.015 C 
HETATM   28  C3  UNL     1      29.305   9.839  46.380  1.00  0.00     0.015 C 
ENDBRANCH  23  26
ENDBRANCH   1  20
TORSDOF 9
ENDMDL
