MODEL 1
REMARK VINA RESULT:      -8.1      0.000      0.000
REMARK  6 active torsions:
REMARK  status: ('A' for Active; 'I' for Inactive)
REMARK    1  A    between atoms: C1_2  and  O2_3 
REMARK    2  A    between atoms: C1_2  and  C2_4 
REMARK    3  A    between atoms: C3_5  and  C4_6 
REMARK       I    between atoms: C4_6  and  N1_8 
REMARK    4  A    between atoms: N1_8  and  C5_9 
REMARK    5  A    between atoms: C11_15  and  N2_16 
REMARK    6  A    between atoms: N2_16  and  C12_17 
ROOT
HETATM    1  C5  UNL     1      23.756  -0.278  53.958  1.00  0.00     0.035 A 
HETATM    2  C6  UNL     1      23.007  -1.116  54.746  1.00  0.00     0.032 A 
HETATM    3  C7  UNL     1      21.655  -1.339  54.613  1.00  0.00     0.035 A 
HETATM    4  C8  UNL     1      20.977  -0.674  53.613  1.00  0.00     0.070 A 
HETATM    5  C9  UNL     1      21.703   0.176  52.805  1.00  0.00     0.024 A 
HETATM    6  C10 UNL     1      23.050   0.366  52.976  1.00  0.00     0.045 A 
HETATM    7  C11 UNL     1      20.767   0.747  51.842  1.00  0.00     0.077 A 
HETATM    8  C18 UNL     1      19.598   0.195  52.130  1.00  0.00     0.116 A 
HETATM    9  N3  UNL     1      19.636  -0.610  53.139  1.00  0.00    -0.243 NA
ENDROOT
BRANCH   1  10
HETATM   10  N1  UNL     1      25.140  -0.023  54.062  1.00  0.00    -0.324 N 
HETATM   11  C4  UNL     1      26.223  -0.650  53.403  1.00  0.00     0.245 C 
HETATM   12  O3  UNL     1      25.997  -1.578  52.594  1.00  0.00    -0.268 OA
HETATM   13  H4  UNL     1      25.481   0.726  54.701  1.00  0.00     0.169 HD
BRANCH  11  14
HETATM   14  C3  UNL     1      27.623  -0.297  53.593  1.00  0.00     0.081 C 
HETATM   15  C2  UNL     1      27.919   0.920  53.988  1.00  0.00     0.086 C 
BRANCH  15  16
HETATM   16  C1  UNL     1      29.312   1.299  54.187  1.00  0.00     0.165 C 
HETATM   17  O1  UNL     1      29.595   2.249  54.985  1.00  0.00    -0.647 OA
BRANCH  16  18
HETATM   18  O2  UNL     1      30.347   0.649  53.529  1.00  0.00    -0.773 OA
HETATM   19  H1  UNL     1      30.980   1.152  52.920  1.00  0.00     0.167 HD
ENDBRANCH  16  18
ENDBRANCH  15  16
ENDBRANCH  11  14
ENDBRANCH   1  10
BRANCH   7  20
HETATM   20  N2  UNL     1      21.071   1.692  50.824  1.00  0.00    -0.354 N 
HETATM   21  H8  UNL     1      20.640   1.763  49.881  1.00  0.00     0.166 HD
BRANCH  20  22
HETATM   22  C12 UNL     1      22.053   2.713  50.964  1.00  0.00     0.033 A 
HETATM   23  C13 UNL     1      21.622   3.675  51.876  1.00  0.00     0.029 A 
HETATM   24  C14 UNL     1      22.415   4.784  52.186  1.00  0.00     0.004 A 
HETATM   25  C15 UNL     1      23.655   4.891  51.546  1.00  0.00     0.019 A 
HETATM   26  C16 UNL     1      24.073   3.930  50.642  1.00  0.00     0.013 A 
HETATM   27 BR1  UNL     1      25.751   4.023  49.742  1.00  0.00    -0.051 Br
HETATM   28  C17 UNL     1      23.280   2.840  50.347  1.00  0.00     0.048 A 
ENDBRANCH  20  22
ENDBRANCH   7  20
TORSDOF 6
ENDMDL
MODEL 2
REMARK VINA RESULT:      -8.1      2.810      4.170
REMARK  6 active torsions:
REMARK  status: ('A' for Active; 'I' for Inactive)
REMARK    1  A    between atoms: C1_2  and  O2_3 
REMARK    2  A    between atoms: C1_2  and  C2_4 
REMARK    3  A    between atoms: C3_5  and  C4_6 
REMARK       I    between atoms: C4_6  and  N1_8 
REMARK    4  A    between atoms: N1_8  and  C5_9 
REMARK    5  A    between atoms: C11_15  and  N2_16 
REMARK    6  A    between atoms: N2_16  and  C12_17 
ROOT
HETATM    1  C5  UNL     1      24.074   1.671  52.959  1.00  0.00     0.035 A 
HETATM    2  C6  UNL     1      22.796   1.191  52.818  1.00  0.00     0.032 A 
HETATM    3  C7  UNL     1      21.706   1.932  52.418  1.00  0.00     0.035 A 
HETATM    4  C8  UNL     1      21.892   3.269  52.133  1.00  0.00     0.070 A 
HETATM    5  C9  UNL     1      23.167   3.779  52.266  1.00  0.00     0.024 A 
HETATM    6  C10 UNL     1      24.221   3.001  52.667  1.00  0.00     0.045 A 
HETATM    7  C11 UNL     1      23.095   5.192  51.910  1.00  0.00     0.077 A 
HETATM    8  C18 UNL     1      21.828   5.401  51.584  1.00  0.00     0.116 A 
HETATM    9  N3  UNL     1      21.080   4.357  51.705  1.00  0.00    -0.243 NA
ENDROOT
BRANCH   1  10
HETATM   10  N1  UNL     1      25.216   0.946  53.364  1.00  0.00    -0.324 N 
HETATM   11  C4  UNL     1      26.394   0.644  52.643  1.00  0.00     0.245 C 
HETATM   12  O3  UNL     1      26.514   1.046  51.464  1.00  0.00    -0.268 OA
HETATM   13  H4  UNL     1      25.260   0.547  54.326  1.00  0.00     0.169 HD
BRANCH  11  14
HETATM   14  C3  UNL     1      27.515  -0.119  53.172  1.00  0.00     0.081 C 
HETATM   15  C2  UNL     1      27.676  -1.362  52.777  1.00  0.00     0.086 C 
BRANCH  15  16
HETATM   16  C1  UNL     1      28.790  -2.148  53.290  1.00  0.00     0.165 C 
HETATM   17  O1  UNL     1      29.875  -1.563  53.609  1.00  0.00    -0.647 OA
BRANCH  16  18
HETATM   18  O2  UNL     1      28.704  -3.524  53.444  1.00  0.00    -0.773 OA
HETATM   19  H1  UNL     1      28.010  -3.942  54.052  1.00  0.00     0.167 HD
ENDBRANCH  16  18
ENDBRANCH  15  16
ENDBRANCH  11  14
ENDBRANCH   1  10
BRANCH   7  20
HETATM   20  N2  UNL     1      24.171   6.122  51.919  1.00  0.00    -0.354 N 
HETATM   21  H8  UNL     1      24.617   6.562  52.748  1.00  0.00     0.166 HD
BRANCH  20  22
HETATM   22  C12 UNL     1      24.811   6.599  50.740  1.00  0.00     0.033 A 
HETATM   23  C13 UNL     1      25.436   5.547  50.072  1.00  0.00     0.029 A 
HETATM   24  C14 UNL     1      26.136   5.761  48.880  1.00  0.00     0.004 A 
HETATM   25  C15 UNL     1      26.185   7.069  48.386  1.00  0.00     0.019 A 
HETATM   26  C16 UNL     1      25.561   8.106  49.057  1.00  0.00     0.013 A 
HETATM   27 BR1  UNL     1      25.594   9.906  48.431  1.00  0.00    -0.051 Br
HETATM   28  C17 UNL     1      24.874   7.879  50.232  1.00  0.00     0.048 A 
ENDBRANCH  20  22
ENDBRANCH   7  20
TORSDOF 6
ENDMDL
MODEL 3
REMARK VINA RESULT:      -8.1      3.843      6.293
REMARK  6 active torsions:
REMARK  status: ('A' for Active; 'I' for Inactive)
REMARK    1  A    between atoms: C1_2  and  O2_3 
REMARK    2  A    between atoms: C1_2  and  C2_4 
REMARK    3  A    between atoms: C3_5  and  C4_6 
REMARK       I    between atoms: C4_6  and  N1_8 
REMARK    4  A    between atoms: N1_8  and  C5_9 
REMARK    5  A    between atoms: C11_15  and  N2_16 
REMARK    6  A    between atoms: N2_16  and  C12_17 
ROOT
HETATM    1  C5  UNL     1      23.942   3.457  49.607  1.00  0.00     0.035 A 
HETATM    2  C6  UNL     1      22.937   3.114  48.737  1.00  0.00     0.032 A 
HETATM    3  C7  UNL     1      22.006   2.121  48.945  1.00  0.00     0.035 A 
HETATM    4  C8  UNL     1      22.071   1.398  50.118  1.00  0.00     0.070 A 
HETATM    5  C9  UNL     1      23.070   1.720  51.012  1.00  0.00     0.024 A 
HETATM    6  C10 UNL     1      23.975   2.718  50.761  1.00  0.00     0.045 A 
HETATM    7  C11 UNL     1      22.921   0.822  52.153  1.00  0.00     0.077 A 
HETATM    8  C18 UNL     1      21.867   0.074  51.867  1.00  0.00     0.116 A 
HETATM    9  N3  UNL     1      21.342   0.331  50.716  1.00  0.00    -0.243 NA
ENDROOT
BRANCH   1  10
HETATM   10  N1  UNL     1      24.913   4.465  49.432  1.00  0.00    -0.324 N 
HETATM   11  C4  UNL     1      24.976   5.762  49.992  1.00  0.00     0.245 C 
HETATM   12  O3  UNL     1      24.070   6.142  50.767  1.00  0.00    -0.268 OA
HETATM   13  H4  UNL     1      25.731   4.292  48.810  1.00  0.00     0.169 HD
BRANCH  11  14
HETATM   14  C3  UNL     1      26.038   6.724  49.734  1.00  0.00     0.081 C 
HETATM   15  C2  UNL     1      25.996   7.889  50.340  1.00  0.00     0.086 C 
BRANCH  15  16
HETATM   16  C1  UNL     1      27.047   8.869  50.100  1.00  0.00     0.165 C 
HETATM   17  O1  UNL     1      27.385   9.146  48.904  1.00  0.00    -0.647 OA
BRANCH  16  18
HETATM   18  O2  UNL     1      27.694   9.516  51.143  1.00  0.00    -0.773 OA
HETATM   19  H1  UNL     1      28.403  10.217  50.968  1.00  0.00     0.167 HD
ENDBRANCH  16  18
ENDBRANCH  15  16
ENDBRANCH  11  14
ENDBRANCH   1  10
BRANCH   7  20
HETATM   20  N2  UNL     1      23.746   0.782  53.311  1.00  0.00    -0.354 N 
HETATM   21  H8  UNL     1      23.450   0.898  54.301  1.00  0.00     0.166 HD
BRANCH  20  22
HETATM   22  C12 UNL     1      25.153   0.568  53.270  1.00  0.00     0.033 A 
HETATM   23  C13 UNL     1      25.431  -0.735  52.861  1.00  0.00     0.029 A 
HETATM   24  C14 UNL     1      26.748  -1.189  52.741  1.00  0.00     0.004 A 
HETATM   25  C15 UNL     1      27.773  -0.288  53.048  1.00  0.00     0.019 A 
HETATM   26  C16 UNL     1      27.486   1.004  53.453  1.00  0.00     0.013 A 
HETATM   27 BR1  UNL     1      28.840   2.274  53.883  1.00  0.00    -0.051 Br
HETATM   28  C17 UNL     1      26.181   1.438  53.566  1.00  0.00     0.048 A 
ENDBRANCH  20  22
ENDBRANCH   7  20
TORSDOF 6
ENDMDL
MODEL 4
REMARK VINA RESULT:      -8.0      5.663      8.088
REMARK  6 active torsions:
REMARK  status: ('A' for Active; 'I' for Inactive)
REMARK    1  A    between atoms: C1_2  and  O2_3 
REMARK    2  A    between atoms: C1_2  and  C2_4 
REMARK    3  A    between atoms: C3_5  and  C4_6 
REMARK       I    between atoms: C4_6  and  N1_8 
REMARK    4  A    between atoms: N1_8  and  C5_9 
REMARK    5  A    between atoms: C11_15  and  N2_16 
REMARK    6  A    between atoms: N2_16  and  C12_17 
ROOT
HETATM    1  C5  UNL     1      28.890   5.807  48.100  1.00  0.00     0.035 A 
HETATM    2  C6  UNL     1      28.421   7.059  47.791  1.00  0.00     0.032 A 
HETATM    3  C7  UNL     1      27.122   7.486  47.951  1.00  0.00     0.035 A 
HETATM    4  C8  UNL     1      26.199   6.597  48.462  1.00  0.00     0.070 A 
HETATM    5  C9  UNL     1      26.641   5.331  48.783  1.00  0.00     0.024 A 
HETATM    6  C10 UNL     1      27.946   4.952  48.606  1.00  0.00     0.045 A 
HETATM    7  C11 UNL     1      25.488   4.598  49.295  1.00  0.00     0.077 A 
HETATM    8  C18 UNL     1      24.486   5.464  49.260  1.00  0.00     0.116 A 
HETATM    9  N3  UNL     1      24.811   6.617  48.779  1.00  0.00    -0.243 NA
ENDROOT
BRANCH   1  10
HETATM   10  N1  UNL     1      30.210   5.331  47.952  1.00  0.00    -0.324 N 
HETATM   11  C4  UNL     1      31.393   5.734  48.616  1.00  0.00     0.245 C 
HETATM   12  O3  UNL     1      31.337   6.642  49.474  1.00  0.00    -0.268 OA
HETATM   13  H4  UNL     1      30.412   4.571  47.268  1.00  0.00     0.169 HD
BRANCH  11  14
HETATM   14  C3  UNL     1      32.711   5.164  48.376  1.00  0.00     0.081 C 
HETATM   15  C2  UNL     1      32.794   3.980  47.812  1.00  0.00     0.086 C 
BRANCH  15  16
HETATM   16  C1  UNL     1      34.101   3.387  47.560  1.00  0.00     0.165 C 
HETATM   17  O1  UNL     1      34.387   2.976  46.389  1.00  0.00    -0.647 OA
BRANCH  16  18
HETATM   18  O2  UNL     1      35.050   3.258  48.563  1.00  0.00    -0.773 OA
HETATM   19  H1  UNL     1      35.680   4.017  48.792  1.00  0.00     0.167 HD
ENDBRANCH  16  18
ENDBRANCH  15  16
ENDBRANCH  11  14
ENDBRANCH   1  10
BRANCH   7  20
HETATM   20  N2  UNL     1      25.472   3.245  49.733  1.00  0.00    -0.354 N 
HETATM   21  H8  UNL     1      25.252   2.402  49.167  1.00  0.00     0.166 HD
BRANCH  20  22
HETATM   22  C12 UNL     1      25.768   2.845  51.067  1.00  0.00     0.033 A 
HETATM   23  C13 UNL     1      24.631   2.952  51.866  1.00  0.00     0.029 A 
HETATM   24  C14 UNL     1      24.668   2.614  53.223  1.00  0.00     0.004 A 
HETATM   25  C15 UNL     1      25.886   2.166  53.745  1.00  0.00     0.019 A 
HETATM   26  C16 UNL     1      27.008   2.064  52.943  1.00  0.00     0.013 A 
HETATM   27 BR1  UNL     1      28.693   1.461  53.599  1.00  0.00    -0.051 Br
HETATM   28  C17 UNL     1      26.958   2.401  51.605  1.00  0.00     0.048 A 
ENDBRANCH  20  22
ENDBRANCH   7  20
TORSDOF 6
ENDMDL
MODEL 5
REMARK VINA RESULT:      -7.7      2.619      4.821
REMARK  6 active torsions:
REMARK  status: ('A' for Active; 'I' for Inactive)
REMARK    1  A    between atoms: C1_2  and  O2_3 
REMARK    2  A    between atoms: C1_2  and  C2_4 
REMARK    3  A    between atoms: C3_5  and  C4_6 
REMARK       I    between atoms: C4_6  and  N1_8 
REMARK    4  A    between atoms: N1_8  and  C5_9 
REMARK    5  A    between atoms: C11_15  and  N2_16 
REMARK    6  A    between atoms: N2_16  and  C12_17 
ROOT
HETATM    1  C5  UNL     1      25.626   2.613  50.841  1.00  0.00     0.035 A 
HETATM    2  C6  UNL     1      25.687   3.953  50.553  1.00  0.00     0.032 A 
HETATM    3  C7  UNL     1      24.647   4.712  50.067  1.00  0.00     0.035 A 
HETATM    4  C8  UNL     1      23.434   4.094  49.841  1.00  0.00     0.070 A 
HETATM    5  C9  UNL     1      23.343   2.747  50.122  1.00  0.00     0.024 A 
HETATM    6  C10 UNL     1      24.407   2.033  50.606  1.00  0.00     0.045 A 
HETATM    7  C11 UNL     1      21.978   2.341  49.802  1.00  0.00     0.077 A 
HETATM    8  C18 UNL     1      21.377   3.447  49.389  1.00  0.00     0.116 A 
HETATM    9  N3  UNL     1      22.149   4.481  49.366  1.00  0.00    -0.243 NA
ENDROOT
BRANCH   1  10
HETATM   10  N1  UNL     1      26.666   1.801  51.341  1.00  0.00    -0.324 N 
HETATM   11  C4  UNL     1      26.693   0.976  52.489  1.00  0.00     0.245 C 
HETATM   12  O3  UNL     1      25.680   0.907  53.221  1.00  0.00    -0.268 OA
HETATM   13  H4  UNL     1      27.577   1.758  50.835  1.00  0.00     0.169 HD
BRANCH  11  14
HETATM   14  C3  UNL     1      27.837   0.177  52.907  1.00  0.00     0.081 C 
HETATM   15  C2  UNL     1      27.715  -1.131  52.938  1.00  0.00     0.086 C 
BRANCH  15  16
HETATM   16  C1  UNL     1      28.844  -1.954  53.351  1.00  0.00     0.165 C 
HETATM   17  O1  UNL     1      29.947  -1.396  53.657  1.00  0.00    -0.647 OA
BRANCH  16  18
HETATM   18  O2  UNL     1      28.752  -3.337  53.424  1.00  0.00    -0.773 OA
HETATM   19  H1  UNL     1      29.037  -3.924  52.650  1.00  0.00     0.167 HD
ENDBRANCH  16  18
ENDBRANCH  15  16
ENDBRANCH  11  14
ENDBRANCH   1  10
BRANCH   7  20
HETATM   20  N2  UNL     1      21.435   1.031  49.919  1.00  0.00    -0.354 N 
HETATM   21  H8  UNL     1      21.307   0.332  49.162  1.00  0.00     0.166 HD
BRANCH  20  22
HETATM   22  C12 UNL     1      20.973   0.477  51.146  1.00  0.00     0.033 A 
HETATM   23  C13 UNL     1      19.581   0.415  51.153  1.00  0.00     0.029 A 
HETATM   24  C14 UNL     1      18.886  -0.096  52.255  1.00  0.00     0.004 A 
HETATM   25  C15 UNL     1      19.640  -0.540  53.346  1.00  0.00     0.019 A 
HETATM   26  C16 UNL     1      21.023  -0.473  53.328  1.00  0.00     0.013 A 
HETATM   27 BR1  UNL     1      22.101  -1.064  54.785  1.00  0.00    -0.051 Br
HETATM   28  C17 UNL     1      21.695   0.032  52.234  1.00  0.00     0.048 A 
ENDBRANCH  20  22
ENDBRANCH   7  20
TORSDOF 6
ENDMDL
MODEL 6
REMARK VINA RESULT:      -7.6      4.633      6.886
REMARK  6 active torsions:
REMARK  status: ('A' for Active; 'I' for Inactive)
REMARK    1  A    between atoms: C1_2  and  O2_3 
REMARK    2  A    between atoms: C1_2  and  C2_4 
REMARK    3  A    between atoms: C3_5  and  C4_6 
REMARK       I    between atoms: C4_6  and  N1_8 
REMARK    4  A    between atoms: N1_8  and  C5_9 
REMARK    5  A    between atoms: C11_15  and  N2_16 
REMARK    6  A    between atoms: N2_16  and  C12_17 
ROOT
HETATM    1  C5  UNL     1      25.407   6.205  50.097  1.00  0.00     0.035 A 
HETATM    2  C6  UNL     1      24.623   7.279  50.439  1.00  0.00     0.032 A 
HETATM    3  C7  UNL     1      23.323   7.206  50.886  1.00  0.00     0.035 A 
HETATM    4  C8  UNL     1      22.740   5.961  51.007  1.00  0.00     0.070 A 
HETATM    5  C9  UNL     1      23.504   4.864  50.670  1.00  0.00     0.024 A 
HETATM    6  C10 UNL     1      24.796   4.986  50.229  1.00  0.00     0.045 A 
HETATM    7  C11 UNL     1      22.668   3.686  50.882  1.00  0.00     0.077 A 
HETATM    8  C18 UNL     1      21.516   4.159  51.334  1.00  0.00     0.116 A 
HETATM    9  N3  UNL     1      21.476   5.447  51.412  1.00  0.00    -0.243 NA
ENDROOT
BRANCH   1  10
HETATM   10  N1  UNL     1      26.740   6.237  49.636  1.00  0.00    -0.324 N 
HETATM   11  C4  UNL     1      27.260   6.728  48.416  1.00  0.00     0.245 C 
HETATM   12  O3  UNL     1      26.481   7.220  47.569  1.00  0.00    -0.268 OA
HETATM   13  H4  UNL     1      27.504   5.859  50.236  1.00  0.00     0.169 HD
BRANCH  11  14
HETATM   14  C3  UNL     1      28.668   6.706  48.048  1.00  0.00     0.081 C 
HETATM   15  C2  UNL     1      29.346   5.593  48.212  1.00  0.00     0.086 C 
BRANCH  15  16
HETATM   16  C1  UNL     1      30.758   5.544  47.850  1.00  0.00     0.165 C 
HETATM   17  O1  UNL     1      31.187   6.277  46.902  1.00  0.00    -0.647 OA
BRANCH  16  18
HETATM   18  O2  UNL     1      31.653   4.719  48.515  1.00  0.00    -0.773 OA
HETATM   19  H1  UNL     1      32.550   4.481  48.109  1.00  0.00     0.167 HD
ENDBRANCH  16  18
ENDBRANCH  15  16
ENDBRANCH  11  14
ENDBRANCH   1  10
BRANCH   7  20
HETATM   20  N2  UNL     1      23.037   2.333  50.648  1.00  0.00    -0.354 N 
HETATM   21  H8  UNL     1      23.103   1.847  49.732  1.00  0.00     0.166 HD
BRANCH  20  22
HETATM   22  C12 UNL     1      23.383   1.420  51.683  1.00  0.00     0.033 A 
HETATM   23  C13 UNL     1      24.769   1.340  51.813  1.00  0.00     0.029 A 
HETATM   24  C14 UNL     1      25.359   0.505  52.768  1.00  0.00     0.004 A 
HETATM   25  C15 UNL     1      24.506  -0.245  53.585  1.00  0.00     0.019 A 
HETATM   26  C16 UNL     1      23.132  -0.158  53.448  1.00  0.00     0.013 A 
HETATM   27 BR1  UNL     1      21.923  -1.155  54.533  1.00  0.00    -0.051 Br
HETATM   28  C17 UNL     1      22.564   0.670  52.502  1.00  0.00     0.048 A 
ENDBRANCH  20  22
ENDBRANCH   7  20
TORSDOF 6
ENDMDL
MODEL 7
REMARK VINA RESULT:      -7.5      2.923      5.064
REMARK  6 active torsions:
REMARK  status: ('A' for Active; 'I' for Inactive)
REMARK    1  A    between atoms: C1_2  and  O2_3 
REMARK    2  A    between atoms: C1_2  and  C2_4 
REMARK    3  A    between atoms: C3_5  and  C4_6 
REMARK       I    between atoms: C4_6  and  N1_8 
REMARK    4  A    between atoms: N1_8  and  C5_9 
REMARK    5  A    between atoms: C11_15  and  N2_16 
REMARK    6  A    between atoms: N2_16  and  C12_17 
ROOT
HETATM    1  C5  UNL     1      25.305   3.656  50.441  1.00  0.00     0.035 A 
HETATM    2  C6  UNL     1      25.351   4.907  49.878  1.00  0.00     0.032 A 
HETATM    3  C7  UNL     1      24.463   5.396  48.947  1.00  0.00     0.035 A 
HETATM    4  C8  UNL     1      23.434   4.576  48.530  1.00  0.00     0.070 A 
HETATM    5  C9  UNL     1      23.362   3.313  49.079  1.00  0.00     0.024 A 
HETATM    6  C10 UNL     1      24.271   2.871  50.005  1.00  0.00     0.045 A 
HETATM    7  C11 UNL     1      22.203   2.658  48.481  1.00  0.00     0.077 A 
HETATM    8  C18 UNL     1      21.681   3.561  47.664  1.00  0.00     0.116 A 
HETATM    9  N3  UNL     1      22.339   4.671  47.625  1.00  0.00    -0.243 NA
ENDROOT
BRANCH   1  10
HETATM   10  N1  UNL     1      26.194   3.119  51.397  1.00  0.00    -0.324 N 
HETATM   11  C4  UNL     1      25.919   2.537  52.656  1.00  0.00     0.245 C 
HETATM   12  O3  UNL     1      24.734   2.452  53.049  1.00  0.00    -0.268 OA
HETATM   13  H4  UNL     1      27.219   3.122  51.208  1.00  0.00     0.169 HD
BRANCH  11  14
HETATM   14  C3  UNL     1      26.930   2.013  53.564  1.00  0.00     0.081 C 
HETATM   15  C2  UNL     1      27.971   1.392  53.058  1.00  0.00     0.086 C 
BRANCH  15  16
HETATM   16  C1  UNL     1      28.998   0.858  53.944  1.00  0.00     0.165 C 
HETATM   17  O1  UNL     1      28.748   0.729  55.186  1.00  0.00    -0.647 OA
BRANCH  16  18
HETATM   18  O2  UNL     1      30.247   0.483  53.472  1.00  0.00    -0.773 OA
HETATM   19  H1  UNL     1      31.032   1.123  53.495  1.00  0.00     0.167 HD
ENDBRANCH  16  18
ENDBRANCH  15  16
ENDBRANCH  11  14
ENDBRANCH   1  10
BRANCH   7  20
HETATM   20  N2  UNL     1      21.754   1.333  48.739  1.00  0.00    -0.354 N 
HETATM   21  H8  UNL     1      21.818   0.511  48.106  1.00  0.00     0.166 HD
BRANCH  20  22
HETATM   22  C12 UNL     1      21.126   0.936  49.953  1.00  0.00     0.033 A 
HETATM   23  C13 UNL     1      19.739   1.005  49.824  1.00  0.00     0.029 A 
HETATM   24  C14 UNL     1      18.897   0.663  50.886  1.00  0.00     0.004 A 
HETATM   25  C15 UNL     1      19.497   0.250  52.080  1.00  0.00     0.019 A 
HETATM   26  C16 UNL     1      20.875   0.186  52.198  1.00  0.00     0.013 A 
HETATM   27 BR1  UNL     1      21.748  -0.370  53.799  1.00  0.00    -0.051 Br
HETATM   28  C17 UNL     1      21.694   0.526  51.141  1.00  0.00     0.048 A 
ENDBRANCH  20  22
ENDBRANCH   7  20
TORSDOF 6
ENDMDL
MODEL 8
REMARK VINA RESULT:      -7.5      3.217      6.208
REMARK  6 active torsions:
REMARK  status: ('A' for Active; 'I' for Inactive)
REMARK    1  A    between atoms: C1_2  and  O2_3 
REMARK    2  A    between atoms: C1_2  and  C2_4 
REMARK    3  A    between atoms: C3_5  and  C4_6 
REMARK       I    between atoms: C4_6  and  N1_8 
REMARK    4  A    between atoms: N1_8  and  C5_9 
REMARK    5  A    between atoms: C11_15  and  N2_16 
REMARK    6  A    between atoms: N2_16  and  C12_17 
ROOT
HETATM    1  C5  UNL     1      23.935  -0.082  53.610  1.00  0.00     0.035 A 
HETATM    2  C6  UNL     1      24.874  -0.747  54.357  1.00  0.00     0.032 A 
HETATM    3  C7  UNL     1      26.214  -0.435  54.416  1.00  0.00     0.035 A 
HETATM    4  C8  UNL     1      26.671   0.631  53.669  1.00  0.00     0.070 A 
HETATM    5  C9  UNL     1      25.749   1.319  52.908  1.00  0.00     0.024 A 
HETATM    6  C10 UNL     1      24.424   0.970  52.882  1.00  0.00     0.045 A 
HETATM    7  C11 UNL     1      26.477   2.384  52.224  1.00  0.00     0.077 A 
HETATM    8  C18 UNL     1      27.731   2.262  52.634  1.00  0.00     0.116 A 
HETATM    9  N3  UNL     1      27.921   1.274  53.443  1.00  0.00    -0.243 NA
ENDROOT
BRANCH   1  10
HETATM   10  N1  UNL     1      22.556  -0.370  53.523  1.00  0.00    -0.324 N 
HETATM   11  C4  UNL     1      21.745  -1.158  54.373  1.00  0.00     0.245 C 
HETATM   12  O3  UNL     1      22.257  -1.715  55.370  1.00  0.00    -0.268 OA
HETATM   13  H4  UNL     1      21.993   0.026  52.740  1.00  0.00     0.169 HD
BRANCH  11  14
HETATM   14  C3  UNL     1      20.320  -1.385  54.179  1.00  0.00     0.081 C 
HETATM   15  C2  UNL     1      19.697  -0.716  53.236  1.00  0.00     0.086 C 
BRANCH  15  16
HETATM   16  C1  UNL     1      18.270  -0.925  53.020  1.00  0.00     0.165 C 
HETATM   17  O1  UNL     1      17.782  -0.761  51.856  1.00  0.00    -0.647 OA
BRANCH  16  18
HETATM   18  O2  UNL     1      17.423  -1.302  54.052  1.00  0.00    -0.773 OA
HETATM   19  H1  UNL     1      16.447  -1.508  53.882  1.00  0.00     0.167 HD
ENDBRANCH  16  18
ENDBRANCH  15  16
ENDBRANCH  11  14
ENDBRANCH   1  10
BRANCH   7  20
HETATM   20  N2  UNL     1      25.931   3.334  51.318  1.00  0.00    -0.354 N 
HETATM   21  H8  UNL     1      26.439   4.087  50.813  1.00  0.00     0.166 HD
BRANCH  20  22
HETATM   22  C12 UNL     1      24.553   3.385  50.964  1.00  0.00     0.033 A 
HETATM   23  C13 UNL     1      23.879   4.292  51.779  1.00  0.00     0.029 A 
HETATM   24  C14 UNL     1      22.507   4.521  51.626  1.00  0.00     0.004 A 
HETATM   25  C15 UNL     1      21.841   3.806  50.626  1.00  0.00     0.019 A 
HETATM   26  C16 UNL     1      22.520   2.908  49.822  1.00  0.00     0.013 A 
HETATM   27 BR1  UNL     1      21.664   1.907  48.443  1.00  0.00    -0.051 Br
HETATM   28  C17 UNL     1      23.873   2.692  49.984  1.00  0.00     0.048 A 
ENDBRANCH  20  22
ENDBRANCH   7  20
TORSDOF 6
ENDMDL
MODEL 9
REMARK VINA RESULT:      -7.4      4.236      6.251
REMARK  6 active torsions:
REMARK  status: ('A' for Active; 'I' for Inactive)
REMARK    1  A    between atoms: C1_2  and  O2_3 
REMARK    2  A    between atoms: C1_2  and  C2_4 
REMARK    3  A    between atoms: C3_5  and  C4_6 
REMARK       I    between atoms: C4_6  and  N1_8 
REMARK    4  A    between atoms: N1_8  and  C5_9 
REMARK    5  A    between atoms: C11_15  and  N2_16 
REMARK    6  A    between atoms: N2_16  and  C12_17 
ROOT
HETATM    1  C5  UNL     1      25.910   2.731  51.450  1.00  0.00     0.035 A 
HETATM    2  C6  UNL     1      26.843   1.738  51.619  1.00  0.00     0.032 A 
HETATM    3  C7  UNL     1      26.600   0.503  52.177  1.00  0.00     0.035 A 
HETATM    4  C8  UNL     1      25.321   0.220  52.612  1.00  0.00     0.070 A 
HETATM    5  C9  UNL     1      24.363   1.200  52.455  1.00  0.00     0.024 A 
HETATM    6  C10 UNL     1      24.653   2.415  51.892  1.00  0.00     0.045 A 
HETATM    7  C11 UNL     1      23.116   0.659  52.986  1.00  0.00     0.077 A 
HETATM    8  C18 UNL     1      23.415  -0.568  53.385  1.00  0.00     0.116 A 
HETATM    9  N3  UNL     1      24.657  -0.881  53.222  1.00  0.00    -0.243 NA
ENDROOT
BRANCH   1  10
HETATM   10  N1  UNL     1      26.118   4.007  50.884  1.00  0.00    -0.324 N 
HETATM   11  C4  UNL     1      25.450   4.634  49.807  1.00  0.00     0.245 C 
HETATM   12  O3  UNL     1      24.525   4.028  49.220  1.00  0.00    -0.268 OA
HETATM   13  H4  UNL     1      26.860   4.629  51.270  1.00  0.00     0.169 HD
BRANCH  11  14
HETATM   14  C3  UNL     1      25.756   5.966  49.306  1.00  0.00     0.081 C 
HETATM   15  C2  UNL     1      25.739   6.976  50.147  1.00  0.00     0.086 C 
BRANCH  15  16
HETATM   16  C1  UNL     1      26.043   8.320  49.672  1.00  0.00     0.165 C 
HETATM   17  O1  UNL     1      26.207   8.521  48.426  1.00  0.00    -0.647 OA
BRANCH  16  18
HETATM   18  O2  UNL     1      26.157   9.393  50.543  1.00  0.00    -0.773 OA
HETATM   19  H1  UNL     1      26.017   9.280  51.539  1.00  0.00     0.167 HD
ENDBRANCH  16  18
ENDBRANCH  15  16
ENDBRANCH  11  14
ENDBRANCH   1  10
BRANCH   7  20
HETATM   20  N2  UNL     1      21.862   1.327  53.047  1.00  0.00    -0.354 N 
HETATM   21  H8  UNL     1      21.668   2.267  53.446  1.00  0.00     0.166 HD
BRANCH  20  22
HETATM   22  C12 UNL     1      20.648   0.775  52.549  1.00  0.00     0.033 A 
HETATM   23  C13 UNL     1      20.351   1.314  51.298  1.00  0.00     0.029 A 
HETATM   24  C14 UNL     1      19.203   0.926  50.599  1.00  0.00     0.004 A 
HETATM   25  C15 UNL     1      18.367  -0.020  51.202  1.00  0.00     0.019 A 
HETATM   26  C16 UNL     1      18.672  -0.548  52.444  1.00  0.00     0.013 A 
HETATM   27 BR1  UNL     1      17.572  -1.840  53.313  1.00  0.00    -0.051 Br
HETATM   28  C17 UNL     1      19.809  -0.157  53.122  1.00  0.00     0.048 A 
ENDBRANCH  20  22
ENDBRANCH   7  20
TORSDOF 6
ENDMDL
