MODEL 1
REMARK VINA RESULT:      -9.0      0.000      0.000
REMARK  5 active torsions:
REMARK  status: ('A' for Active; 'I' for Inactive)
REMARK    1  A    between atoms: C2_2  and  O1_4 
REMARK    2  A    between atoms: O1_4  and  C4_5 
REMARK    3  A    between atoms: C8_11  and  N3_12 
REMARK    4  A    between atoms: N3_12  and  C9_13 
REMARK    5  A    between atoms: C13_18  and  O2_19 
ROOT
HETATM    1  C4  UNL     1      21.025   2.428  52.329  1.00  0.00     0.107 A 
HETATM    2  C5  UNL     1      21.956   3.240  51.718  1.00  0.00     0.072 A 
HETATM    3  C6  UNL     1      23.299   2.990  51.536  1.00  0.00     0.077 A 
HETATM    4  N1  UNL     1      24.122   3.827  50.931  1.00  0.00    -0.241 NA
HETATM    5  C7  UNL     1      25.412   3.495  50.791  1.00  0.00     0.236 A 
HETATM    6  N2  UNL     1      25.859   2.321  51.263  1.00  0.00    -0.223 NA
HETATM    7  C8  UNL     1      25.103   1.413  51.889  1.00  0.00     0.144 A 
HETATM    8  C15 UNL     1      23.782   1.778  52.023  1.00  0.00     0.075 A 
HETATM    9  C16 UNL     1      22.901   0.887  52.660  1.00  0.00     0.121 A 
HETATM   10  C17 UNL     1      21.580   1.244  52.786  1.00  0.00     0.136 A 
HETATM   11  O3  UNL     1      20.814   0.291  53.427  1.00  0.00    -0.344 OA
HETATM   12  C18 UNL     1      21.249  -0.704  54.287  1.00  0.00     0.202 C 
HETATM   13  C19 UNL     1      22.753  -0.725  54.439  1.00  0.00     0.202 C 
HETATM   14  O4  UNL     1      23.315  -0.349  53.175  1.00  0.00    -0.345 OA
ENDROOT
BRANCH   7  15
HETATM   15  N3  UNL     1      25.642   0.179  52.345  1.00  0.00    -0.340 N 
HETATM   16  H10 UNL     1      24.782  -0.396  52.288  1.00  0.00     0.167 HD
BRANCH  15  17
HETATM   17  C9  UNL     1      26.909  -0.276  52.784  1.00  0.00     0.036 A 
HETATM   18  C10 UNL     1      27.890   0.555  53.221  1.00  0.00     0.032 A 
HETATM   19  C11 UNL     1      29.130   0.136  53.636  1.00  0.00     0.047 A 
HETATM   20  C12 UNL     1      29.304  -1.235  53.572  1.00  0.00     0.149 A 
HETATM   21  F1  UNL     1      30.493  -1.794  53.952  1.00  0.00    -0.203 F 
HETATM   22  C13 UNL     1      28.336  -2.117  53.135  1.00  0.00     0.106 A 
HETATM   23  C14 UNL     1      27.119  -1.608  52.738  1.00  0.00     0.069 A 
BRANCH  22  24
HETATM   24  O2  UNL     1      28.580  -3.483  53.097  1.00  0.00    -0.358 OA
HETATM   25  H13 UNL     1      28.372  -4.015  53.955  1.00  0.00     0.217 HD
ENDBRANCH  22  24
ENDBRANCH  15  17
ENDBRANCH   7  15
BRANCH   1  26
HETATM   26  O1  UNL     1      19.689   2.682  52.505  1.00  0.00    -0.344 OA
BRANCH  26  27
HETATM   27  C2  UNL     1      18.728   2.669  51.494  1.00  0.00     0.121 C 
HETATM   28  C1  UNL     1      17.657   3.706  51.614  1.00  0.00     0.040 C 
HETATM   29  C3  UNL     1      18.053   1.301  51.470  1.00  0.00     0.040 C 
ENDBRANCH  26  27
ENDBRANCH   1  26
TORSDOF 5
ENDMDL
MODEL 2
REMARK VINA RESULT:      -8.9      1.595      3.113
REMARK  5 active torsions:
REMARK  status: ('A' for Active; 'I' for Inactive)
REMARK    1  A    between atoms: C2_2  and  O1_4 
REMARK    2  A    between atoms: O1_4  and  C4_5 
REMARK    3  A    between atoms: C8_11  and  N3_12 
REMARK    4  A    between atoms: N3_12  and  C9_13 
REMARK    5  A    between atoms: C13_18  and  O2_19 
ROOT
HETATM    1  C4  UNL     1      20.450   2.446  52.517  1.00  0.00     0.107 A 
HETATM    2  C5  UNL     1      20.425   1.357  53.362  1.00  0.00     0.072 A 
HETATM    3  C6  UNL     1      21.477   0.540  53.710  1.00  0.00     0.077 A 
HETATM    4  N1  UNL     1      21.364  -0.485  54.537  1.00  0.00    -0.241 NA
HETATM    5  C7  UNL     1      22.445  -1.220  54.826  1.00  0.00     0.236 A 
HETATM    6  N2  UNL     1      23.631  -0.914  54.279  1.00  0.00    -0.223 NA
HETATM    7  C8  UNL     1      23.843   0.101  53.433  1.00  0.00     0.144 A 
HETATM    8  C15 UNL     1      22.717   0.839  53.150  1.00  0.00     0.075 A 
HETATM    9  C16 UNL     1      22.835   1.934  52.277  1.00  0.00     0.121 A 
HETATM   10  C17 UNL     1      21.714   2.680  52.000  1.00  0.00     0.136 A 
HETATM   11  O3  UNL     1      21.954   3.727  51.132  1.00  0.00    -0.344 OA
HETATM   12  C18 UNL     1      22.994   3.852  50.226  1.00  0.00     0.202 C 
HETATM   13  C19 UNL     1      23.973   2.703  50.302  1.00  0.00     0.202 C 
HETATM   14  O4  UNL     1      24.048   2.295  51.674  1.00  0.00    -0.345 OA
ENDROOT
BRANCH   7  15
HETATM   15  N3  UNL     1      25.135   0.377  52.908  1.00  0.00    -0.340 N 
HETATM   16  H10 UNL     1      24.865   1.082  52.197  1.00  0.00     0.167 HD
BRANCH  15  17
HETATM   17  C9  UNL     1      26.451  -0.082  53.153  1.00  0.00     0.036 A 
HETATM   18  C10 UNL     1      27.436   0.709  53.653  1.00  0.00     0.032 A 
HETATM   19  C11 UNL     1      28.723   0.289  53.882  1.00  0.00     0.047 A 
HETATM   20  C12 UNL     1      28.942  -1.037  53.555  1.00  0.00     0.149 A 
HETATM   21  F1  UNL     1      30.181  -1.591  53.729  1.00  0.00    -0.203 F 
HETATM   22  C13 UNL     1      27.973  -1.877  53.045  1.00  0.00     0.106 A 
HETATM   23  C14 UNL     1      26.706  -1.370  52.847  1.00  0.00     0.069 A 
BRANCH  22  24
HETATM   24  O2  UNL     1      28.263  -3.200  52.739  1.00  0.00    -0.358 OA
HETATM   25  H13 UNL     1      27.940  -3.912  53.410  1.00  0.00     0.217 HD
ENDBRANCH  22  24
ENDBRANCH  15  17
ENDBRANCH   7  15
BRANCH   1  26
HETATM   26  O1  UNL     1      19.399   3.258  52.175  1.00  0.00    -0.344 OA
BRANCH  26  27
HETATM   27  C2  UNL     1      18.240   2.840  51.522  1.00  0.00     0.121 C 
HETATM   28  C1  UNL     1      18.419   2.438  50.093  1.00  0.00     0.040 C 
HETATM   29  C3  UNL     1      17.213   3.968  51.564  1.00  0.00     0.040 C 
ENDBRANCH  26  27
ENDBRANCH   1  26
TORSDOF 5
ENDMDL
MODEL 3
REMARK VINA RESULT:      -8.6      2.381      3.792
REMARK  5 active torsions:
REMARK  status: ('A' for Active; 'I' for Inactive)
REMARK    1  A    between atoms: C2_2  and  O1_4 
REMARK    2  A    between atoms: O1_4  and  C4_5 
REMARK    3  A    between atoms: C8_11  and  N3_12 
REMARK    4  A    between atoms: N3_12  and  C9_13 
REMARK    5  A    between atoms: C13_18  and  O2_19 
ROOT
HETATM    1  C4  UNL     1      22.297   2.548  50.310  1.00  0.00     0.107 A 
HETATM    2  C5  UNL     1      21.773   1.489  51.020  1.00  0.00     0.072 A 
HETATM    3  C6  UNL     1      22.395   0.741  51.995  1.00  0.00     0.077 A 
HETATM    4  N1  UNL     1      21.812  -0.258  52.632  1.00  0.00    -0.241 NA
HETATM    5  C7  UNL     1      22.491  -0.925  53.573  1.00  0.00     0.236 A 
HETATM    6  N2  UNL     1      23.754  -0.576  53.864  1.00  0.00    -0.223 NA
HETATM    7  C8  UNL     1      24.427   0.418  53.273  1.00  0.00     0.144 A 
HETATM    8  C15 UNL     1      23.708   1.085  52.308  1.00  0.00     0.075 A 
HETATM    9  C16 UNL     1      24.322   2.154  51.633  1.00  0.00     0.121 A 
HETATM   10  C17 UNL     1      23.604   2.830  50.676  1.00  0.00     0.136 A 
HETATM   11  O3  UNL     1      24.311   3.857  50.084  1.00  0.00    -0.344 OA
HETATM   12  C18 UNL     1      25.686   4.006  50.014  1.00  0.00     0.202 C 
HETATM   13  C19 UNL     1      26.427   2.912  50.750  1.00  0.00     0.202 C 
HETATM   14  O4  UNL     1      25.639   2.558  51.894  1.00  0.00    -0.345 OA
ENDROOT
BRANCH   7  15
HETATM   15  N3  UNL     1      25.758   0.743  53.648  1.00  0.00    -0.340 N 
HETATM   16  H10 UNL     1      25.595   1.716  53.968  1.00  0.00     0.167 HD
BRANCH  15  17
HETATM   17  C9  UNL     1      27.009   0.081  53.637  1.00  0.00     0.036 A 
HETATM   18  C10 UNL     1      28.175   0.681  53.992  1.00  0.00     0.032 A 
HETATM   19  C11 UNL     1      29.400   0.062  53.973  1.00  0.00     0.047 A 
HETATM   20  C12 UNL     1      29.352  -1.255  53.552  1.00  0.00     0.149 A 
HETATM   21  F1  UNL     1      30.500  -1.995  53.481  1.00  0.00    -0.203 F 
HETATM   22  C13 UNL     1      28.192  -1.905  53.182  1.00  0.00     0.106 A 
HETATM   23  C14 UNL     1      27.005  -1.206  53.233  1.00  0.00     0.069 A 
BRANCH  22  24
HETATM   24  O2  UNL     1      28.217  -3.231  52.770  1.00  0.00    -0.358 OA
HETATM   25  H13 UNL     1      29.144  -3.640  52.582  1.00  0.00     0.217 HD
ENDBRANCH  22  24
ENDBRANCH  15  17
ENDBRANCH   7  15
BRANCH   1  26
HETATM   26  O1  UNL     1      21.672   3.291  49.341  1.00  0.00    -0.344 OA
BRANCH  26  27
HETATM   27  C2  UNL     1      21.484   2.892  48.019  1.00  0.00     0.121 C 
HETATM   28  C1  UNL     1      22.578   2.053  47.440  1.00  0.00     0.040 C 
HETATM   29  C3  UNL     1      21.335   4.133  47.143  1.00  0.00     0.040 C 
ENDBRANCH  26  27
ENDBRANCH   1  26
TORSDOF 5
ENDMDL
MODEL 4
REMARK VINA RESULT:      -8.6      3.510      8.281
REMARK  5 active torsions:
REMARK  status: ('A' for Active; 'I' for Inactive)
REMARK    1  A    between atoms: C2_2  and  O1_4 
REMARK    2  A    between atoms: O1_4  and  C4_5 
REMARK    3  A    between atoms: C8_11  and  N3_12 
REMARK    4  A    between atoms: N3_12  and  C9_13 
REMARK    5  A    between atoms: C13_18  and  O2_19 
ROOT
HETATM    1  C4  UNL     1      26.507  -0.217  53.133  1.00  0.00     0.107 A 
HETATM    2  C5  UNL     1      25.605  -0.815  53.987  1.00  0.00     0.072 A 
HETATM    3  C6  UNL     1      24.252  -0.576  54.082  1.00  0.00     0.077 A 
HETATM    4  N1  UNL     1      23.457  -1.203  54.931  1.00  0.00    -0.241 NA
HETATM    5  C7  UNL     1      22.150  -0.911  54.947  1.00  0.00     0.236 A 
HETATM    6  N2  UNL     1      21.657   0.010  54.104  1.00  0.00    -0.223 NA
HETATM    7  C8  UNL     1      22.382   0.696  53.213  1.00  0.00     0.144 A 
HETATM    8  C15 UNL     1      23.722   0.380  53.219  1.00  0.00     0.075 A 
HETATM    9  C16 UNL     1      24.569   1.039  52.312  1.00  0.00     0.121 A 
HETATM   10  C17 UNL     1      25.906   0.720  52.307  1.00  0.00     0.136 A 
HETATM   11  O3  UNL     1      26.637   1.431  51.376  1.00  0.00    -0.344 OA
HETATM   12  C18 UNL     1      26.311   2.645  50.796  1.00  0.00     0.202 C 
HETATM   13  C19 UNL     1      24.956   3.154  51.234  1.00  0.00     0.202 C 
HETATM   14  O4  UNL     1      24.109   2.012  51.414  1.00  0.00    -0.345 OA
ENDROOT
BRANCH   7  15
HETATM   15  N3  UNL     1      21.786   1.643  52.338  1.00  0.00    -0.340 N 
HETATM   16  H10 UNL     1      22.566   2.325  52.294  1.00  0.00     0.167 HD
BRANCH  15  17
HETATM   17  C9  UNL     1      20.544   1.772  51.672  1.00  0.00     0.036 A 
HETATM   18  C10 UNL     1      20.189   1.014  50.601  1.00  0.00     0.032 A 
HETATM   19  C11 UNL     1      18.997   1.134  49.931  1.00  0.00     0.047 A 
HETATM   20  C12 UNL     1      18.165   2.111  50.445  1.00  0.00     0.149 A 
HETATM   21  F1  UNL     1      16.943   2.343  49.875  1.00  0.00    -0.203 F 
HETATM   22  C13 UNL     1      18.483   2.904  51.530  1.00  0.00     0.106 A 
HETATM   23  C14 UNL     1      19.703   2.714  52.143  1.00  0.00     0.069 A 
BRANCH  22  24
HETATM   24  O2  UNL     1      17.597   3.867  51.995  1.00  0.00    -0.358 OA
HETATM   25  H13 UNL     1      17.721   4.178  52.970  1.00  0.00     0.217 HD
ENDBRANCH  22  24
ENDBRANCH  15  17
ENDBRANCH   7  15
BRANCH   1  26
HETATM   26  O1  UNL     1      27.853  -0.462  53.042  1.00  0.00    -0.344 OA
BRANCH  26  27
HETATM   27  C2  UNL     1      28.789  -0.187  54.038  1.00  0.00     0.121 C 
HETATM   28  C1  UNL     1      29.115   1.259  54.231  1.00  0.00     0.040 C 
HETATM   29  C3  UNL     1      30.088  -0.919  53.714  1.00  0.00     0.040 C 
ENDBRANCH  26  27
ENDBRANCH   1  26
TORSDOF 5
ENDMDL
MODEL 5
REMARK VINA RESULT:      -8.4      3.345      7.519
REMARK  5 active torsions:
REMARK  status: ('A' for Active; 'I' for Inactive)
REMARK    1  A    between atoms: C2_2  and  O1_4 
REMARK    2  A    between atoms: O1_4  and  C4_5 
REMARK    3  A    between atoms: C8_11  and  N3_12 
REMARK    4  A    between atoms: N3_12  and  C9_13 
REMARK    5  A    between atoms: C13_18  and  O2_19 
ROOT
HETATM    1  C4  UNL     1      26.269  -0.024  53.500  1.00  0.00     0.107 A 
HETATM    2  C5  UNL     1      26.118   0.773  52.385  1.00  0.00     0.072 A 
HETATM    3  C6  UNL     1      24.947   1.282  51.868  1.00  0.00     0.077 A 
HETATM    4  N1  UNL     1      24.894   2.046  50.792  1.00  0.00    -0.241 NA
HETATM    5  C7  UNL     1      23.710   2.504  50.367  1.00  0.00     0.236 A 
HETATM    6  N2  UNL     1      22.589   2.187  51.033  1.00  0.00    -0.223 NA
HETATM    7  C8  UNL     1      22.542   1.421  52.129  1.00  0.00     0.144 A 
HETATM    8  C15 UNL     1      23.771   0.961  52.544  1.00  0.00     0.075 A 
HETATM    9  C16 UNL     1      23.832   0.154  53.693  1.00  0.00     0.121 A 
HETATM   10  C17 UNL     1      25.059  -0.299  54.116  1.00  0.00     0.136 A 
HETATM   11  O3  UNL     1      24.992  -1.080  55.253  1.00  0.00    -0.344 OA
HETATM   12  C18 UNL     1      23.898  -1.781  55.733  1.00  0.00     0.202 C 
HETATM   13  C19 UNL     1      22.656  -1.563  54.899  1.00  0.00     0.202 C 
HETATM   14  O4  UNL     1      22.693  -0.211  54.423  1.00  0.00    -0.345 OA
ENDROOT
BRANCH   7  15
HETATM   15  N3  UNL     1      21.318   1.145  52.794  1.00  0.00    -0.340 N 
HETATM   16  H10 UNL     1      21.556   1.535  53.725  1.00  0.00     0.167 HD
BRANCH  15  17
HETATM   17  C9  UNL     1      20.089   0.533  52.450  1.00  0.00     0.036 A 
HETATM   18  C10 UNL     1      19.453   0.748  51.268  1.00  0.00     0.032 A 
HETATM   19  C11 UNL     1      18.254   0.178  50.921  1.00  0.00     0.047 A 
HETATM   20  C12 UNL     1      17.730  -0.654  51.894  1.00  0.00     0.149 A 
HETATM   21  F1  UNL     1      16.537  -1.289  51.685  1.00  0.00    -0.203 F 
HETATM   22  C13 UNL     1      18.340  -0.902  53.108  1.00  0.00     0.106 A 
HETATM   23  C14 UNL     1      19.544  -0.286  53.372  1.00  0.00     0.069 A 
BRANCH  22  24
HETATM   24  O2  UNL     1      17.757  -1.750  54.040  1.00  0.00    -0.358 OA
HETATM   25  H13 UNL     1      16.727  -1.775  54.064  1.00  0.00     0.217 HD
ENDBRANCH  22  24
ENDBRANCH  15  17
ENDBRANCH   7  15
BRANCH   1  26
HETATM   26  O1  UNL     1      27.439  -0.526  54.010  1.00  0.00    -0.344 OA
BRANCH  26  27
HETATM   27  C2  UNL     1      28.535  -0.937  53.253  1.00  0.00     0.121 C 
HETATM   28  C1  UNL     1      28.753  -2.415  53.192  1.00  0.00     0.040 C 
HETATM   29  C3  UNL     1      29.799  -0.302  53.826  1.00  0.00     0.040 C 
ENDBRANCH  26  27
ENDBRANCH   1  26
TORSDOF 5
ENDMDL
MODEL 6
REMARK VINA RESULT:      -8.2      3.728      7.966
REMARK  5 active torsions:
REMARK  status: ('A' for Active; 'I' for Inactive)
REMARK    1  A    between atoms: C2_2  and  O1_4 
REMARK    2  A    between atoms: O1_4  and  C4_5 
REMARK    3  A    between atoms: C8_11  and  N3_12 
REMARK    4  A    between atoms: N3_12  and  C9_13 
REMARK    5  A    between atoms: C13_18  and  O2_19 
ROOT
HETATM    1  C4  UNL     1      26.543   0.389  52.930  1.00  0.00     0.107 A 
HETATM    2  C5  UNL     1      26.065  -0.399  53.956  1.00  0.00     0.072 A 
HETATM    3  C6  UNL     1      24.752  -0.604  54.316  1.00  0.00     0.077 A 
HETATM    4  N1  UNL     1      24.381  -1.385  55.315  1.00  0.00    -0.241 NA
HETATM    5  C7  UNL     1      23.078  -1.532  55.587  1.00  0.00     0.236 A 
HETATM    6  N2  UNL     1      22.161  -0.890  54.847  1.00  0.00    -0.223 NA
HETATM    7  C8  UNL     1      22.439  -0.080  53.819  1.00  0.00     0.144 A 
HETATM    8  C15 UNL     1      23.784   0.057  53.562  1.00  0.00     0.075 A 
HETATM    9  C16 UNL     1      24.182   0.881  52.495  1.00  0.00     0.121 A 
HETATM   10  C17 UNL     1      25.523   1.012  52.228  1.00  0.00     0.136 A 
HETATM   11  O3  UNL     1      25.791   1.845  51.160  1.00  0.00    -0.344 OA
HETATM   12  C18 UNL     1      24.978   2.838  50.639  1.00  0.00     0.202 C 
HETATM   13  C19 UNL     1      23.637   2.914  51.331  1.00  0.00     0.202 C 
HETATM   14  O4  UNL     1      23.267   1.577  51.694  1.00  0.00    -0.345 OA
ENDROOT
BRANCH   7  15
HETATM   15  N3  UNL     1      21.412   0.550  53.067  1.00  0.00    -0.340 N 
HETATM   16  H10 UNL     1      21.854   1.481  52.952  1.00  0.00     0.167 HD
BRANCH  15  17
HETATM   17  C9  UNL     1      20.139   0.177  52.572  1.00  0.00     0.036 A 
HETATM   18  C10 UNL     1      19.676   0.549  51.350  1.00  0.00     0.032 A 
HETATM   19  C11 UNL     1      18.440   0.212  50.857  1.00  0.00     0.047 A 
HETATM   20  C12 UNL     1      17.684  -0.555  51.726  1.00  0.00     0.149 A 
HETATM   21  F1  UNL     1      16.428  -0.962  51.367  1.00  0.00    -0.203 F 
HETATM   22  C13 UNL     1      18.113  -0.955  52.975  1.00  0.00     0.106 A 
HETATM   23  C14 UNL     1      19.371  -0.572  53.389  1.00  0.00     0.069 A 
BRANCH  22  24
HETATM   24  O2  UNL     1      17.301  -1.727  53.796  1.00  0.00    -0.358 OA
HETATM   25  H13 UNL     1      17.552  -1.762  54.795  1.00  0.00     0.217 HD
ENDBRANCH  22  24
ENDBRANCH  15  17
ENDBRANCH   7  15
BRANCH   1  26
HETATM   26  O1  UNL     1      27.853   0.588  52.576  1.00  0.00    -0.344 OA
BRANCH  26  27
HETATM   27  C2  UNL     1      28.851   1.067  53.423  1.00  0.00     0.121 C 
HETATM   28  C1  UNL     1      28.920   0.415  54.767  1.00  0.00     0.040 C 
HETATM   29  C3  UNL     1      28.640   2.563  53.641  1.00  0.00     0.040 C 
ENDBRANCH  26  27
ENDBRANCH   1  26
TORSDOF 5
ENDMDL
MODEL 7
REMARK VINA RESULT:      -8.0      3.590      6.755
REMARK  5 active torsions:
REMARK  status: ('A' for Active; 'I' for Inactive)
REMARK    1  A    between atoms: C2_2  and  O1_4 
REMARK    2  A    between atoms: O1_4  and  C4_5 
REMARK    3  A    between atoms: C8_11  and  N3_12 
REMARK    4  A    between atoms: N3_12  and  C9_13 
REMARK    5  A    between atoms: C13_18  and  O2_19 
ROOT
HETATM    1  C4  UNL     1      25.712   4.423  49.640  1.00  0.00     0.107 A 
HETATM    2  C5  UNL     1      26.532   3.406  50.080  1.00  0.00     0.072 A 
HETATM    3  C6  UNL     1      26.243   2.442  51.021  1.00  0.00     0.077 A 
HETATM    4  N1  UNL     1      27.090   1.495  51.381  1.00  0.00    -0.241 NA
HETATM    5  C7  UNL     1      26.719   0.593  52.298  1.00  0.00     0.236 A 
HETATM    6  N2  UNL     1      25.495   0.654  52.843  1.00  0.00    -0.223 NA
HETATM    7  C8  UNL     1      24.570   1.574  52.544  1.00  0.00     0.144 A 
HETATM    8  C15 UNL     1      24.977   2.491  51.601  1.00  0.00     0.075 A 
HETATM    9  C16 UNL     1      24.075   3.496  51.210  1.00  0.00     0.121 A 
HETATM   10  C17 UNL     1      24.474   4.407  50.262  1.00  0.00     0.136 A 
HETATM   11  O3  UNL     1      23.505   5.343  49.960  1.00  0.00    -0.344 OA
HETATM   12  C18 UNL     1      22.429   5.727  50.742  1.00  0.00     0.202 C 
HETATM   13  C19 UNL     1      22.336   4.940  52.030  1.00  0.00     0.202 C 
HETATM   14  O4  UNL     1      22.787   3.608  51.750  1.00  0.00    -0.345 OA
ENDROOT
BRANCH   7  15
HETATM   15  N3  UNL     1      23.284   1.564  53.148  1.00  0.00    -0.340 N 
HETATM   16  H10 UNL     1      23.228   2.566  53.407  1.00  0.00     0.167 HD
BRANCH  15  17
HETATM   17  C9  UNL     1      22.290   0.590  53.406  1.00  0.00     0.036 A 
HETATM   18  C10 UNL     1      22.492  -0.491  54.203  1.00  0.00     0.032 A 
HETATM   19  C11 UNL     1      21.548  -1.454  54.454  1.00  0.00     0.047 A 
HETATM   20  C12 UNL     1      20.342  -1.232  53.812  1.00  0.00     0.149 A 
HETATM   21  F1  UNL     1      19.308  -2.114  53.969  1.00  0.00    -0.203 F 
HETATM   22  C13 UNL     1      20.091  -0.149  52.994  1.00  0.00     0.106 A 
HETATM   23  C14 UNL     1      21.099   0.771  52.800  1.00  0.00     0.069 A 
BRANCH  22  24
HETATM   24  O2  UNL     1      18.855   0.013  52.382  1.00  0.00    -0.358 OA
HETATM   25  H13 UNL     1      18.095  -0.605  52.703  1.00  0.00     0.217 HD
ENDBRANCH  22  24
ENDBRANCH  15  17
ENDBRANCH   7  15
BRANCH   1  26
HETATM   26  O1  UNL     1      26.005   5.379  48.701  1.00  0.00    -0.344 OA
BRANCH  26  27
HETATM   27  C2  UNL     1      26.891   6.440  48.884  1.00  0.00     0.121 C 
HETATM   28  C1  UNL     1      26.440   7.755  48.332  1.00  0.00     0.040 C 
HETATM   29  C3  UNL     1      28.224   6.092  48.229  1.00  0.00     0.040 C 
ENDBRANCH  26  27
ENDBRANCH   1  26
TORSDOF 5
ENDMDL
MODEL 8
REMARK VINA RESULT:      -7.9      3.270      7.672
REMARK  5 active torsions:
REMARK  status: ('A' for Active; 'I' for Inactive)
REMARK    1  A    between atoms: C2_2  and  O1_4 
REMARK    2  A    between atoms: O1_4  and  C4_5 
REMARK    3  A    between atoms: C8_11  and  N3_12 
REMARK    4  A    between atoms: N3_12  and  C9_13 
REMARK    5  A    between atoms: C13_18  and  O2_19 
ROOT
HETATM    1  C4  UNL     1      26.529   0.556  52.400  1.00  0.00     0.107 A 
HETATM    2  C5  UNL     1      26.826   1.605  51.556  1.00  0.00     0.072 A 
HETATM    3  C6  UNL     1      25.976   2.596  51.117  1.00  0.00     0.077 A 
HETATM    4  N1  UNL     1      26.348   3.572  50.308  1.00  0.00    -0.241 NA
HETATM    5  C7  UNL     1      25.454   4.499  49.940  1.00  0.00     0.236 A 
HETATM    6  N2  UNL     1      24.193   4.433  50.393  1.00  0.00    -0.223 NA
HETATM    7  C8  UNL     1      23.724   3.485  51.212  1.00  0.00     0.144 A 
HETATM    8  C15 UNL     1      24.661   2.543  51.573  1.00  0.00     0.075 A 
HETATM    9  C16 UNL     1      24.271   1.507  52.440  1.00  0.00     0.121 A 
HETATM   10  C17 UNL     1      25.206   0.571  52.811  1.00  0.00     0.136 A 
HETATM   11  O3  UNL     1      24.706  -0.394  53.662  1.00  0.00    -0.344 OA
HETATM   12  C18 UNL     1      23.384  -0.772  53.829  1.00  0.00     0.202 C 
HETATM   13  C19 UNL     1      22.433   0.059  52.997  1.00  0.00     0.202 C 
HETATM   14  O4  UNL     1      22.966   1.388  52.939  1.00  0.00    -0.345 OA
ENDROOT
BRANCH   7  15
HETATM   15  N3  UNL     1      22.378   3.491  51.668  1.00  0.00    -0.340 N 
HETATM   16  H10 UNL     1      22.556   3.692  52.670  1.00  0.00     0.167 HD
BRANCH  15  17
HETATM   17  C9  UNL     1      21.105   3.291  51.082  1.00  0.00     0.036 A 
HETATM   18  C10 UNL     1      20.930   2.791  49.831  1.00  0.00     0.032 A 
HETATM   19  C11 UNL     1      19.706   2.605  49.239  1.00  0.00     0.047 A 
HETATM   20  C12 UNL     1      18.639   2.976  50.036  1.00  0.00     0.149 A 
HETATM   21  F1  UNL     1      17.358   2.847  49.573  1.00  0.00    -0.203 F 
HETATM   22  C13 UNL     1      18.769   3.488  51.312  1.00  0.00     0.106 A 
HETATM   23  C14 UNL     1      20.038   3.641  51.829  1.00  0.00     0.069 A 
BRANCH  22  24
HETATM   24  O2  UNL     1      17.652   3.839  52.058  1.00  0.00    -0.358 OA
HETATM   25  H13 UNL     1      17.825   4.214  53.003  1.00  0.00     0.217 HD
ENDBRANCH  22  24
ENDBRANCH  15  17
ENDBRANCH   7  15
BRANCH   1  26
HETATM   26  O1  UNL     1      27.381  -0.426  52.836  1.00  0.00    -0.344 OA
BRANCH  26  27
HETATM   27  C2  UNL     1      28.609  -0.208  53.459  1.00  0.00     0.121 C 
HETATM   28  C1  UNL     1      29.564  -1.357  53.413  1.00  0.00     0.040 C 
HETATM   29  C3  UNL     1      28.365   0.138  54.925  1.00  0.00     0.040 C 
ENDBRANCH  26  27
ENDBRANCH   1  26
TORSDOF 5
ENDMDL
MODEL 9
REMARK VINA RESULT:      -7.8      3.726      5.322
REMARK  5 active torsions:
REMARK  status: ('A' for Active; 'I' for Inactive)
REMARK    1  A    between atoms: C2_2  and  O1_4 
REMARK    2  A    between atoms: O1_4  and  C4_5 
REMARK    3  A    between atoms: C8_11  and  N3_12 
REMARK    4  A    between atoms: N3_12  and  C9_13 
REMARK    5  A    between atoms: C13_18  and  O2_19 
ROOT
HETATM    1  C4  UNL     1      23.167   5.853  49.250  1.00  0.00     0.107 A 
HETATM    2  C5  UNL     1      22.379   4.852  49.777  1.00  0.00     0.072 A 
HETATM    3  C6  UNL     1      22.795   3.682  50.372  1.00  0.00     0.077 A 
HETATM    4  N1  UNL     1      21.967   2.775  50.859  1.00  0.00    -0.241 NA
HETATM    5  C7  UNL     1      22.462   1.670  51.429  1.00  0.00     0.236 A 
HETATM    6  N2  UNL     1      23.789   1.490  51.505  1.00  0.00    -0.223 NA
HETATM    7  C8  UNL     1      24.704   2.349  51.041  1.00  0.00     0.144 A 
HETATM    8  C15 UNL     1      24.170   3.475  50.457  1.00  0.00     0.075 A 
HETATM    9  C16 UNL     1      25.049   4.446  49.945  1.00  0.00     0.121 A 
HETATM   10  C17 UNL     1      24.519   5.576  49.371  1.00  0.00     0.136 A 
HETATM   11  O3  UNL     1      25.478   6.454  48.905  1.00  0.00    -0.344 OA
HETATM   12  C18 UNL     1      26.790   6.170  48.567  1.00  0.00     0.202 C 
HETATM   13  C19 UNL     1      27.158   4.727  48.825  1.00  0.00     0.202 C 
HETATM   14  O4  UNL     1      26.442   4.307  49.994  1.00  0.00    -0.345 OA
ENDROOT
BRANCH   7  15
HETATM   15  N3  UNL     1      26.097   2.100  51.175  1.00  0.00    -0.340 N 
HETATM   16  H10 UNL     1      26.423   2.583  50.318  1.00  0.00     0.167 HD
BRANCH  15  17
HETATM   17  C9  UNL     1      26.924   1.423  52.103  1.00  0.00     0.036 A 
HETATM   18  C10 UNL     1      26.908   0.075  52.271  1.00  0.00     0.032 A 
HETATM   19  C11 UNL     1      27.690  -0.600  53.175  1.00  0.00     0.047 A 
HETATM   20  C12 UNL     1      28.515   0.222  53.921  1.00  0.00     0.149 A 
HETATM   21  F1  UNL     1      29.349  -0.314  54.864  1.00  0.00    -0.203 F 
HETATM   22  C13 UNL     1      28.565   1.595  53.785  1.00  0.00     0.106 A 
HETATM   23  C14 UNL     1      27.745   2.189  52.850  1.00  0.00     0.069 A 
BRANCH  22  24
HETATM   24  O2  UNL     1      29.420   2.360  54.567  1.00  0.00    -0.358 OA
HETATM   25  H13 UNL     1      29.218   3.369  54.623  1.00  0.00     0.217 HD
ENDBRANCH  22  24
ENDBRANCH  15  17
ENDBRANCH   7  15
BRANCH   1  26
HETATM   26  O1  UNL     1      22.747   7.018  48.660  1.00  0.00    -0.344 OA
BRANCH  26  27
HETATM   27  C2  UNL     1      22.567   8.233  49.319  1.00  0.00     0.121 C 
HETATM   28  C1  UNL     1      21.153   8.711  49.409  1.00  0.00     0.040 C 
HETATM   29  C3  UNL     1      23.377   9.310  48.602  1.00  0.00     0.040 C 
ENDBRANCH  26  27
ENDBRANCH   1  26
TORSDOF 5
ENDMDL
