MODEL 1
REMARK VINA RESULT:      -8.2      0.000      0.000
REMARK  6 active torsions:
REMARK  status: ('A' for Active; 'I' for Inactive)
REMARK    1  A    between atoms: C1_2  and  C2_3 
REMARK    2  A    between atoms: C2_3  and  C3_4 
REMARK    3  A    between atoms: C4_5  and  O2_6 
REMARK    4  A    between atoms: O2_6  and  C5_7 
REMARK    5  A    between atoms: C12_16  and  N2_17 
REMARK    6  A    between atoms: N2_17  and  C13_18 
ROOT
HETATM    1  C3  UNL     1      21.792   0.128  52.570  1.00  0.00     0.086 A 
HETATM    2  C4  UNL     1      20.493  -0.146  53.190  1.00  0.00     0.058 A 
HETATM    3  C9  UNL     1      20.623  -0.741  54.365  1.00  0.00     0.064 A 
HETATM    4  C10 UNL     1      22.017  -0.964  54.729  1.00  0.00     0.062 A 
HETATM    5  N1  UNL     1      22.851  -1.426  55.598  1.00  0.00    -0.283 NA
HETATM    6  C11 UNL     1      24.206  -1.249  55.166  1.00  0.00     0.207 A 
HETATM    7  C12 UNL     1      24.058  -0.575  53.834  1.00  0.00     0.039 A 
HETATM    8  C19 UNL     1      22.751  -0.406  53.574  1.00  0.00     0.005 A 
ENDROOT
BRANCH   7   9
HETATM    9  N2  UNL     1      25.155  -0.200  53.015  1.00  0.00    -0.358 N 
HETATM   10  H15 UNL     1      24.763   0.309  52.195  1.00  0.00     0.166 HD
BRANCH   9  11
HETATM   11  C13 UNL     1      26.548  -0.421  53.181  1.00  0.00     0.034 A 
HETATM   12  C14 UNL     1      27.154  -1.604  52.817  1.00  0.00     0.032 A 
HETATM   13  C15 UNL     1      28.522  -1.729  53.014  1.00  0.00     0.046 A 
HETATM   14  C16 UNL     1      29.290  -0.716  53.559  1.00  0.00     0.138 A 
HETATM   15  F1  UNL     1      30.612  -0.775  53.775  1.00  0.00    -0.204 F 
HETATM   16  C17 UNL     1      28.634   0.443  53.905  1.00  0.00     0.074 A 
HETATM   17 CL1  UNL     1      29.532   1.776  54.602  1.00  0.00    -0.081 Cl
HETATM   18  C18 UNL     1      27.286   0.604  53.726  1.00  0.00     0.056 A 
ENDBRANCH   9  11
ENDBRANCH   7   9
BRANCH   1  19
HETATM   19  C2  UNL     1      22.039   1.574  52.252  1.00  0.00     0.085 C 
BRANCH  19  20
HETATM   20  C1  UNL     1      22.818   1.780  51.013  1.00  0.00     0.232 C 
HETATM   21  O1  UNL     1      24.026   1.934  51.098  1.00  0.00    -0.307 OA
ENDBRANCH  19  20
ENDBRANCH   1  19
BRANCH   2  22
HETATM   22  O2  UNL     1      19.402   0.250  52.464  1.00  0.00    -0.347 OA
BRANCH  22  23
HETATM   23  C5  UNL     1      18.443  -0.535  51.837  1.00  0.00     0.154 C 
HETATM   24  C6  UNL     1      17.329  -0.933  52.812  1.00  0.00     0.061 C 
HETATM   25  C7  UNL     1      16.145  -0.272  52.106  1.00  0.00     0.170 C 
HETATM   26  O3  UNL     1      16.458  -0.461  50.740  1.00  0.00    -0.389 OA
HETATM   27  C8  UNL     1      17.725   0.110  50.701  1.00  0.00     0.200 C 
ENDBRANCH  22  23
ENDBRANCH   2  22
TORSDOF 6
ENDMDL
MODEL 2
REMARK VINA RESULT:      -8.1      1.996      3.315
REMARK  6 active torsions:
REMARK  status: ('A' for Active; 'I' for Inactive)
REMARK    1  A    between atoms: C1_2  and  C2_3 
REMARK    2  A    between atoms: C2_3  and  C3_4 
REMARK    3  A    between atoms: C4_5  and  O2_6 
REMARK    4  A    between atoms: O2_6  and  C5_7 
REMARK    5  A    between atoms: C12_16  and  N2_17 
REMARK    6  A    between atoms: N2_17  and  C13_18 
ROOT
HETATM    1  C3  UNL     1      22.711   0.425  53.015  1.00  0.00     0.086 A 
HETATM    2  C4  UNL     1      21.579   0.278  52.097  1.00  0.00     0.058 A 
HETATM    3  C9  UNL     1      21.766   0.950  50.971  1.00  0.00     0.064 A 
HETATM    4  C10 UNL     1      23.042   1.656  50.946  1.00  0.00     0.062 A 
HETATM    5  N1  UNL     1      23.842   2.424  50.290  1.00  0.00    -0.283 NA
HETATM    6  C11 UNL     1      25.036   2.693  51.037  1.00  0.00     0.207 A 
HETATM    7  C12 UNL     1      24.824   1.931  52.312  1.00  0.00     0.039 A 
HETATM    8  C19 UNL     1      23.633   1.312  52.256  1.00  0.00     0.005 A 
ENDROOT
BRANCH   7   9
HETATM    9  N2  UNL     1      25.760   1.904  53.377  1.00  0.00    -0.358 N 
HETATM   10  H15 UNL     1      25.373   2.502  54.138  1.00  0.00     0.166 HD
BRANCH   9  11
HETATM   11  C13 UNL     1      27.006   1.233  53.495  1.00  0.00     0.034 A 
HETATM   12  C14 UNL     1      28.157   1.880  53.888  1.00  0.00     0.032 A 
HETATM   13  C15 UNL     1      29.328   1.142  53.977  1.00  0.00     0.046 A 
HETATM   14  C16 UNL     1      29.379  -0.208  53.686  1.00  0.00     0.138 A 
HETATM   15  F1  UNL     1      30.477  -0.976  53.752  1.00  0.00    -0.204 F 
HETATM   16  C17 UNL     1      28.202  -0.805  53.299  1.00  0.00     0.074 A 
HETATM   17 CL1  UNL     1      28.178  -2.514  52.912  1.00  0.00    -0.081 Cl
HETATM   18  C18 UNL     1      27.026  -0.110  53.199  1.00  0.00     0.056 A 
ENDBRANCH   9  11
ENDBRANCH   7   9
BRANCH   1  19
HETATM   19  C2  UNL     1      23.359  -0.866  53.419  1.00  0.00     0.085 C 
BRANCH  19  20
HETATM   20  C1  UNL     1      23.229  -1.165  54.860  1.00  0.00     0.232 C 
HETATM   21  O1  UNL     1      22.232  -1.753  55.251  1.00  0.00    -0.307 OA
ENDBRANCH  19  20
ENDBRANCH   1  19
BRANCH   2  22
HETATM   22  O2  UNL     1      20.554  -0.508  52.551  1.00  0.00    -0.347 OA
BRANCH  22  23
HETATM   23  C5  UNL     1      19.285  -0.128  52.968  1.00  0.00     0.154 C 
HETATM   24  C6  UNL     1      18.452   0.400  51.796  1.00  0.00     0.061 C 
HETATM   25  C7  UNL     1      17.319  -0.626  51.826  1.00  0.00     0.170 C 
HETATM   26  O3  UNL     1      17.150  -0.856  53.210  1.00  0.00    -0.389 OA
HETATM   27  C8  UNL     1      18.449  -1.212  53.556  1.00  0.00     0.200 C 
ENDBRANCH  22  23
ENDBRANCH   2  22
TORSDOF 6
ENDMDL
MODEL 3
REMARK VINA RESULT:      -7.8      1.364      1.795
REMARK  6 active torsions:
REMARK  status: ('A' for Active; 'I' for Inactive)
REMARK    1  A    between atoms: C1_2  and  C2_3 
REMARK    2  A    between atoms: C2_3  and  C3_4 
REMARK    3  A    between atoms: C4_5  and  O2_6 
REMARK    4  A    between atoms: O2_6  and  C5_7 
REMARK    5  A    between atoms: C12_16  and  N2_17 
REMARK    6  A    between atoms: N2_17  and  C13_18 
ROOT
HETATM    1  C3  UNL     1      21.989   1.012  52.645  1.00  0.00     0.086 A 
HETATM    2  C4  UNL     1      20.644   1.035  53.226  1.00  0.00     0.058 A 
HETATM    3  C9  UNL     1      20.556   0.261  54.297  1.00  0.00     0.064 A 
HETATM    4  C10 UNL     1      21.814  -0.406  54.611  1.00  0.00     0.062 A 
HETATM    5  N1  UNL     1      22.449  -1.211  55.393  1.00  0.00    -0.283 NA
HETATM    6  C11 UNL     1      23.813  -1.370  54.983  1.00  0.00     0.207 A 
HETATM    7  C12 UNL     1      23.913  -0.493  53.770  1.00  0.00     0.039 A 
HETATM    8  C19 UNL     1      22.718   0.082  53.549  1.00  0.00     0.005 A 
ENDROOT
BRANCH   7   9
HETATM    9  N2  UNL     1      25.099  -0.334  53.009  1.00  0.00    -0.358 N 
HETATM   10  H15 UNL     1      24.930  -0.779  52.083  1.00  0.00     0.166 HD
BRANCH   9  11
HETATM   11  C13 UNL     1      26.332   0.289  53.341  1.00  0.00     0.034 A 
HETATM   12  C14 UNL     1      26.431   1.642  53.581  1.00  0.00     0.032 A 
HETATM   13  C15 UNL     1      27.677   2.163  53.900  1.00  0.00     0.046 A 
HETATM   14  C16 UNL     1      28.811   1.377  53.985  1.00  0.00     0.138 A 
HETATM   15  F1  UNL     1      30.041   1.818  54.288  1.00  0.00    -0.204 F 
HETATM   16  C17 UNL     1      28.656   0.033  53.736  1.00  0.00     0.074 A 
HETATM   17 CL1  UNL     1      30.042  -1.035  53.821  1.00  0.00    -0.081 Cl
HETATM   18  C18 UNL     1      27.443  -0.518  53.417  1.00  0.00     0.056 A 
ENDBRANCH   9  11
ENDBRANCH   7   9
BRANCH   1  19
HETATM   19  C2  UNL     1      22.651   2.355  52.548  1.00  0.00     0.085 C 
BRANCH  19  20
HETATM   20  C1  UNL     1      23.335   2.583  51.258  1.00  0.00     0.232 C 
HETATM   21  O1  UNL     1      24.196   1.794  50.902  1.00  0.00    -0.307 OA
ENDBRANCH  19  20
ENDBRANCH   1  19
BRANCH   2  22
HETATM   22  O2  UNL     1      19.739   1.831  52.577  1.00  0.00    -0.347 OA
BRANCH  22  23
HETATM   23  C5  UNL     1      19.101   1.611  51.363  1.00  0.00     0.154 C 
HETATM   24  C6  UNL     1      18.613   0.163  51.248  1.00  0.00     0.061 C 
HETATM   25  C7  UNL     1      17.112   0.426  51.117  1.00  0.00     0.170 C 
HETATM   26  O3  UNL     1      17.074   1.608  50.343  1.00  0.00    -0.389 OA
HETATM   27  C8  UNL     1      17.881   2.432  51.120  1.00  0.00     0.200 C 
ENDBRANCH  22  23
ENDBRANCH   2  22
TORSDOF 6
ENDMDL
MODEL 4
REMARK VINA RESULT:      -7.8      2.679      3.947
REMARK  6 active torsions:
REMARK  status: ('A' for Active; 'I' for Inactive)
REMARK    1  A    between atoms: C1_2  and  C2_3 
REMARK    2  A    between atoms: C2_3  and  C3_4 
REMARK    3  A    between atoms: C4_5  and  O2_6 
REMARK    4  A    between atoms: O2_6  and  C5_7 
REMARK    5  A    between atoms: C12_16  and  N2_17 
REMARK    6  A    between atoms: N2_17  and  C13_18 
ROOT
HETATM    1  C3  UNL     1      24.007   1.024  52.058  1.00  0.00     0.086 A 
HETATM    2  C4  UNL     1      22.856   1.358  51.215  1.00  0.00     0.058 A 
HETATM    3  C9  UNL     1      21.747   0.774  51.640  1.00  0.00     0.064 A 
HETATM    4  C10 UNL     1      21.965  -0.044  52.829  1.00  0.00     0.062 A 
HETATM    5  N1  UNL     1      21.450  -0.822  53.718  1.00  0.00    -0.283 NA
HETATM    6  C11 UNL     1      22.438  -1.267  54.656  1.00  0.00     0.207 A 
HETATM    7  C12 UNL     1      23.695  -0.605  54.174  1.00  0.00     0.039 A 
HETATM    8  C19 UNL     1      23.410   0.125  53.082  1.00  0.00     0.005 A 
ENDROOT
BRANCH   7   9
HETATM    9  N2  UNL     1      24.957  -0.761  54.802  1.00  0.00    -0.358 N 
HETATM   10  H15 UNL     1      24.775  -0.948  55.810  1.00  0.00     0.166 HD
BRANCH   9  11
HETATM   11  C13 UNL     1      26.270  -0.696  54.263  1.00  0.00     0.034 A 
HETATM   12  C14 UNL     1      26.704  -1.554  53.276  1.00  0.00     0.032 A 
HETATM   13  C15 UNL     1      28.003  -1.415  52.809  1.00  0.00     0.046 A 
HETATM   14  C16 UNL     1      28.869  -0.455  53.297  1.00  0.00     0.138 A 
HETATM   15  F1  UNL     1      30.134  -0.270  52.890  1.00  0.00    -0.204 F 
HETATM   16  C17 UNL     1      28.385   0.375  54.283  1.00  0.00     0.074 A 
HETATM   17 CL1  UNL     1      29.417   1.619  54.958  1.00  0.00    -0.081 Cl
HETATM   18  C18 UNL     1      27.109   0.269  54.769  1.00  0.00     0.056 A 
ENDBRANCH   9  11
ENDBRANCH   7   9
BRANCH   1  19
HETATM   19  C2  UNL     1      24.701   2.208  52.666  1.00  0.00     0.085 C 
BRANCH  19  20
HETATM   20  C1  UNL     1      26.042   2.460  52.099  1.00  0.00     0.232 C 
HETATM   21  O1  UNL     1      26.556   1.600  51.400  1.00  0.00    -0.307 OA
ENDBRANCH  19  20
ENDBRANCH   1  19
BRANCH   2  22
HETATM   22  O2  UNL     1      23.123   2.193  50.164  1.00  0.00    -0.347 OA
BRANCH  22  23
HETATM   23  C5  UNL     1      22.717   3.507  49.973  1.00  0.00     0.154 C 
HETATM   24  C6  UNL     1      21.935   4.026  51.184  1.00  0.00     0.061 C 
HETATM   25  C7  UNL     1      22.857   5.176  51.591  1.00  0.00     0.170 C 
HETATM   26  O3  UNL     1      23.302   5.669  50.343  1.00  0.00    -0.389 OA
HETATM   27  C8  UNL     1      23.815   4.500  49.791  1.00  0.00     0.200 C 
ENDBRANCH  22  23
ENDBRANCH   2  22
TORSDOF 6
ENDMDL
MODEL 5
REMARK VINA RESULT:      -7.6      4.515      7.522
REMARK  6 active torsions:
REMARK  status: ('A' for Active; 'I' for Inactive)
REMARK    1  A    between atoms: C1_2  and  C2_3 
REMARK    2  A    between atoms: C2_3  and  C3_4 
REMARK    3  A    between atoms: C4_5  and  O2_6 
REMARK    4  A    between atoms: O2_6  and  C5_7 
REMARK    5  A    between atoms: C12_16  and  N2_17 
REMARK    6  A    between atoms: N2_17  and  C13_18 
ROOT
HETATM    1  C3  UNL     1      24.492   2.300  52.071  1.00  0.00     0.086 A 
HETATM    2  C4  UNL     1      24.377   0.879  52.407  1.00  0.00     0.058 A 
HETATM    3  C9  UNL     1      23.128   0.535  52.677  1.00  0.00     0.064 A 
HETATM    4  C10 UNL     1      22.202   1.658  52.572  1.00  0.00     0.062 A 
HETATM    5  N1  UNL     1      20.986   2.073  52.670  1.00  0.00    -0.283 NA
HETATM    6  C11 UNL     1      20.887   3.472  52.374  1.00  0.00     0.207 A 
HETATM    7  C12 UNL     1      22.303   3.861  52.066  1.00  0.00     0.039 A 
HETATM    8  C19 UNL     1      23.087   2.777  52.185  1.00  0.00     0.005 A 
ENDROOT
BRANCH   7   9
HETATM    9  N2  UNL     1      22.700   5.177  51.716  1.00  0.00    -0.358 N 
HETATM   10  H15 UNL     1      22.335   5.812  52.456  1.00  0.00     0.166 HD
BRANCH   9  11
HETATM   11  C13 UNL     1      23.445   5.651  50.604  1.00  0.00     0.034 A 
HETATM   12  C14 UNL     1      23.166   5.265  49.311  1.00  0.00     0.032 A 
HETATM   13  C15 UNL     1      23.946   5.781  48.287  1.00  0.00     0.046 A 
HETATM   14  C16 UNL     1      24.986   6.663  48.518  1.00  0.00     0.138 A 
HETATM   15  F1  UNL     1      25.776   7.196  47.575  1.00  0.00    -0.204 F 
HETATM   16  C17 UNL     1      25.222   7.016  49.827  1.00  0.00     0.074 A 
HETATM   17 CL1  UNL     1      26.521   8.128  50.208  1.00  0.00    -0.081 Cl
HETATM   18  C18 UNL     1      24.474   6.527  50.864  1.00  0.00     0.056 A 
ENDBRANCH   9  11
ENDBRANCH   7   9
BRANCH   1  19
HETATM   19  C2  UNL     1      25.085   2.577  50.720  1.00  0.00     0.085 C 
BRANCH  19  20
HETATM   20  C1  UNL     1      26.424   3.198  50.781  1.00  0.00     0.232 C 
HETATM   21  O1  UNL     1      26.931   3.606  49.747  1.00  0.00    -0.307 OA
ENDBRANCH  19  20
ENDBRANCH   1  19
BRANCH   2  22
HETATM   22  O2  UNL     1      25.550   0.174  52.381  1.00  0.00    -0.347 OA
BRANCH  22  23
HETATM   23  C5  UNL     1      26.176  -0.511  53.415  1.00  0.00     0.154 C 
HETATM   24  C6  UNL     1      27.527  -1.077  52.966  1.00  0.00     0.061 C 
HETATM   25  C7  UNL     1      28.437  -0.326  53.938  1.00  0.00     0.170 C 
HETATM   26  O3  UNL     1      27.658  -0.285  55.118  1.00  0.00    -0.389 OA
HETATM   27  C8  UNL     1      26.499   0.302  54.622  1.00  0.00     0.200 C 
ENDBRANCH  22  23
ENDBRANCH   2  22
TORSDOF 6
ENDMDL
MODEL 6
REMARK VINA RESULT:      -7.5      4.287      7.621
REMARK  6 active torsions:
REMARK  status: ('A' for Active; 'I' for Inactive)
REMARK    1  A    between atoms: C1_2  and  C2_3 
REMARK    2  A    between atoms: C2_3  and  C3_4 
REMARK    3  A    between atoms: C4_5  and  O2_6 
REMARK    4  A    between atoms: O2_6  and  C5_7 
REMARK    5  A    between atoms: C12_16  and  N2_17 
REMARK    6  A    between atoms: N2_17  and  C13_18 
ROOT
HETATM    1  C3  UNL     1      23.641   1.274  52.977  1.00  0.00     0.086 A 
HETATM    2  C4  UNL     1      24.566   0.233  53.433  1.00  0.00     0.058 A 
HETATM    3  C9  UNL     1      23.926  -0.810  53.937  1.00  0.00     0.064 A 
HETATM    4  C10 UNL     1      22.477  -0.647  53.906  1.00  0.00     0.062 A 
HETATM    5  N1  UNL     1      21.323  -1.154  54.178  1.00  0.00    -0.283 NA
HETATM    6  C11 UNL     1      20.262  -0.267  53.799  1.00  0.00     0.207 A 
HETATM    7  C12 UNL     1      20.988   0.915  53.228  1.00  0.00     0.039 A 
HETATM    8  C19 UNL     1      22.310   0.687  53.292  1.00  0.00     0.005 A 
ENDROOT
BRANCH   7   9
HETATM    9  N2  UNL     1      20.336   2.068  52.718  1.00  0.00    -0.358 N 
HETATM   10  H15 UNL     1      19.547   2.282  53.363  1.00  0.00     0.166 HD
BRANCH   9  11
HETATM   11  C13 UNL     1      20.616   2.853  51.568  1.00  0.00     0.034 A 
HETATM   12  C14 UNL     1      20.565   2.335  50.292  1.00  0.00     0.032 A 
HETATM   13  C15 UNL     1      20.851   3.179  49.229  1.00  0.00     0.046 A 
HETATM   14  C16 UNL     1      21.184   4.509  49.404  1.00  0.00     0.138 A 
HETATM   15  F1  UNL     1      21.472   5.374  48.421  1.00  0.00    -0.204 F 
HETATM   16  C17 UNL     1      21.221   4.975  50.699  1.00  0.00     0.074 A 
HETATM   17 CL1  UNL     1      21.634   6.649  51.010  1.00  0.00    -0.081 Cl
HETATM   18  C18 UNL     1      20.944   4.173  51.774  1.00  0.00     0.056 A 
ENDBRANCH   9  11
ENDBRANCH   7   9
BRANCH   1  19
HETATM   19  C2  UNL     1      23.778   1.641  51.528  1.00  0.00     0.085 C 
BRANCH  19  20
HETATM   20  C1  UNL     1      24.391   2.968  51.313  1.00  0.00     0.232 C 
HETATM   21  O1  UNL     1      24.380   3.776  52.229  1.00  0.00    -0.307 OA
ENDBRANCH  19  20
ENDBRANCH   1  19
BRANCH   2  22
HETATM   22  O2  UNL     1      25.895   0.515  53.261  1.00  0.00    -0.347 OA
BRANCH  22  23
HETATM   23  C5  UNL     1      26.746   1.232  54.092  1.00  0.00     0.154 C 
HETATM   24  C6  UNL     1      27.748   0.307  54.790  1.00  0.00     0.061 C 
HETATM   25  C7  UNL     1      29.045   0.892  54.230  1.00  0.00     0.170 C 
HETATM   26  O3  UNL     1      28.759   2.275  54.178  1.00  0.00    -0.389 OA
HETATM   27  C8  UNL     1      27.596   2.253  53.416  1.00  0.00     0.200 C 
ENDBRANCH  22  23
ENDBRANCH   2  22
TORSDOF 6
ENDMDL
MODEL 7
REMARK VINA RESULT:      -7.4      4.589      8.294
REMARK  6 active torsions:
REMARK  status: ('A' for Active; 'I' for Inactive)
REMARK    1  A    between atoms: C1_2  and  C2_3 
REMARK    2  A    between atoms: C2_3  and  C3_4 
REMARK    3  A    between atoms: C4_5  and  O2_6 
REMARK    4  A    between atoms: O2_6  and  C5_7 
REMARK    5  A    between atoms: C12_16  and  N2_17 
REMARK    6  A    between atoms: N2_17  and  C13_18 
ROOT
HETATM    1  C3  UNL     1      24.559   1.461  51.642  1.00  0.00     0.086 A 
HETATM    2  C4  UNL     1      25.832   0.845  52.028  1.00  0.00     0.058 A 
HETATM    3  C9  UNL     1      26.869   1.520  51.558  1.00  0.00     0.064 A 
HETATM    4  C10 UNL     1      26.472   2.691  50.785  1.00  0.00     0.062 A 
HETATM    5  N1  UNL     1      26.848   3.714  50.095  1.00  0.00    -0.283 NA
HETATM    6  C11 UNL     1      25.723   4.463  49.617  1.00  0.00     0.207 A 
HETATM    7  C12 UNL     1      24.547   3.698  50.150  1.00  0.00     0.039 A 
HETATM    8  C19 UNL     1      24.996   2.640  50.847  1.00  0.00     0.005 A 
ENDROOT
BRANCH   7   9
HETATM    9  N2  UNL     1      23.197   4.069  49.923  1.00  0.00    -0.358 N 
HETATM   10  H15 UNL     1      23.175   5.108  49.854  1.00  0.00     0.166 HD
BRANCH   9  11
HETATM   11  C13 UNL     1      22.029   3.272  49.796  1.00  0.00     0.034 A 
HETATM   12  C14 UNL     1      21.941   2.232  48.897  1.00  0.00     0.032 A 
HETATM   13  C15 UNL     1      20.760   1.505  48.845  1.00  0.00     0.046 A 
HETATM   14  C16 UNL     1      19.678   1.789  49.657  1.00  0.00     0.138 A 
HETATM   15  F1  UNL     1      18.511   1.127  49.656  1.00  0.00    -0.204 F 
HETATM   16  C17 UNL     1      19.818   2.838  50.537  1.00  0.00     0.074 A 
HETATM   17 CL1  UNL     1      18.495   3.264  51.602  1.00  0.00    -0.081 Cl
HETATM   18  C18 UNL     1      20.968   3.577  50.617  1.00  0.00     0.056 A 
ENDBRANCH   9  11
ENDBRANCH   7   9
BRANCH   1  19
HETATM   19  C2  UNL     1      23.675   1.841  52.794  1.00  0.00     0.085 C 
BRANCH  19  20
HETATM   20  C1  UNL     1      22.545   0.912  53.001  1.00  0.00     0.232 C 
HETATM   21  O1  UNL     1      22.014   0.406  52.024  1.00  0.00    -0.307 OA
ENDBRANCH  19  20
ENDBRANCH   1  19
BRANCH   2  22
HETATM   22  O2  UNL     1      25.727  -0.290  52.786  1.00  0.00    -0.347 OA
BRANCH  22  23
HETATM   23  C5  UNL     1      26.575  -0.748  53.786  1.00  0.00     0.154 C 
HETATM   24  C6  UNL     1      27.862  -1.334  53.195  1.00  0.00     0.061 C 
HETATM   25  C7  UNL     1      28.874  -0.381  53.834  1.00  0.00     0.170 C 
HETATM   26  O3  UNL     1      28.317  -0.156  55.114  1.00  0.00    -0.389 OA
HETATM   27  C8  UNL     1      27.049   0.284  54.752  1.00  0.00     0.200 C 
ENDBRANCH  22  23
ENDBRANCH   2  22
TORSDOF 6
ENDMDL
MODEL 8
REMARK VINA RESULT:      -7.2      2.431      3.327
REMARK  6 active torsions:
REMARK  status: ('A' for Active; 'I' for Inactive)
REMARK    1  A    between atoms: C1_2  and  C2_3 
REMARK    2  A    between atoms: C2_3  and  C3_4 
REMARK    3  A    between atoms: C4_5  and  O2_6 
REMARK    4  A    between atoms: O2_6  and  C5_7 
REMARK    5  A    between atoms: C12_16  and  N2_17 
REMARK    6  A    between atoms: N2_17  and  C13_18 
ROOT
HETATM    1  C3  UNL     1      22.631   1.646  51.904  1.00  0.00     0.086 A 
HETATM    2  C4  UNL     1      21.293   2.221  52.066  1.00  0.00     0.058 A 
HETATM    3  C9  UNL     1      20.619   1.634  53.042  1.00  0.00     0.064 A 
HETATM    4  C10 UNL     1      21.383   0.575  53.693  1.00  0.00     0.062 A 
HETATM    5  N1  UNL     1      21.414  -0.337  54.604  1.00  0.00    -0.283 NA
HETATM    6  C11 UNL     1      22.669  -1.029  54.606  1.00  0.00     0.207 A 
HETATM    7  C12 UNL     1      23.433  -0.363  53.500  1.00  0.00     0.039 A 
HETATM    8  C19 UNL     1      22.664   0.595  52.956  1.00  0.00     0.005 A 
ENDROOT
BRANCH   7   9
HETATM    9  N2  UNL     1      24.752  -0.726  53.125  1.00  0.00    -0.358 N 
HETATM   10  H15 UNL     1      24.675  -1.568  52.516  1.00  0.00     0.166 HD
BRANCH   9  11
HETATM   11  C13 UNL     1      26.001  -0.134  53.453  1.00  0.00     0.034 A 
HETATM   12  C14 UNL     1      26.100   1.144  53.956  1.00  0.00     0.032 A 
HETATM   13  C15 UNL     1      27.363   1.639  54.250  1.00  0.00     0.046 A 
HETATM   14  C16 UNL     1      28.514   0.899  54.055  1.00  0.00     0.138 A 
HETATM   15  F1  UNL     1      29.761   1.318  54.317  1.00  0.00    -0.204 F 
HETATM   16  C17 UNL     1      28.358  -0.372  53.549  1.00  0.00     0.074 A 
HETATM   17 CL1  UNL     1      29.766  -1.377  53.272  1.00  0.00    -0.081 Cl
HETATM   18  C18 UNL     1      27.129  -0.894  53.248  1.00  0.00     0.056 A 
ENDBRANCH   9  11
ENDBRANCH   7   9
BRANCH   1  19
HETATM   19  C2  UNL     1      23.755   2.632  52.042  1.00  0.00     0.085 C 
BRANCH  19  20
HETATM   20  C1  UNL     1      24.653   2.668  50.870  1.00  0.00     0.232 C 
HETATM   21  O1  UNL     1      24.877   3.743  50.334  1.00  0.00    -0.307 OA
ENDBRANCH  19  20
ENDBRANCH   1  19
BRANCH   2  22
HETATM   22  O2  UNL     1      20.983   3.238  51.204  1.00  0.00    -0.347 OA
BRANCH  22  23
HETATM   23  C5  UNL     1      20.600   3.160  49.871  1.00  0.00     0.154 C 
HETATM   24  C6  UNL     1      21.631   3.834  48.959  1.00  0.00     0.061 C 
HETATM   25  C7  UNL     1      22.035   2.623  48.118  1.00  0.00     0.170 C 
HETATM   26  O3  UNL     1      20.814   1.924  47.980  1.00  0.00    -0.389 OA
HETATM   27  C8  UNL     1      20.465   1.782  49.319  1.00  0.00     0.200 C 
ENDBRANCH  22  23
ENDBRANCH   2  22
TORSDOF 6
ENDMDL
MODEL 9
REMARK VINA RESULT:      -7.1      4.587      8.649
REMARK  6 active torsions:
REMARK  status: ('A' for Active; 'I' for Inactive)
REMARK    1  A    between atoms: C1_2  and  C2_3 
REMARK    2  A    between atoms: C2_3  and  C3_4 
REMARK    3  A    between atoms: C4_5  and  O2_6 
REMARK    4  A    between atoms: O2_6  and  C5_7 
REMARK    5  A    between atoms: C12_16  and  N2_17 
REMARK    6  A    between atoms: N2_17  and  C13_18 
ROOT
HETATM    1  C3  UNL     1      23.229   0.987  52.032  1.00  0.00     0.086 A 
HETATM    2  C4  UNL     1      24.218   1.754  52.795  1.00  0.00     0.058 A 
HETATM    3  C9  UNL     1      23.854   3.018  52.944  1.00  0.00     0.064 A 
HETATM    4  C10 UNL     1      22.572   3.310  52.312  1.00  0.00     0.062 A 
HETATM    5  N1  UNL     1      21.667   4.191  52.052  1.00  0.00    -0.283 NA
HETATM    6  C11 UNL     1      20.590   3.625  51.295  1.00  0.00     0.207 A 
HETATM    7  C12 UNL     1      21.003   2.192  51.127  1.00  0.00     0.039 A 
HETATM    8  C19 UNL     1      22.187   2.006  51.734  1.00  0.00     0.005 A 
ENDROOT
BRANCH   7   9
HETATM    9  N2  UNL     1      20.233   1.228  50.425  1.00  0.00    -0.358 N 
HETATM   10  H15 UNL     1      20.731   1.034  49.531  1.00  0.00     0.166 HD
BRANCH   9  11
HETATM   11  C13 UNL     1      19.015   0.588  50.774  1.00  0.00     0.034 A 
HETATM   12  C14 UNL     1      17.867   0.730  50.024  1.00  0.00     0.032 A 
HETATM   13  C15 UNL     1      16.723   0.065  50.441  1.00  0.00     0.046 A 
HETATM   14  C16 UNL     1      16.696  -0.728  51.574  1.00  0.00     0.138 A 
HETATM   15  F1  UNL     1      15.625  -1.395  52.030  1.00  0.00    -0.204 F 
HETATM   16  C17 UNL     1      17.869  -0.834  52.286  1.00  0.00     0.074 A 
HETATM   17 CL1  UNL     1      17.921  -1.819  53.734  1.00  0.00    -0.081 Cl
HETATM   18  C18 UNL     1      19.018  -0.193  51.906  1.00  0.00     0.056 A 
ENDBRANCH   9  11
ENDBRANCH   7   9
BRANCH   1  19
HETATM   19  C2  UNL     1      22.676  -0.208  52.752  1.00  0.00     0.085 C 
BRANCH  19  20
HETATM   20  C1  UNL     1      22.297   0.071  54.152  1.00  0.00     0.232 C 
HETATM   21  O1  UNL     1      21.150  -0.154  54.507  1.00  0.00    -0.307 OA
ENDBRANCH  19  20
ENDBRANCH   1  19
BRANCH   2  22
HETATM   22  O2  UNL     1      25.315   1.048  53.208  1.00  0.00    -0.347 OA
BRANCH  22  23
HETATM   23  C5  UNL     1      26.276   1.404  54.145  1.00  0.00     0.154 C 
HETATM   24  C6  UNL     1      26.730   0.190  54.963  1.00  0.00     0.061 C 
HETATM   25  C7  UNL     1      28.210   0.181  54.579  1.00  0.00     0.170 C 
HETATM   26  O3  UNL     1      28.513   1.560  54.496  1.00  0.00    -0.389 OA
HETATM   27  C8  UNL     1      27.540   1.967  53.590  1.00  0.00     0.200 C 
ENDBRANCH  22  23
ENDBRANCH   2  22
TORSDOF 6
ENDMDL
