MODEL 1
REMARK VINA RESULT:      -8.7      0.000      0.000
REMARK  2 active torsions:
REMARK  status: ('A' for Active; 'I' for Inactive)
REMARK    1  A    between atoms: O1_1  and  C1_2 
REMARK    2  A    between atoms: C8_9  and  C9_10 
ROOT
HETATM    1  C1  UNL     1      22.927  -1.007  54.850  1.00  0.00     0.066 A 
HETATM    2  C2  UNL     1      21.589  -0.601  54.754  1.00  0.00     0.039 A 
HETATM    3  C3  UNL     1      21.243   0.382  53.856  1.00  0.00     0.043 A 
HETATM    4  C4  UNL     1      22.176   0.985  53.042  1.00  0.00     0.112 A 
HETATM    5  C5  UNL     1      23.477   0.565  53.161  1.00  0.00     0.035 A 
HETATM    6  C6  UNL     1      23.863  -0.408  54.040  1.00  0.00     0.053 A 
HETATM    7  C7  UNL     1      24.255   1.318  52.232  1.00  0.00     0.110 A 
HETATM    8  C8  UNL     1      25.537   1.313  51.953  1.00  0.00     0.115 A 
HETATM    9  O2  UNL     1      25.970   2.199  50.970  1.00  0.00    -0.318 OA
HETATM   10  C15 UNL     1      25.124   3.051  50.310  1.00  0.00     0.162 A 
HETATM   11  C16 UNL     1      23.828   3.081  50.572  1.00  0.00     0.148 A 
HETATM   12  N1  UNL     1      23.354   2.190  51.566  1.00  0.00    -0.222 N 
HETATM   13  O3  UNL     1      22.099   1.972  52.073  1.00  0.00    -0.230 OA
ENDROOT
BRANCH   8  14
HETATM   14  C9  UNL     1      26.632   0.537  52.493  1.00  0.00     0.000 A 
HETATM   15  C10 UNL     1      26.968  -0.813  52.469  1.00  0.00     0.014 A 
HETATM   16  C11 UNL     1      28.085  -1.355  53.048  1.00  0.00     0.001 A 
HETATM   17  C12 UNL     1      28.970  -0.534  53.718  1.00  0.00     0.000 A 
HETATM   18  C13 UNL     1      28.740   0.811  53.804  1.00  0.00     0.001 A 
HETATM   19  C14 UNL     1      27.590   1.290  53.194  1.00  0.00     0.014 A 
ENDBRANCH   8  14
BRANCH   1  20
HETATM   20  O1  UNL     1      23.094  -2.013  55.810  1.00  0.00    -0.361 OA
HETATM   21  H1  UNL     1      22.315  -2.566  56.144  1.00  0.00     0.217 HD
ENDBRANCH   1  20
TORSDOF 2
ENDMDL
MODEL 2
REMARK VINA RESULT:      -8.6      1.324      4.342
REMARK  2 active torsions:
REMARK  status: ('A' for Active; 'I' for Inactive)
REMARK    1  A    between atoms: O1_1  and  C1_2 
REMARK    2  A    between atoms: C8_9  and  C9_10 
ROOT
HETATM    1  C1  UNL     1      26.368   3.381  50.267  1.00  0.00     0.066 A 
HETATM    2  C2  UNL     1      25.239   3.845  49.578  1.00  0.00     0.039 A 
HETATM    3  C3  UNL     1      24.004   3.314  49.870  1.00  0.00     0.043 A 
HETATM    4  C4  UNL     1      23.840   2.334  50.823  1.00  0.00     0.112 A 
HETATM    5  C5  UNL     1      24.966   1.901  51.478  1.00  0.00     0.035 A 
HETATM    6  C6  UNL     1      26.210   2.402  51.219  1.00  0.00     0.053 A 
HETATM    7  C7  UNL     1      24.559   0.899  52.409  1.00  0.00     0.110 A 
HETATM    8  C8  UNL     1      25.234   0.169  53.264  1.00  0.00     0.115 A 
HETATM    9  O2  UNL     1      24.506  -0.735  54.032  1.00  0.00    -0.318 OA
HETATM   10  C15 UNL     1      23.148  -0.882  53.922  1.00  0.00     0.162 A 
HETATM   11  C16 UNL     1      22.442  -0.163  53.067  1.00  0.00     0.148 A 
HETATM   12  N1  UNL     1      23.152   0.768  52.270  1.00  0.00    -0.222 N 
HETATM   13  O3  UNL     1      22.737   1.646  51.304  1.00  0.00    -0.230 OA
ENDROOT
BRANCH   8  14
HETATM   14  C9  UNL     1      26.647   0.117  53.573  1.00  0.00     0.000 A 
HETATM   15  C10 UNL     1      27.505   0.913  54.324  1.00  0.00     0.014 A 
HETATM   16  C11 UNL     1      28.843   0.675  54.503  1.00  0.00     0.001 A 
HETATM   17  C12 UNL     1      29.423  -0.427  53.910  1.00  0.00     0.000 A 
HETATM   18  C13 UNL     1      28.674  -1.281  53.149  1.00  0.00     0.001 A 
HETATM   19  C14 UNL     1      27.327  -0.978  53.011  1.00  0.00     0.014 A 
ENDBRANCH   8  14
BRANCH   1  20
HETATM   20  O1  UNL     1      27.535   4.030  49.842  1.00  0.00    -0.361 OA
HETATM   21  H1  UNL     1      27.609   4.446  48.922  1.00  0.00     0.217 HD
ENDBRANCH   1  20
TORSDOF 2
ENDMDL
MODEL 3
REMARK VINA RESULT:      -8.6      1.943      5.639
REMARK  2 active torsions:
REMARK  status: ('A' for Active; 'I' for Inactive)
REMARK    1  A    between atoms: O1_1  and  C1_2 
REMARK    2  A    between atoms: C8_9  and  C9_10 
ROOT
HETATM    1  C1  UNL     1      28.424   2.121  53.438  1.00  0.00     0.066 A 
HETATM    2  C2  UNL     1      29.029   1.138  54.232  1.00  0.00     0.039 A 
HETATM    3  C3  UNL     1      28.261   0.121  54.751  1.00  0.00     0.043 A 
HETATM    4  C4  UNL     1      26.908   0.037  54.514  1.00  0.00     0.112 A 
HETATM    5  C5  UNL     1      26.346   1.017  53.734  1.00  0.00     0.035 A 
HETATM    6  C6  UNL     1      27.072   2.043  53.199  1.00  0.00     0.053 A 
HETATM    7  C7  UNL     1      24.952   0.729  53.625  1.00  0.00     0.110 A 
HETATM    8  C8  UNL     1      23.974   1.345  53.007  1.00  0.00     0.115 A 
HETATM    9  O2  UNL     1      22.707   0.779  53.113  1.00  0.00    -0.318 OA
HETATM   10  C15 UNL     1      22.459  -0.366  53.824  1.00  0.00     0.162 A 
HETATM   11  C16 UNL     1      23.425  -1.007  54.460  1.00  0.00     0.148 A 
HETATM   12  N1  UNL     1      24.728  -0.458  54.370  1.00  0.00    -0.222 N 
HETATM   13  O3  UNL     1      25.925  -0.860  54.902  1.00  0.00    -0.230 OA
ENDROOT
BRANCH   8  14
HETATM   14  C9  UNL     1      23.955   2.552  52.208  1.00  0.00     0.000 A 
HETATM   15  C10 UNL     1      23.766   3.900  52.492  1.00  0.00     0.014 A 
HETATM   16  C11 UNL     1      23.798   4.910  51.567  1.00  0.00     0.001 A 
HETATM   17  C12 UNL     1      24.034   4.611  50.241  1.00  0.00     0.000 A 
HETATM   18  C13 UNL     1      24.236   3.317  49.847  1.00  0.00     0.001 A 
HETATM   19  C14 UNL     1      24.188   2.346  50.836  1.00  0.00     0.014 A 
ENDBRANCH   8  14
BRANCH   1  20
HETATM   20  O1  UNL     1      29.352   3.073  52.997  1.00  0.00    -0.361 OA
HETATM   21  H1  UNL     1      29.844   3.676  53.643  1.00  0.00     0.217 HD
ENDBRANCH   1  20
TORSDOF 2
ENDMDL
MODEL 4
REMARK VINA RESULT:      -8.0      1.909      5.321
REMARK  2 active torsions:
REMARK  status: ('A' for Active; 'I' for Inactive)
REMARK    1  A    between atoms: O1_1  and  C1_2 
REMARK    2  A    between atoms: C8_9  and  C9_10 
ROOT
HETATM    1  C1  UNL     1      23.960   2.683  50.342  1.00  0.00     0.066 A 
HETATM    2  C2  UNL     1      24.923   3.521  49.763  1.00  0.00     0.039 A 
HETATM    3  C3  UNL     1      26.211   3.506  50.246  1.00  0.00     0.043 A 
HETATM    4  C4  UNL     1      26.588   2.688  51.287  1.00  0.00     0.112 A 
HETATM    5  C5  UNL     1      25.621   1.881  51.833  1.00  0.00     0.035 A 
HETATM    6  C6  UNL     1      24.331   1.865  51.383  1.00  0.00     0.053 A 
HETATM    7  C7  UNL     1      26.233   1.131  52.881  1.00  0.00     0.110 A 
HETATM    8  C8  UNL     1      25.758   0.235  53.713  1.00  0.00     0.115 A 
HETATM    9  O2  UNL     1      26.651  -0.306  54.633  1.00  0.00    -0.318 OA
HETATM   10  C15 UNL     1      27.970   0.061  54.696  1.00  0.00     0.162 A 
HETATM   11  C16 UNL     1      28.477   0.964  53.873  1.00  0.00     0.148 A 
HETATM   12  N1  UNL     1      27.594   1.533  52.922  1.00  0.00    -0.222 N 
HETATM   13  O3  UNL     1      27.788   2.478  51.949  1.00  0.00    -0.230 OA
ENDROOT
BRANCH   8  14
HETATM   14  C9  UNL     1      24.430  -0.319  53.868  1.00  0.00     0.000 A 
HETATM   15  C10 UNL     1      23.312  -0.401  53.045  1.00  0.00     0.014 A 
HETATM   16  C11 UNL     1      22.125  -0.992  53.389  1.00  0.00     0.001 A 
HETATM   17  C12 UNL     1      21.986  -1.562  54.638  1.00  0.00     0.000 A 
HETATM   18  C13 UNL     1      23.021  -1.541  55.530  1.00  0.00     0.001 A 
HETATM   19  C14 UNL     1      24.193  -0.925  55.115  1.00  0.00     0.014 A 
ENDBRANCH   8  14
BRANCH   1  20
HETATM   20  O1  UNL     1      22.710   2.830  49.727  1.00  0.00    -0.361 OA
HETATM   21  H1  UNL     1      22.210   2.039  49.341  1.00  0.00     0.217 HD
ENDBRANCH   1  20
TORSDOF 2
ENDMDL
MODEL 5
REMARK VINA RESULT:      -7.7      2.582      5.527
REMARK  2 active torsions:
REMARK  status: ('A' for Active; 'I' for Inactive)
REMARK    1  A    between atoms: O1_1  and  C1_2 
REMARK    2  A    between atoms: C8_9  and  C9_10 
ROOT
HETATM    1  C1  UNL     1      24.941  -0.127  53.773  1.00  0.00     0.066 A 
HETATM    2  C2  UNL     1      24.859  -0.896  54.941  1.00  0.00     0.039 A 
HETATM    3  C3  UNL     1      23.635  -1.378  55.348  1.00  0.00     0.043 A 
HETATM    4  C4  UNL     1      22.482  -1.126  54.640  1.00  0.00     0.112 A 
HETATM    5  C5  UNL     1      22.597  -0.368  53.502  1.00  0.00     0.035 A 
HETATM    6  C6  UNL     1      23.792   0.129  53.062  1.00  0.00     0.053 A 
HETATM    7  C7  UNL     1      21.292  -0.240  52.940  1.00  0.00     0.110 A 
HETATM    8  C8  UNL     1      20.853   0.382  51.872  1.00  0.00     0.115 A 
HETATM    9  O2  UNL     1      19.487   0.303  51.615  1.00  0.00    -0.318 OA
HETATM   10  C15 UNL     1      18.615  -0.381  52.422  1.00  0.00     0.162 A 
HETATM   11  C16 UNL     1      19.029  -1.014  53.506  1.00  0.00     0.148 A 
HETATM   12  N1  UNL     1      20.414  -0.955  53.796  1.00  0.00    -0.222 N 
HETATM   13  O3  UNL     1      21.155  -1.483  54.820  1.00  0.00    -0.230 OA
ENDROOT
BRANCH   8  14
HETATM   14  C9  UNL     1      21.540   1.169  50.871  1.00  0.00     0.000 A 
HETATM   15  C10 UNL     1      22.422   2.244  50.920  1.00  0.00     0.014 A 
HETATM   16  C11 UNL     1      22.981   2.852  49.827  1.00  0.00     0.001 A 
HETATM   17  C12 UNL     1      22.673   2.393  48.562  1.00  0.00     0.000 A 
HETATM   18  C13 UNL     1      21.818   1.341  48.394  1.00  0.00     0.001 A 
HETATM   19  C14 UNL     1      21.289   0.774  49.545  1.00  0.00     0.014 A 
ENDBRANCH   8  14
BRANCH   1  20
HETATM   20  O1  UNL     1      26.257   0.276  53.512  1.00  0.00    -0.361 OA
HETATM   21  H1  UNL     1      26.788  -0.105  52.738  1.00  0.00     0.217 HD
ENDBRANCH   1  20
TORSDOF 2
ENDMDL
MODEL 6
REMARK VINA RESULT:      -7.6      1.878      4.139
REMARK  2 active torsions:
REMARK  status: ('A' for Active; 'I' for Inactive)
REMARK    1  A    between atoms: O1_1  and  C1_2 
REMARK    2  A    between atoms: C8_9  and  C9_10 
ROOT
HETATM    1  C1  UNL     1      23.598   4.175  51.797  1.00  0.00     0.066 A 
HETATM    2  C2  UNL     1      22.298   4.672  51.638  1.00  0.00     0.039 A 
HETATM    3  C3  UNL     1      21.225   3.883  51.986  1.00  0.00     0.043 A 
HETATM    4  C4  UNL     1      21.390   2.611  52.486  1.00  0.00     0.112 A 
HETATM    5  C5  UNL     1      22.676   2.154  52.627  1.00  0.00     0.035 A 
HETATM    6  C6  UNL     1      23.768   2.905  52.296  1.00  0.00     0.053 A 
HETATM    7  C7  UNL     1      22.603   0.831  53.158  1.00  0.00     0.110 A 
HETATM    8  C8  UNL     1      23.530  -0.043  53.468  1.00  0.00     0.115 A 
HETATM    9  O2  UNL     1      23.098  -1.267  53.970  1.00  0.00    -0.318 OA
HETATM   10  C15 UNL     1      21.774  -1.578  54.140  1.00  0.00     0.162 A 
HETATM   11  C16 UNL     1      20.817  -0.718  53.832  1.00  0.00     0.148 A 
HETATM   12  N1  UNL     1      21.223   0.539  53.321  1.00  0.00    -0.222 N 
HETATM   13  O3  UNL     1      20.506   1.630  52.907  1.00  0.00    -0.230 OA
ENDROOT
BRANCH   8  14
HETATM   14  C9  UNL     1      24.973   0.020  53.383  1.00  0.00     0.000 A 
HETATM   15  C10 UNL     1      25.884  -0.001  52.332  1.00  0.00     0.014 A 
HETATM   16  C11 UNL     1      27.245   0.084  52.470  1.00  0.00     0.001 A 
HETATM   17  C12 UNL     1      27.795   0.201  53.730  1.00  0.00     0.000 A 
HETATM   18  C13 UNL     1      26.993   0.232  54.837  1.00  0.00     0.001 A 
HETATM   19  C14 UNL     1      25.626   0.142  54.623  1.00  0.00     0.014 A 
ENDBRANCH   8  14
BRANCH   1  20
HETATM   20  O1  UNL     1      24.561   5.110  51.396  1.00  0.00    -0.361 OA
HETATM   21  H1  UNL     1      24.302   6.013  51.019  1.00  0.00     0.217 HD
ENDBRANCH   1  20
TORSDOF 2
ENDMDL
MODEL 7
REMARK VINA RESULT:      -7.4      1.830      5.919
REMARK  2 active torsions:
REMARK  status: ('A' for Active; 'I' for Inactive)
REMARK    1  A    between atoms: O1_1  and  C1_2 
REMARK    2  A    between atoms: C8_9  and  C9_10 
ROOT
HETATM    1  C1  UNL     1      23.897   3.767  49.635  1.00  0.00     0.066 A 
HETATM    2  C2  UNL     1      25.152   4.300  49.309  1.00  0.00     0.039 A 
HETATM    3  C3  UNL     1      26.279   3.797  49.918  1.00  0.00     0.043 A 
HETATM    4  C4  UNL     1      26.214   2.781  50.844  1.00  0.00     0.112 A 
HETATM    5  C5  UNL     1      24.970   2.282  51.141  1.00  0.00     0.035 A 
HETATM    6  C6  UNL     1      23.827   2.752  50.560  1.00  0.00     0.053 A 
HETATM    7  C7  UNL     1      25.145   1.249  52.110  1.00  0.00     0.110 A 
HETATM    8  C8  UNL     1      24.290   0.469  52.727  1.00  0.00     0.115 A 
HETATM    9  O2  UNL     1      24.814  -0.446  53.635  1.00  0.00    -0.318 OA
HETATM   10  C15 UNL     1      26.155  -0.550  53.898  1.00  0.00     0.162 A 
HETATM   11  C16 UNL     1      27.040   0.225  53.295  1.00  0.00     0.148 A 
HETATM   12  N1  UNL     1      26.540   1.167  52.363  1.00  0.00    -0.222 N 
HETATM   13  O3  UNL     1      27.169   2.104  51.586  1.00  0.00    -0.230 OA
ENDROOT
BRANCH   8  14
HETATM   14  C9  UNL     1      22.848   0.375  52.645  1.00  0.00     0.000 A 
HETATM   15  C10 UNL     1      21.937   0.338  51.594  1.00  0.00     0.014 A 
HETATM   16  C11 UNL     1      20.579   0.233  51.736  1.00  0.00     0.001 A 
HETATM   17  C12 UNL     1      20.031   0.155  53.000  1.00  0.00     0.000 A 
HETATM   18  C13 UNL     1      20.832   0.180  54.107  1.00  0.00     0.001 A 
HETATM   19  C14 UNL     1      22.198   0.289  53.889  1.00  0.00     0.014 A 
ENDBRANCH   8  14
BRANCH   1  20
HETATM   20  O1  UNL     1      22.868   4.396  48.922  1.00  0.00    -0.361 OA
HETATM   21  H1  UNL     1      22.592   4.084  48.000  1.00  0.00     0.217 HD
ENDBRANCH   1  20
TORSDOF 2
ENDMDL
MODEL 8
REMARK VINA RESULT:      -7.1      2.332      5.342
REMARK  2 active torsions:
REMARK  status: ('A' for Active; 'I' for Inactive)
REMARK    1  A    between atoms: O1_1  and  C1_2 
REMARK    2  A    between atoms: C8_9  and  C9_10 
ROOT
HETATM    1  C1  UNL     1      20.692   1.895  49.043  1.00  0.00     0.066 A 
HETATM    2  C2  UNL     1      21.226   2.626  47.974  1.00  0.00     0.039 A 
HETATM    3  C3  UNL     1      22.529   3.065  48.038  1.00  0.00     0.043 A 
HETATM    4  C4  UNL     1      23.330   2.808  49.128  1.00  0.00     0.112 A 
HETATM    5  C5  UNL     1      22.776   2.092  50.159  1.00  0.00     0.035 A 
HETATM    6  C6  UNL     1      21.488   1.637  50.135  1.00  0.00     0.053 A 
HETATM    7  C7  UNL     1      23.777   1.947  51.166  1.00  0.00     0.110 A 
HETATM    8  C8  UNL     1      23.765   1.363  52.339  1.00  0.00     0.115 A 
HETATM    9  O2  UNL     1      24.942   1.416  53.081  1.00  0.00    -0.318 OA
HETATM   10  C15 UNL     1      26.076   2.044  52.636  1.00  0.00     0.162 A 
HETATM   11  C16 UNL     1      26.117   2.644  51.459  1.00  0.00     0.148 A 
HETATM   12  N1  UNL     1      24.936   2.607  50.677  1.00  0.00    -0.222 N 
HETATM   13  O3  UNL     1      24.643   3.123  49.442  1.00  0.00    -0.230 OA
ENDROOT
BRANCH   8  14
HETATM   14  C9  UNL     1      22.722   0.649  53.043  1.00  0.00     0.000 A 
HETATM   15  C10 UNL     1      21.491   1.011  53.579  1.00  0.00     0.014 A 
HETATM   16  C11 UNL     1      20.627   0.157  54.212  1.00  0.00     0.001 A 
HETATM   17  C12 UNL     1      20.965  -1.174  54.349  1.00  0.00     0.000 A 
HETATM   18  C13 UNL     1      22.152  -1.643  53.858  1.00  0.00     0.001 A 
HETATM   19  C14 UNL     1      22.977  -0.722  53.230  1.00  0.00     0.014 A 
ENDBRANCH   8  14
BRANCH   1  20
HETATM   20  O1  UNL     1      19.361   1.531  48.806  1.00  0.00    -0.361 OA
HETATM   21  H1  UNL     1      18.600   2.189  48.919  1.00  0.00     0.217 HD
ENDBRANCH   1  20
TORSDOF 2
ENDMDL
MODEL 9
REMARK VINA RESULT:      -7.1      2.145      4.928
REMARK  2 active torsions:
REMARK  status: ('A' for Active; 'I' for Inactive)
REMARK    1  A    between atoms: O1_1  and  C1_2 
REMARK    2  A    between atoms: C8_9  and  C9_10 
ROOT
HETATM    1  C1  UNL     1      26.100   4.813  49.526  1.00  0.00     0.066 A 
HETATM    2  C2  UNL     1      25.215   5.527  48.706  1.00  0.00     0.039 A 
HETATM    3  C3  UNL     1      23.890   5.157  48.657  1.00  0.00     0.043 A 
HETATM    4  C4  UNL     1      23.402   4.101  49.393  1.00  0.00     0.112 A 
HETATM    5  C5  UNL     1      24.294   3.422  50.184  1.00  0.00     0.035 A 
HETATM    6  C6  UNL     1      25.617   3.756  50.262  1.00  0.00     0.053 A 
HETATM    7  C7  UNL     1      23.574   2.384  50.846  1.00  0.00     0.110 A 
HETATM    8  C8  UNL     1      23.950   1.457  51.695  1.00  0.00     0.115 A 
HETATM    9  O2  UNL     1      22.965   0.585  52.150  1.00  0.00    -0.318 OA
HETATM   10  C15 UNL     1      21.658   0.661  51.748  1.00  0.00     0.162 A 
HETATM   11  C16 UNL     1      21.250   1.582  50.891  1.00  0.00     0.148 A 
HETATM   12  N1  UNL     1      22.227   2.488  50.409  1.00  0.00    -0.222 N 
HETATM   13  O3  UNL     1      22.145   3.534  49.528  1.00  0.00    -0.230 OA
ENDROOT
BRANCH   8  14
HETATM   14  C9  UNL     1      25.242   1.152  52.269  1.00  0.00     0.000 A 
HETATM   15  C10 UNL     1      26.215   0.191  52.012  1.00  0.00     0.014 A 
HETATM   16  C11 UNL     1      27.405   0.079  52.682  1.00  0.00     0.001 A 
HETATM   17  C12 UNL     1      27.700   0.966  53.697  1.00  0.00     0.000 A 
HETATM   18  C13 UNL     1      26.817   1.953  54.035  1.00  0.00     0.001 A 
HETATM   19  C14 UNL     1      25.632   2.007  53.315  1.00  0.00     0.014 A 
ENDBRANCH   8  14
BRANCH   1  20
HETATM   20  O1  UNL     1      27.401   5.326  49.452  1.00  0.00    -0.361 OA
HETATM   21  H1  UNL     1      27.990   5.170  48.643  1.00  0.00     0.217 HD
ENDBRANCH   1  20
TORSDOF 2
ENDMDL
