MODEL 1
REMARK VINA RESULT:      -7.5      0.000      0.000
REMARK  5 active torsions:
REMARK  status: ('A' for Active; 'I' for Inactive)
REMARK    1  A    between atoms: C4_4  and  N1_5 
REMARK    2  A    between atoms: C4_4  and  C5_6 
REMARK    3  A    between atoms: C6_7  and  N2_8 
REMARK    4  A    between atoms: N2_8  and  C7_9 
REMARK    5  A    between atoms: C10_13  and  C11_14 
ROOT
HETATM    1  C1  UNL     1      20.508   0.818  50.574  1.00  0.00     0.017 C 
HETATM    2  C2  UNL     1      19.611   0.354  51.243  1.00  0.00    -0.087 C 
HETATM    3  C3  UNL     1      18.554  -0.168  52.035  1.00  0.00     0.092 C 
HETATM    4  C4  UNL     1      18.808  -0.885  53.127  1.00  0.00     0.035 C 
ENDROOT
BRANCH   4   5
HETATM    5  N1  UNL     1      17.782  -1.434  53.959  1.00  0.00    -0.399 N 
HETATM    6  H3  UNL     1      17.619  -0.834  54.796  1.00  0.00     0.156 HD
HETATM    7  H4  UNL     1      17.243  -2.330  53.772  1.00  0.00     0.156 HD
ENDBRANCH   4   5
BRANCH   4   8
HETATM    8  C5  UNL     1      20.200  -1.156  53.541  1.00  0.00     0.047 C 
HETATM    9  C6  UNL     1      20.893  -0.344  54.348  1.00  0.00     0.108 C 
BRANCH   9  10
HETATM   10  N2  UNL     1      22.244  -0.659  54.716  1.00  0.00    -0.198 N 
HETATM   11  H7  UNL     1      22.521  -1.223  55.540  1.00  0.00     0.183 HD
BRANCH  10  12
HETATM   12  C7  UNL     1      23.260  -0.137  53.857  1.00  0.00     0.726 A 
HETATM   13  N3  UNL     1      22.974   0.925  53.059  1.00  0.00    -0.075 NA
HETATM   14  C8  UNL     1      23.927   1.438  52.233  1.00  0.00     0.139 A 
HETATM   15  C9  UNL     1      25.168   0.837  52.251  1.00  0.00     0.053 A 
HETATM   16  C10 UNL     1      25.478  -0.239  53.053  1.00  0.00     0.089 A 
HETATM   17  N5  UNL     1      24.501  -0.705  53.847  1.00  0.00    -0.062 NA
BRANCH  16  18
HETATM   18  C11 UNL     1      26.778  -0.896  53.096  1.00  0.00     0.011 A 
HETATM   19  C12 UNL     1      27.849  -0.140  53.522  1.00  0.00     0.017 A 
HETATM   20  C13 UNL     1      29.079  -0.803  53.550  1.00  0.00     0.020 A 
HETATM   21  C14 UNL     1      29.276  -2.119  53.192  1.00  0.00     0.116 A 
HETATM   22  N4  UNL     1      28.188  -2.819  52.781  1.00  0.00    -0.272 NA
HETATM   23  C15 UNL     1      26.969  -2.212  52.737  1.00  0.00     0.130 A 
ENDBRANCH  16  18
ENDBRANCH  10  12
ENDBRANCH   9  10
ENDBRANCH   4   8
TORSDOF 5
ENDMDL
MODEL 2
REMARK VINA RESULT:      -7.4      1.753      7.787
REMARK  5 active torsions:
REMARK  status: ('A' for Active; 'I' for Inactive)
REMARK    1  A    between atoms: C4_4  and  N1_5 
REMARK    2  A    between atoms: C4_4  and  C5_6 
REMARK    3  A    between atoms: C6_7  and  N2_8 
REMARK    4  A    between atoms: N2_8  and  C7_9 
REMARK    5  A    between atoms: C10_13  and  C11_14 
ROOT
HETATM    1  C1  UNL     1      29.062  -2.521  53.164  1.00  0.00     0.017 C 
HETATM    2  C2  UNL     1      29.442  -1.391  53.375  1.00  0.00    -0.087 C 
HETATM    3  C3  UNL     1      29.901  -0.073  53.642  1.00  0.00     0.092 C 
HETATM    4  C4  UNL     1      29.074   0.855  54.117  1.00  0.00     0.035 C 
ENDROOT
BRANCH   4   5
HETATM    5  N1  UNL     1      29.483   2.196  54.402  1.00  0.00    -0.399 N 
HETATM    6  H3  UNL     1      28.669   2.848  54.379  1.00  0.00     0.156 HD
HETATM    7  H4  UNL     1      30.475   2.511  54.614  1.00  0.00     0.156 HD
ENDBRANCH   4   5
BRANCH   4   8
HETATM    8  C5  UNL     1      27.655   0.535  54.377  1.00  0.00     0.047 C 
HETATM    9  C6  UNL     1      26.679   0.772  53.493  1.00  0.00     0.108 C 
BRANCH   9  10
HETATM   10  N2  UNL     1      25.318   0.439  53.802  1.00  0.00    -0.198 N 
HETATM   11  H7  UNL     1      25.008  -0.093  54.636  1.00  0.00     0.183 HD
BRANCH  10  12
HETATM   12  C7  UNL     1      24.339   0.892  52.864  1.00  0.00     0.726 A 
HETATM   13  N3  UNL     1      24.703   1.780  51.901  1.00  0.00    -0.075 NA
HETATM   14  C8  UNL     1      23.786   2.224  50.997  1.00  0.00     0.139 A 
HETATM   15  C9  UNL     1      22.501   1.736  51.108  1.00  0.00     0.053 A 
HETATM   16  C10 UNL     1      22.113   0.836  52.075  1.00  0.00     0.089 A 
HETATM   17  N5  UNL     1      23.057   0.431  52.941  1.00  0.00    -0.062 NA
BRANCH  16  18
HETATM   18  C11 UNL     1      20.766   0.301  52.220  1.00  0.00     0.011 A 
HETATM   19  C12 UNL     1      19.893   0.509  51.173  1.00  0.00     0.017 A 
HETATM   20  C13 UNL     1      18.610  -0.018  51.347  1.00  0.00     0.020 A 
HETATM   21  C14 UNL     1      18.183  -0.708  52.461  1.00  0.00     0.116 A 
HETATM   22  N4  UNL     1      19.082  -0.885  53.461  1.00  0.00    -0.272 NA
HETATM   23  C15 UNL     1      20.344  -0.388  53.335  1.00  0.00     0.130 A 
ENDBRANCH  16  18
ENDBRANCH  10  12
ENDBRANCH   9  10
ENDBRANCH   4   8
TORSDOF 5
ENDMDL
MODEL 3
REMARK VINA RESULT:      -7.3      2.042      3.312
REMARK  5 active torsions:
REMARK  status: ('A' for Active; 'I' for Inactive)
REMARK    1  A    between atoms: C4_4  and  N1_5 
REMARK    2  A    between atoms: C4_4  and  C5_6 
REMARK    3  A    between atoms: C6_7  and  N2_8 
REMARK    4  A    between atoms: N2_8  and  C7_9 
REMARK    5  A    between atoms: C10_13  and  C11_14 
ROOT
HETATM    1  C1  UNL     1      24.033  -0.849  54.416  1.00  0.00     0.017 C 
HETATM    2  C2  UNL     1      22.829  -0.897  54.531  1.00  0.00    -0.087 C 
HETATM    3  C3  UNL     1      21.417  -0.978  54.667  1.00  0.00     0.092 C 
HETATM    4  C4  UNL     1      20.614  -0.673  53.651  1.00  0.00     0.035 C 
ENDROOT
BRANCH   4   5
HETATM    5  N1  UNL     1      19.187  -0.737  53.735  1.00  0.00    -0.399 N 
HETATM    6  H3  UNL     1      18.761   0.203  53.586  1.00  0.00     0.156 HD
HETATM    7  H4  UNL     1      18.614  -1.612  53.920  1.00  0.00     0.156 HD
ENDBRANCH   4   5
BRANCH   4   8
HETATM    8  C5  UNL     1      21.174  -0.241  52.355  1.00  0.00     0.047 C 
HETATM    9  C6  UNL     1      21.326   1.045  52.016  1.00  0.00     0.108 C 
BRANCH   9  10
HETATM   10  N2  UNL     1      21.877   1.405  50.741  1.00  0.00    -0.198 N 
HETATM   11  H7  UNL     1      21.388   1.311  49.832  1.00  0.00     0.183 HD
BRANCH  10  12
HETATM   12  C7  UNL     1      23.206   1.930  50.765  1.00  0.00     0.726 A 
HETATM   13  N3  UNL     1      23.521   2.977  49.957  1.00  0.00    -0.075 NA
HETATM   14  C8  UNL     1      24.782   3.492  49.964  1.00  0.00     0.139 A 
HETATM   15  C9  UNL     1      25.698   2.911  50.815  1.00  0.00     0.053 A 
HETATM   16  C10 UNL     1      25.399   1.850  51.641  1.00  0.00     0.089 A 
HETATM   17  N5  UNL     1      24.141   1.380  51.594  1.00  0.00    -0.062 NA
BRANCH  16  18
HETATM   18  C11 UNL     1      26.342   1.213  52.550  1.00  0.00     0.011 A 
HETATM   19  C12 UNL     1      26.828  -0.024  52.183  1.00  0.00     0.017 A 
HETATM   20  C13 UNL     1      27.730  -0.605  53.078  1.00  0.00     0.020 A 
HETATM   21  C14 UNL     1      28.146  -0.036  54.262  1.00  0.00     0.116 A 
HETATM   22  N4  UNL     1      27.637   1.182  54.576  1.00  0.00    -0.272 NA
HETATM   23  C15 UNL     1      26.754   1.786  53.732  1.00  0.00     0.130 A 
ENDBRANCH  16  18
ENDBRANCH  10  12
ENDBRANCH   9  10
ENDBRANCH   4   8
TORSDOF 5
ENDMDL
MODEL 4
REMARK VINA RESULT:      -7.2      2.261      6.916
REMARK  5 active torsions:
REMARK  status: ('A' for Active; 'I' for Inactive)
REMARK    1  A    between atoms: C4_4  and  N1_5 
REMARK    2  A    between atoms: C4_4  and  C5_6 
REMARK    3  A    between atoms: C6_7  and  N2_8 
REMARK    4  A    between atoms: N2_8  and  C7_9 
REMARK    5  A    between atoms: C10_13  and  C11_14 
ROOT
HETATM    1  C1  UNL     1      27.084  -1.782  52.668  1.00  0.00     0.017 C 
HETATM    2  C2  UNL     1      27.764  -1.040  53.342  1.00  0.00    -0.087 C 
HETATM    3  C3  UNL     1      28.545  -0.171  54.151  1.00  0.00     0.092 C 
HETATM    4  C4  UNL     1      28.674   1.117  53.842  1.00  0.00     0.035 C 
ENDROOT
BRANCH   4   5
HETATM    5  N1  UNL     1      29.447   2.034  54.621  1.00  0.00    -0.399 N 
HETATM    6  H3  UNL     1      29.679   2.889  54.070  1.00  0.00     0.156 HD
HETATM    7  H4  UNL     1      29.756   1.889  55.627  1.00  0.00     0.156 HD
ENDBRANCH   4   5
BRANCH   4   8
HETATM    8  C5  UNL     1      28.006   1.674  52.648  1.00  0.00     0.047 C 
HETATM    9  C6  UNL     1      26.943   2.483  52.716  1.00  0.00     0.108 C 
BRANCH   9  10
HETATM   10  N2  UNL     1      26.335   2.995  51.521  1.00  0.00    -0.198 N 
HETATM   11  H7  UNL     1      26.778   3.666  50.868  1.00  0.00     0.183 HD
BRANCH  10  12
HETATM   12  C7  UNL     1      25.017   2.518  51.242  1.00  0.00     0.726 A 
HETATM   13  N3  UNL     1      24.385   2.935  50.112  1.00  0.00    -0.075 NA
HETATM   14  C8  UNL     1      23.130   2.493  49.827  1.00  0.00     0.139 A 
HETATM   15  C9  UNL     1      22.548   1.621  50.723  1.00  0.00     0.053 A 
HETATM   16  C10 UNL     1      23.171   1.186  51.872  1.00  0.00     0.089 A 
HETATM   17  N5  UNL     1      24.408   1.653  52.104  1.00  0.00    -0.062 NA
BRANCH  16  18
HETATM   18  C11 UNL     1      22.585   0.267  52.838  1.00  0.00     0.011 A 
HETATM   19  C12 UNL     1      21.219   0.082  52.780  1.00  0.00     0.017 A 
HETATM   20  C13 UNL     1      20.694  -0.806  53.721  1.00  0.00     0.020 A 
HETATM   21  C14 UNL     1      21.431  -1.484  54.668  1.00  0.00     0.116 A 
HETATM   22  N4  UNL     1      22.770  -1.267  54.681  1.00  0.00    -0.272 NA
HETATM   23  C15 UNL     1      23.327  -0.409  53.781  1.00  0.00     0.130 A 
ENDBRANCH  16  18
ENDBRANCH  10  12
ENDBRANCH   9  10
ENDBRANCH   4   8
TORSDOF 5
ENDMDL
MODEL 5
REMARK VINA RESULT:      -7.1      4.040      6.228
REMARK  5 active torsions:
REMARK  status: ('A' for Active; 'I' for Inactive)
REMARK    1  A    between atoms: C4_4  and  N1_5 
REMARK    2  A    between atoms: C4_4  and  C5_6 
REMARK    3  A    between atoms: C6_7  and  N2_8 
REMARK    4  A    between atoms: N2_8  and  C7_9 
REMARK    5  A    between atoms: C10_13  and  C11_14 
ROOT
HETATM    1  C1  UNL     1      27.048   4.395  49.127  1.00  0.00     0.017 C 
HETATM    2  C2  UNL     1      26.362   5.367  48.901  1.00  0.00    -0.087 C 
HETATM    3  C3  UNL     1      25.577   6.521  48.635  1.00  0.00     0.092 C 
HETATM    4  C4  UNL     1      24.792   7.044  49.573  1.00  0.00     0.035 C 
ENDROOT
BRANCH   4   5
HETATM    5  N1  UNL     1      23.981   8.204  49.359  1.00  0.00    -0.399 N 
HETATM    6  H3  UNL     1      23.502   8.493  50.239  1.00  0.00     0.156 HD
HETATM    7  H4  UNL     1      23.867   8.720  48.438  1.00  0.00     0.156 HD
ENDBRANCH   4   5
BRANCH   4   8
HETATM    8  C5  UNL     1      24.718   6.435  50.917  1.00  0.00     0.047 C 
HETATM    9  C6  UNL     1      23.635   5.793  51.370  1.00  0.00     0.108 C 
BRANCH   9  10
HETATM   10  N2  UNL     1      23.622   5.220  52.686  1.00  0.00    -0.198 N 
HETATM   11  H7  UNL     1      23.526   5.755  53.568  1.00  0.00     0.183 HD
BRANCH  10  12
HETATM   12  C7  UNL     1      23.753   3.798  52.746  1.00  0.00     0.726 A 
HETATM   13  N3  UNL     1      22.712   3.018  52.351  1.00  0.00    -0.075 NA
HETATM   14  C8  UNL     1      22.816   1.661  52.400  1.00  0.00     0.139 A 
HETATM   15  C9  UNL     1      24.005   1.134  52.859  1.00  0.00     0.053 A 
HETATM   16  C10 UNL     1      25.071   1.907  53.263  1.00  0.00     0.089 A 
HETATM   17  N5  UNL     1      24.915   3.239  53.194  1.00  0.00    -0.062 NA
BRANCH  16  18
HETATM   18  C11 UNL     1      26.339   1.384  53.752  1.00  0.00     0.011 A 
HETATM   19  C12 UNL     1      27.478   2.087  53.420  1.00  0.00     0.017 A 
HETATM   20  C13 UNL     1      28.675   1.555  53.906  1.00  0.00     0.020 A 
HETATM   21  C14 UNL     1      28.780   0.413  54.670  1.00  0.00     0.116 A 
HETATM   22  N4  UNL     1      27.630  -0.241  54.968  1.00  0.00    -0.272 NA
HETATM   23  C15 UNL     1      26.439   0.241  54.515  1.00  0.00     0.130 A 
ENDBRANCH  16  18
ENDBRANCH  10  12
ENDBRANCH   9  10
ENDBRANCH   4   8
TORSDOF 5
ENDMDL
MODEL 6
REMARK VINA RESULT:      -7.1      2.359      7.965
REMARK  5 active torsions:
REMARK  status: ('A' for Active; 'I' for Inactive)
REMARK    1  A    between atoms: C4_4  and  N1_5 
REMARK    2  A    between atoms: C4_4  and  C5_6 
REMARK    3  A    between atoms: C6_7  and  N2_8 
REMARK    4  A    between atoms: N2_8  and  C7_9 
REMARK    5  A    between atoms: C10_13  and  C11_14 
ROOT
HETATM    1  C1  UNL     1      27.286  -1.773  52.707  1.00  0.00     0.017 C 
HETATM    2  C2  UNL     1      28.045  -0.957  53.182  1.00  0.00    -0.087 C 
HETATM    3  C3  UNL     1      28.930  -0.008  53.761  1.00  0.00     0.092 C 
HETATM    4  C4  UNL     1      28.648   1.292  53.738  1.00  0.00     0.035 C 
ENDROOT
BRANCH   4   5
HETATM    5  N1  UNL     1      29.503   2.288  54.306  1.00  0.00    -0.399 N 
HETATM    6  H3  UNL     1      29.279   3.233  53.926  1.00  0.00     0.156 HD
HETATM    7  H4  UNL     1      30.270   2.116  55.020  1.00  0.00     0.156 HD
ENDBRANCH   4   5
BRANCH   4   8
HETATM    8  C5  UNL     1      27.404   1.779  53.109  1.00  0.00     0.047 C 
HETATM    9  C6  UNL     1      26.325   2.145  53.810  1.00  0.00     0.108 C 
BRANCH   9  10
HETATM   10  N2  UNL     1      25.143   2.611  53.143  1.00  0.00    -0.198 N 
HETATM   11  H7  UNL     1      25.025   3.554  52.730  1.00  0.00     0.183 HD
BRANCH  10  12
HETATM   12  C7  UNL     1      24.066   1.675  53.060  1.00  0.00     0.726 A 
HETATM   13  N3  UNL     1      24.297   0.368  53.353  1.00  0.00    -0.075 NA
HETATM   14  C8  UNL     1      23.285  -0.540  53.281  1.00  0.00     0.139 A 
HETATM   15  C9  UNL     1      22.043  -0.073  52.905  1.00  0.00     0.053 A 
HETATM   16  C10 UNL     1      21.788   1.247  52.604  1.00  0.00     0.089 A 
HETATM   17  N5  UNL     1      22.822   2.100  52.692  1.00  0.00    -0.062 NA
BRANCH  16  18
HETATM   18  C11 UNL     1      20.490   1.772  52.204  1.00  0.00     0.011 A 
HETATM   19  C12 UNL     1      19.575   0.869  51.704  1.00  0.00     0.017 A 
HETATM   20  C13 UNL     1      18.341   1.409  51.331  1.00  0.00     0.020 A 
HETATM   21  C14 UNL     1      17.998   2.740  51.430  1.00  0.00     0.116 A 
HETATM   22  N4  UNL     1      18.934   3.585  51.929  1.00  0.00    -0.272 NA
HETATM   23  C15 UNL     1      20.151   3.103  52.305  1.00  0.00     0.130 A 
ENDBRANCH  16  18
ENDBRANCH  10  12
ENDBRANCH   9  10
ENDBRANCH   4   8
TORSDOF 5
ENDMDL
MODEL 7
REMARK VINA RESULT:      -7.1      3.426      5.545
REMARK  5 active torsions:
REMARK  status: ('A' for Active; 'I' for Inactive)
REMARK    1  A    between atoms: C4_4  and  N1_5 
REMARK    2  A    between atoms: C4_4  and  C5_6 
REMARK    3  A    between atoms: C6_7  and  N2_8 
REMARK    4  A    between atoms: N2_8  and  C7_9 
REMARK    5  A    between atoms: C10_13  and  C11_14 
ROOT
HETATM    1  C1  UNL     1      27.508   4.824  48.920  1.00  0.00     0.017 C 
HETATM    2  C2  UNL     1      26.383   5.255  48.800  1.00  0.00    -0.087 C 
HETATM    3  C3  UNL     1      25.071   5.783  48.658  1.00  0.00     0.092 C 
HETATM    4  C4  UNL     1      24.207   5.746  49.669  1.00  0.00     0.035 C 
ENDROOT
BRANCH   4   5
HETATM    5  N1  UNL     1      22.876   6.262  49.580  1.00  0.00    -0.399 N 
HETATM    6  H3  UNL     1      22.707   6.702  48.650  1.00  0.00     0.156 HD
HETATM    7  H4  UNL     1      22.139   6.216  50.344  1.00  0.00     0.156 HD
ENDBRANCH   4   5
BRANCH   4   8
HETATM    8  C5  UNL     1      24.593   5.152  50.966  1.00  0.00     0.047 C 
HETATM    9  C6  UNL     1      23.709   4.626  51.820  1.00  0.00     0.108 C 
BRANCH   9  10
HETATM   10  N2  UNL     1      24.143   4.062  53.067  1.00  0.00    -0.198 N 
HETATM   11  H7  UNL     1      24.326   4.601  53.933  1.00  0.00     0.183 HD
BRANCH  10  12
HETATM   12  C7  UNL     1      24.326   2.645  53.078  1.00  0.00     0.726 A 
HETATM   13  N3  UNL     1      23.244   1.834  52.932  1.00  0.00    -0.075 NA
HETATM   14  C8  UNL     1      23.396   0.481  52.939  1.00  0.00     0.139 A 
HETATM   15  C9  UNL     1      24.675  -0.010  53.098  1.00  0.00     0.053 A 
HETATM   16  C10 UNL     1      25.783   0.794  53.246  1.00  0.00     0.089 A 
HETATM   17  N5  UNL     1      25.577   2.121  53.232  1.00  0.00    -0.062 NA
BRANCH  16  18
HETATM   18  C11 UNL     1      27.146   0.308  53.416  1.00  0.00     0.011 A 
HETATM   19  C12 UNL     1      27.415  -0.970  52.973  1.00  0.00     0.017 A 
HETATM   20  C13 UNL     1      28.732  -1.402  53.151  1.00  0.00     0.020 A 
HETATM   21  C14 UNL     1      29.739  -0.655  53.722  1.00  0.00     0.116 A 
HETATM   22  N4  UNL     1      29.421   0.596  54.141  1.00  0.00    -0.272 NA
HETATM   23  C15 UNL     1      28.149   1.059  53.987  1.00  0.00     0.130 A 
ENDBRANCH  16  18
ENDBRANCH  10  12
ENDBRANCH   9  10
ENDBRANCH   4   8
TORSDOF 5
ENDMDL
MODEL 8
REMARK VINA RESULT:      -6.9      4.735      7.920
REMARK  5 active torsions:
REMARK  status: ('A' for Active; 'I' for Inactive)
REMARK    1  A    between atoms: C4_4  and  N1_5 
REMARK    2  A    between atoms: C4_4  and  C5_6 
REMARK    3  A    between atoms: C6_7  and  N2_8 
REMARK    4  A    between atoms: N2_8  and  C7_9 
REMARK    5  A    between atoms: C10_13  and  C11_14 
ROOT
HETATM    1  C1  UNL     1      27.535  -2.192  52.732  1.00  0.00     0.017 C 
HETATM    2  C2  UNL     1      28.214  -1.256  53.090  1.00  0.00    -0.087 C 
HETATM    3  C3  UNL     1      29.013  -0.167  53.533  1.00  0.00     0.092 C 
HETATM    4  C4  UNL     1      28.483   1.039  53.715  1.00  0.00     0.035 C 
ENDROOT
BRANCH   4   5
HETATM    5  N1  UNL     1      29.241   2.169  54.159  1.00  0.00    -0.399 N 
HETATM    6  H3  UNL     1      28.649   2.820  54.718  1.00  0.00     0.156 HD
HETATM    7  H4  UNL     1      30.270   2.343  53.961  1.00  0.00     0.156 HD
ENDBRANCH   4   5
BRANCH   4   8
HETATM    8  C5  UNL     1      27.047   1.275  53.460  1.00  0.00     0.047 C 
HETATM    9  C6  UNL     1      26.579   1.737  52.295  1.00  0.00     0.108 C 
BRANCH   9  10
HETATM   10  N2  UNL     1      25.172   1.947  52.104  1.00  0.00    -0.198 N 
HETATM   11  H7  UNL     1      24.422   1.518  52.677  1.00  0.00     0.183 HD
BRANCH  10  12
HETATM   12  C7  UNL     1      24.813   2.820  51.031  1.00  0.00     0.726 A 
HETATM   13  N3  UNL     1      23.539   2.804  50.559  1.00  0.00    -0.075 NA
HETATM   14  C8  UNL     1      23.176   3.628  49.537  1.00  0.00     0.139 A 
HETATM   15  C9  UNL     1      24.147   4.460  49.021  1.00  0.00     0.053 A 
HETATM   16  C10 UNL     1      25.444   4.491  49.485  1.00  0.00     0.089 A 
HETATM   17  N5  UNL     1      25.747   3.658  50.494  1.00  0.00    -0.062 NA
BRANCH  16  18
HETATM   18  C11 UNL     1      26.493   5.356  48.963  1.00  0.00     0.011 A 
HETATM   19  C12 UNL     1      27.711   4.770  48.691  1.00  0.00     0.017 A 
HETATM   20  C13 UNL     1      28.693   5.630  48.191  1.00  0.00     0.020 A 
HETATM   21  C14 UNL     1      28.521   6.978  47.963  1.00  0.00     0.116 A 
HETATM   22  N4  UNL     1      27.304   7.504  48.247  1.00  0.00    -0.272 NA
HETATM   23  C15 UNL     1      26.316   6.703  48.736  1.00  0.00     0.130 A 
ENDBRANCH  16  18
ENDBRANCH  10  12
ENDBRANCH   9  10
ENDBRANCH   4   8
TORSDOF 5
ENDMDL
MODEL 9
REMARK VINA RESULT:      -6.9      2.563      4.400
REMARK  5 active torsions:
REMARK  status: ('A' for Active; 'I' for Inactive)
REMARK    1  A    between atoms: C4_4  and  N1_5 
REMARK    2  A    between atoms: C4_4  and  C5_6 
REMARK    3  A    between atoms: C6_7  and  N2_8 
REMARK    4  A    between atoms: N2_8  and  C7_9 
REMARK    5  A    between atoms: C10_13  and  C11_14 
ROOT
HETATM    1  C1  UNL     1      21.533   1.332  48.835  1.00  0.00     0.017 C 
HETATM    2  C2  UNL     1      22.120   2.335  48.495  1.00  0.00    -0.087 C 
HETATM    3  C3  UNL     1      22.825   3.498  48.084  1.00  0.00     0.092 C 
HETATM    4  C4  UNL     1      23.462   4.260  48.970  1.00  0.00     0.035 C 
ENDROOT
BRANCH   4   5
HETATM    5  N1  UNL     1      24.186   5.440  48.611  1.00  0.00    -0.399 N 
HETATM    6  H3  UNL     1      24.215   5.560  47.575  1.00  0.00     0.156 HD
HETATM    7  H4  UNL     1      24.641   6.120  49.288  1.00  0.00     0.156 HD
ENDBRANCH   4   5
BRANCH   4   8
HETATM    8  C5  UNL     1      23.448   3.912  50.406  1.00  0.00     0.047 C 
HETATM    9  C6  UNL     1      24.561   3.796  51.139  1.00  0.00     0.108 C 
BRANCH   9  10
HETATM   10  N2  UNL     1      24.486   3.455  52.531  1.00  0.00    -0.198 N 
HETATM   11  H7  UNL     1      24.456   4.138  53.311  1.00  0.00     0.183 HD
BRANCH  10  12
HETATM   12  C7  UNL     1      24.452   2.058  52.829  1.00  0.00     0.726 A 
HETATM   13  N3  UNL     1      23.255   1.456  53.055  1.00  0.00    -0.075 NA
HETATM   14  C8  UNL     1      23.200   0.125  53.340  1.00  0.00     0.139 A 
HETATM   15  C9  UNL     1      24.395  -0.561  53.384  1.00  0.00     0.053 A 
HETATM   16  C10 UNL     1      25.618   0.030  53.158  1.00  0.00     0.089 A 
HETATM   17  N5  UNL     1      25.615   1.344  52.881  1.00  0.00    -0.062 NA
BRANCH  16  18
HETATM   18  C11 UNL     1      26.897  -0.665  53.197  1.00  0.00     0.011 A 
HETATM   19  C12 UNL     1      28.002   0.074  53.567  1.00  0.00     0.017 A 
HETATM   20  C13 UNL     1      29.211  -0.626  53.594  1.00  0.00     0.020 A 
HETATM   21  C14 UNL     1      29.359  -1.961  53.285  1.00  0.00     0.116 A 
HETATM   22  N4  UNL     1      28.241  -2.641  52.927  1.00  0.00    -0.272 NA
HETATM   23  C15 UNL     1      27.040  -2.000  52.887  1.00  0.00     0.130 A 
ENDBRANCH  16  18
ENDBRANCH  10  12
ENDBRANCH   9  10
ENDBRANCH   4   8
TORSDOF 5
ENDMDL
