MODEL 1
REMARK VINA RESULT:      -8.4      0.000      0.000
REMARK  7 active torsions:
REMARK  status: ('A' for Active; 'I' for Inactive)
REMARK    1  A    between atoms: C2_2  and  C3_3 
REMARK    2  A    between atoms: C4_4  and  C5_5 
REMARK    3  A    between atoms: C5_5  and  C6_6 
REMARK    4  A    between atoms: C8_8  and  C9_9 
REMARK    5  A    between atoms: C12_12  and  O1_13 
REMARK    6  A    between atoms: N2_18  and  C16_19 
REMARK    7  A    between atoms: C17_21  and  O2_22 
ROOT
HETATM    1  C6  UNL     1      25.536   1.062  51.661  1.00  0.00     0.122 C 
HETATM    2  C7  UNL     1      24.084   1.189  52.108  1.00  0.00     0.089 C 
HETATM    3  C8  UNL     1      23.835  -0.086  52.795  1.00  0.00     0.067 C 
HETATM    4  N1  UNL     1      24.924  -0.723  52.999  1.00  0.00    -0.174 NA
HETATM    5  N2  UNL     1      26.012   0.013  52.494  1.00  0.00    -0.240 N 
ENDROOT
BRANCH   3   6
HETATM    6  C9  UNL     1      22.422  -0.381  53.120  1.00  0.00    -0.010 A 
HETATM    7  C10 UNL     1      21.977  -1.242  54.094  1.00  0.00     0.016 A 
HETATM    8  C11 UNL     1      20.639  -1.460  54.332  1.00  0.00     0.037 A 
HETATM    9  C12 UNL     1      19.771  -0.761  53.529  1.00  0.00     0.068 A 
HETATM   10  C14 UNL     1      20.124   0.117  52.534  1.00  0.00     0.037 A 
HETATM   11  C15 UNL     1      21.502   0.291  52.349  1.00  0.00     0.016 A 
BRANCH   9  12
HETATM   12  O1  UNL     1      18.406  -0.963  53.745  1.00  0.00    -0.356 OA
HETATM   13  C13 UNL     1      17.876  -2.286  53.641  1.00  0.00     0.210 C 
ENDBRANCH   9  12
ENDBRANCH   3   6
BRANCH   1  14
HETATM   14  C5  UNL     1      26.131   2.405  51.947  1.00  0.00     0.055 C 
BRANCH  14  15
HETATM   15  C4  UNL     1      26.732   3.135  50.825  1.00  0.00    -0.025 C 
HETATM   16  C3  UNL     1      25.987   4.020  50.129  1.00  0.00    -0.005 C 
BRANCH  16  17
HETATM   17  C2  UNL     1      26.393   4.840  48.998  1.00  0.00    -0.011 C 
HETATM   18  C1  UNL     1      27.657   4.912  48.648  1.00  0.00     0.011 C 
ENDBRANCH  16  17
ENDBRANCH  14  15
ENDBRANCH   1  14
BRANCH   5  19
HETATM   19  C16 UNL     1      27.277  -0.478  52.949  1.00  0.00     0.192 A 
HETATM   20  N3  UNL     1      27.606  -1.581  53.017  1.00  0.00    -0.198 NA
HETATM   21  C17 UNL     1      28.747  -2.094  53.416  1.00  0.00     0.171 A 
HETATM   22  C18 UNL     1      29.718  -1.074  53.829  1.00  0.00     0.111 A 
HETATM   23  S1  UNL     1      28.767   0.524  53.555  1.00  0.00    -0.058 SA
BRANCH  21  24
HETATM   24  O2  UNL     1      29.068  -3.460  53.467  1.00  0.00    -0.344 OA
HETATM   25  H18 UNL     1      29.775  -3.849  54.041  1.00  0.00     0.219 HD
ENDBRANCH  21  24
ENDBRANCH   5  19
TORSDOF 7
ENDMDL
MODEL 2
REMARK VINA RESULT:      -8.1      2.559      6.436
REMARK  7 active torsions:
REMARK  status: ('A' for Active; 'I' for Inactive)
REMARK    1  A    between atoms: C2_2  and  C3_3 
REMARK    2  A    between atoms: C4_4  and  C5_5 
REMARK    3  A    between atoms: C5_5  and  C6_6 
REMARK    4  A    between atoms: C8_8  and  C9_9 
REMARK    5  A    between atoms: C12_12  and  O1_13 
REMARK    6  A    between atoms: N2_18  and  C16_19 
REMARK    7  A    between atoms: C17_21  and  O2_22 
ROOT
HETATM    1  C6  UNL     1      25.272   0.808  53.306  1.00  0.00     0.122 C 
HETATM    2  C7  UNL     1      24.681   1.665  52.193  1.00  0.00     0.089 C 
HETATM    3  C8  UNL     1      25.867   2.290  51.590  1.00  0.00     0.067 C 
HETATM    4  N1  UNL     1      26.943   1.740  52.007  1.00  0.00    -0.174 NA
HETATM    5  N2  UNL     1      26.634   0.709  52.914  1.00  0.00    -0.240 N 
ENDROOT
BRANCH   3   6
HETATM    6  C9  UNL     1      25.606   3.393  50.638  1.00  0.00    -0.010 A 
HETATM    7  C10 UNL     1      26.537   4.017  49.845  1.00  0.00     0.016 A 
HETATM    8  C11 UNL     1      26.209   5.039  48.984  1.00  0.00     0.037 A 
HETATM    9  C12 UNL     1      24.884   5.399  48.969  1.00  0.00     0.068 A 
HETATM   10  C14 UNL     1      23.885   4.833  49.724  1.00  0.00     0.037 A 
HETATM   11  C15 UNL     1      24.292   3.799  50.576  1.00  0.00     0.016 A 
BRANCH   9  12
HETATM   12  O1  UNL     1      24.518   6.436  48.107  1.00  0.00    -0.356 OA
HETATM   13  C13 UNL     1      25.492   7.421  47.756  1.00  0.00     0.210 C 
ENDBRANCH   9  12
ENDBRANCH   3   6
BRANCH   1  14
HETATM   14  C5  UNL     1      24.506  -0.476  53.232  1.00  0.00     0.055 C 
BRANCH  14  15
HETATM   15  C4  UNL     1      23.041  -0.394  53.217  1.00  0.00    -0.025 C 
HETATM   16  C3  UNL     1      22.322  -1.151  54.074  1.00  0.00    -0.005 C 
BRANCH  16  17
HETATM   17  C2  UNL     1      20.877  -1.211  54.221  1.00  0.00    -0.011 C 
HETATM   18  C1  UNL     1      20.101  -0.429  53.504  1.00  0.00     0.011 C 
ENDBRANCH  16  17
ENDBRANCH  14  15
ENDBRANCH   1  14
BRANCH   5  19
HETATM   19  C16 UNL     1      27.749  -0.145  53.187  1.00  0.00     0.192 A 
HETATM   20  N3  UNL     1      27.765  -1.298  53.137  1.00  0.00    -0.198 NA
HETATM   21  C17 UNL     1      28.751  -2.134  53.368  1.00  0.00     0.171 A 
HETATM   22  C18 UNL     1      29.999  -1.458  53.743  1.00  0.00     0.111 A 
HETATM   23  S1  UNL     1      29.506   0.355  53.694  1.00  0.00    -0.058 SA
BRANCH  21  24
HETATM   24  O2  UNL     1      28.686  -3.534  53.283  1.00  0.00    -0.344 OA
HETATM   25  H18 UNL     1      28.282  -4.119  53.972  1.00  0.00     0.219 HD
ENDBRANCH  21  24
ENDBRANCH   5  19
TORSDOF 7
ENDMDL
MODEL 3
REMARK VINA RESULT:      -7.8      3.262      7.615
REMARK  7 active torsions:
REMARK  status: ('A' for Active; 'I' for Inactive)
REMARK    1  A    between atoms: C2_2  and  C3_3 
REMARK    2  A    between atoms: C4_4  and  C5_5 
REMARK    3  A    between atoms: C5_5  and  C6_6 
REMARK    4  A    between atoms: C8_8  and  C9_9 
REMARK    5  A    between atoms: C12_12  and  O1_13 
REMARK    6  A    between atoms: N2_18  and  C16_19 
REMARK    7  A    between atoms: C17_21  and  O2_22 
ROOT
HETATM    1  C6  UNL     1      25.306   0.601  52.298  1.00  0.00     0.122 C 
HETATM    2  C7  UNL     1      26.081   1.824  51.821  1.00  0.00     0.089 C 
HETATM    3  C8  UNL     1      25.048   2.638  51.167  1.00  0.00     0.067 C 
HETATM    4  N1  UNL     1      23.877   2.198  51.427  1.00  0.00    -0.174 NA
HETATM    5  N2  UNL     1      23.964   1.068  52.262  1.00  0.00    -0.240 N 
ENDROOT
BRANCH   3   6
HETATM    6  C9  UNL     1      25.536   3.782  50.364  1.00  0.00    -0.010 A 
HETATM    7  C10 UNL     1      24.933   5.011  50.255  1.00  0.00     0.016 A 
HETATM    8  C11 UNL     1      25.456   6.024  49.483  1.00  0.00     0.037 A 
HETATM    9  C12 UNL     1      26.623   5.727  48.824  1.00  0.00     0.068 A 
HETATM   10  C14 UNL     1      27.295   4.529  48.875  1.00  0.00     0.037 A 
HETATM   11  C15 UNL     1      26.707   3.546  49.680  1.00  0.00     0.016 A 
BRANCH   9  12
HETATM   12  O1  UNL     1      27.178   6.734  48.031  1.00  0.00    -0.356 OA
HETATM   13  C13 UNL     1      28.582   6.715  47.768  1.00  0.00     0.210 C 
ENDBRANCH   9  12
ENDBRANCH   3   6
BRANCH   1  14
HETATM   14  C5  UNL     1      25.839   0.336  53.671  1.00  0.00     0.055 C 
BRANCH  14  15
HETATM   15  C4  UNL     1      27.280   0.100  53.807  1.00  0.00    -0.025 C 
HETATM   16  C3  UNL     1      27.828  -1.011  53.268  1.00  0.00    -0.005 C 
BRANCH  16  17
HETATM   17  C2  UNL     1      29.223  -1.423  53.288  1.00  0.00    -0.011 C 
HETATM   18  C1  UNL     1      30.172  -0.549  53.534  1.00  0.00     0.011 C 
ENDBRANCH  16  17
ENDBRANCH  14  15
ENDBRANCH   1  14
BRANCH   5  19
HETATM   19  C16 UNL     1      22.707   0.705  52.842  1.00  0.00     0.192 A 
HETATM   20  N3  UNL     1      22.510  -0.163  53.576  1.00  0.00    -0.198 NA
HETATM   21  C17 UNL     1      21.389  -0.542  54.146  1.00  0.00     0.171 A 
HETATM   22  C18 UNL     1      20.243   0.292  53.763  1.00  0.00     0.111 A 
HETATM   23  S1  UNL     1      21.023   1.537  52.590  1.00  0.00    -0.058 SA
BRANCH  21  24
HETATM   24  O2  UNL     1      21.234  -1.617  55.034  1.00  0.00    -0.344 OA
HETATM   25  H18 UNL     1      21.983  -2.105  55.460  1.00  0.00     0.219 HD
ENDBRANCH  21  24
ENDBRANCH   5  19
TORSDOF 7
ENDMDL
MODEL 4
REMARK VINA RESULT:      -7.7      1.970      2.135
REMARK  7 active torsions:
REMARK  status: ('A' for Active; 'I' for Inactive)
REMARK    1  A    between atoms: C2_2  and  C3_3 
REMARK    2  A    between atoms: C4_4  and  C5_5 
REMARK    3  A    between atoms: C5_5  and  C6_6 
REMARK    4  A    between atoms: C8_8  and  C9_9 
REMARK    5  A    between atoms: C12_12  and  O1_13 
REMARK    6  A    between atoms: N2_18  and  C16_19 
REMARK    7  A    between atoms: C17_21  and  O2_22 
ROOT
HETATM    1  C6  UNL     1      24.530   1.829  50.876  1.00  0.00     0.122 C 
HETATM    2  C7  UNL     1      23.053   1.747  51.246  1.00  0.00     0.089 C 
HETATM    3  C8  UNL     1      23.021   0.674  52.249  1.00  0.00     0.067 C 
HETATM    4  N1  UNL     1      24.199   0.367  52.638  1.00  0.00    -0.174 NA
HETATM    5  N2  UNL     1      25.147   1.165  51.971  1.00  0.00    -0.240 N 
ENDROOT
BRANCH   3   6
HETATM    6  C9  UNL     1      21.678   0.172  52.617  1.00  0.00    -0.010 A 
HETATM    7  C10 UNL     1      21.362  -0.544  53.746  1.00  0.00     0.016 A 
HETATM    8  C11 UNL     1      20.082  -0.975  54.014  1.00  0.00     0.037 A 
HETATM    9  C12 UNL     1      19.137  -0.644  53.075  1.00  0.00     0.068 A 
HETATM   10  C14 UNL     1      19.360   0.066  51.920  1.00  0.00     0.037 A 
HETATM   11  C15 UNL     1      20.684   0.473  51.714  1.00  0.00     0.016 A 
BRANCH   9  12
HETATM   12  O1  UNL     1      17.828  -1.070  53.317  1.00  0.00    -0.356 OA
HETATM   13  C13 UNL     1      17.566  -2.468  53.443  1.00  0.00     0.210 C 
ENDBRANCH   9  12
ENDBRANCH   3   6
BRANCH   1  14
HETATM   14  C5  UNL     1      24.812   3.296  50.796  1.00  0.00     0.055 C 
BRANCH  14  15
HETATM   15  C4  UNL     1      25.482   3.795  49.590  1.00  0.00    -0.025 C 
HETATM   16  C3  UNL     1      26.752   4.247  49.671  1.00  0.00    -0.005 C 
BRANCH  16  17
HETATM   17  C2  UNL     1      27.586   4.773  48.602  1.00  0.00    -0.011 C 
HETATM   18  C1  UNL     1      27.706   6.070  48.427  1.00  0.00     0.011 C 
ENDBRANCH  16  17
ENDBRANCH  14  15
ENDBRANCH   1  14
BRANCH   5  19
HETATM   19  C16 UNL     1      26.447   1.100  52.565  1.00  0.00     0.192 A 
HETATM   20  N3  UNL     1      27.229   1.946  52.611  1.00  0.00    -0.198 NA
HETATM   21  C17 UNL     1      28.430   1.952  53.144  1.00  0.00     0.171 A 
HETATM   22  C18 UNL     1      28.788   0.669  53.761  1.00  0.00     0.111 A 
HETATM   23  S1  UNL     1      27.254  -0.371  53.448  1.00  0.00    -0.058 SA
BRANCH  21  24
HETATM   24  O2  UNL     1      29.324   3.034  53.158  1.00  0.00    -0.344 OA
HETATM   25  H18 UNL     1      30.264   2.981  53.465  1.00  0.00     0.219 HD
ENDBRANCH  21  24
ENDBRANCH   5  19
TORSDOF 7
ENDMDL
MODEL 5
REMARK VINA RESULT:      -7.6      3.376      5.446
REMARK  7 active torsions:
REMARK  status: ('A' for Active; 'I' for Inactive)
REMARK    1  A    between atoms: C2_2  and  C3_3 
REMARK    2  A    between atoms: C4_4  and  C5_5 
REMARK    3  A    between atoms: C5_5  and  C6_6 
REMARK    4  A    between atoms: C8_8  and  C9_9 
REMARK    5  A    between atoms: C12_12  and  O1_13 
REMARK    6  A    between atoms: N2_18  and  C16_19 
REMARK    7  A    between atoms: C17_21  and  O2_22 
ROOT
HETATM    1  C6  UNL     1      24.985   2.369  52.802  1.00  0.00     0.122 C 
HETATM    2  C7  UNL     1      24.213   1.065  52.967  1.00  0.00     0.089 C 
HETATM    3  C8  UNL     1      22.818   1.475  52.753  1.00  0.00     0.067 C 
HETATM    4  N1  UNL     1      22.751   2.658  52.277  1.00  0.00    -0.174 NA
HETATM    5  N2  UNL     1      24.046   3.184  52.113  1.00  0.00    -0.240 N 
ENDROOT
BRANCH   3   6
HETATM    6  C9  UNL     1      21.787   0.473  53.107  1.00  0.00    -0.010 A 
HETATM    7  C10 UNL     1      21.928  -0.551  54.011  1.00  0.00     0.016 A 
HETATM    8  C11 UNL     1      20.915  -1.442  54.282  1.00  0.00     0.037 A 
HETATM    9  C12 UNL     1      19.748  -1.244  53.585  1.00  0.00     0.068 A 
HETATM   10  C14 UNL     1      19.517  -0.250  52.665  1.00  0.00     0.037 A 
HETATM   11  C15 UNL     1      20.591   0.620  52.441  1.00  0.00     0.016 A 
BRANCH   9  12
HETATM   12  O1  UNL     1      18.701  -2.134  53.836  1.00  0.00    -0.356 OA
HETATM   13  C13 UNL     1      17.412  -1.860  53.285  1.00  0.00     0.210 C 
ENDBRANCH   9  12
ENDBRANCH   3   6
BRANCH   1  14
HETATM   14  C5  UNL     1      26.190   1.988  52.000  1.00  0.00     0.055 C 
BRANCH  14  15
HETATM   15  C4  UNL     1      26.743   0.645  52.201  1.00  0.00    -0.025 C 
HETATM   16  C3  UNL     1      27.827   0.481  52.990  1.00  0.00    -0.005 C 
BRANCH  16  17
HETATM   17  C2  UNL     1      28.519  -0.755  53.319  1.00  0.00    -0.011 C 
HETATM   18  C1  UNL     1      29.789  -0.739  53.652  1.00  0.00     0.011 C 
ENDBRANCH  16  17
ENDBRANCH  14  15
ENDBRANCH   1  14
BRANCH   5  19
HETATM   19  C16 UNL     1      24.070   4.368  51.310  1.00  0.00     0.192 A 
HETATM   20  N3  UNL     1      24.044   5.458  51.685  1.00  0.00    -0.198 NA
HETATM   21  C17 UNL     1      24.071   6.581  51.005  1.00  0.00     0.171 A 
HETATM   22  C18 UNL     1      24.144   6.369  49.554  1.00  0.00     0.111 A 
HETATM   23  S1  UNL     1      24.163   4.494  49.421  1.00  0.00    -0.058 SA
BRANCH  21  24
HETATM   24  O2  UNL     1      24.035   7.877  51.544  1.00  0.00    -0.344 OA
HETATM   25  H18 UNL     1      24.655   8.211  52.240  1.00  0.00     0.219 HD
ENDBRANCH  21  24
ENDBRANCH   5  19
TORSDOF 7
ENDMDL
MODEL 6
REMARK VINA RESULT:      -7.4      3.475      6.935
REMARK  7 active torsions:
REMARK  status: ('A' for Active; 'I' for Inactive)
REMARK    1  A    between atoms: C2_2  and  C3_3 
REMARK    2  A    between atoms: C4_4  and  C5_5 
REMARK    3  A    between atoms: C5_5  and  C6_6 
REMARK    4  A    between atoms: C8_8  and  C9_9 
REMARK    5  A    between atoms: C12_12  and  O1_13 
REMARK    6  A    between atoms: N2_18  and  C16_19 
REMARK    7  A    between atoms: C17_21  and  O2_22 
ROOT
HETATM    1  C6  UNL     1      25.642   0.907  52.104  1.00  0.00     0.122 C 
HETATM    2  C7  UNL     1      25.835   2.271  51.451  1.00  0.00     0.089 C 
HETATM    3  C8  UNL     1      24.489   2.597  50.960  1.00  0.00     0.067 C 
HETATM    4  N1  UNL     1      23.614   1.798  51.440  1.00  0.00    -0.174 NA
HETATM    5  N2  UNL     1      24.234   0.862  52.288  1.00  0.00    -0.240 N 
ENDROOT
BRANCH   3   6
HETATM    6  C9  UNL     1      24.397   3.753  50.041  1.00  0.00    -0.010 A 
HETATM    7  C10 UNL     1      25.320   4.762  49.913  1.00  0.00     0.016 A 
HETATM    8  C11 UNL     1      25.157   5.806  49.031  1.00  0.00     0.037 A 
HETATM    9  C12 UNL     1      24.005   5.777  48.284  1.00  0.00     0.068 A 
HETATM   10  C14 UNL     1      23.029   4.812  48.344  1.00  0.00     0.037 A 
HETATM   11  C15 UNL     1      23.263   3.780  49.262  1.00  0.00     0.016 A 
BRANCH   9  12
HETATM   12  O1  UNL     1      23.808   6.824  47.380  1.00  0.00    -0.356 OA
HETATM   13  C13 UNL     1      24.864   7.762  47.167  1.00  0.00     0.210 C 
ENDBRANCH   9  12
ENDBRANCH   3   6
BRANCH   1  14
HETATM   14  C5  UNL     1      26.436   0.986  53.370  1.00  0.00     0.055 C 
BRANCH  14  15
HETATM   15  C4  UNL     1      27.342  -0.127  53.676  1.00  0.00    -0.025 C 
HETATM   16  C3  UNL     1      28.669   0.018  53.472  1.00  0.00    -0.005 C 
BRANCH  16  17
HETATM   17  C2  UNL     1      29.724  -0.953  53.714  1.00  0.00    -0.011 C 
HETATM   18  C1  UNL     1      29.572  -2.206  53.350  1.00  0.00     0.011 C 
ENDBRANCH  16  17
ENDBRANCH  14  15
ENDBRANCH   1  14
BRANCH   5  19
HETATM   19  C16 UNL     1      23.301   0.136  53.094  1.00  0.00     0.192 A 
HETATM   20  N3  UNL     1      23.540  -0.498  54.028  1.00  0.00    -0.198 NA
HETATM   21  C17 UNL     1      22.734  -1.178  54.810  1.00  0.00     0.171 A 
HETATM   22  C18 UNL     1      21.328  -1.090  54.397  1.00  0.00     0.111 A 
HETATM   23  S1  UNL     1      21.421   0.013  52.878  1.00  0.00    -0.058 SA
BRANCH  21  24
HETATM   24  O2  UNL     1      23.110  -1.928  55.935  1.00  0.00    -0.344 OA
HETATM   25  H18 UNL     1      23.264  -2.906  55.932  1.00  0.00     0.219 HD
ENDBRANCH  21  24
ENDBRANCH   5  19
TORSDOF 7
ENDMDL
MODEL 7
REMARK VINA RESULT:      -7.4      3.877      7.289
REMARK  7 active torsions:
REMARK  status: ('A' for Active; 'I' for Inactive)
REMARK    1  A    between atoms: C2_2  and  C3_3 
REMARK    2  A    between atoms: C4_4  and  C5_5 
REMARK    3  A    between atoms: C5_5  and  C6_6 
REMARK    4  A    between atoms: C8_8  and  C9_9 
REMARK    5  A    between atoms: C12_12  and  O1_13 
REMARK    6  A    between atoms: N2_18  and  C16_19 
REMARK    7  A    between atoms: C17_21  and  O2_22 
ROOT
HETATM    1  C6  UNL     1      21.442   1.582  50.648  1.00  0.00     0.122 C 
HETATM    2  C7  UNL     1      22.914   1.393  50.999  1.00  0.00     0.089 C 
HETATM    3  C8  UNL     1      22.866   0.944  52.397  1.00  0.00     0.067 C 
HETATM    4  N1  UNL     1      21.677   0.633  52.744  1.00  0.00    -0.174 NA
HETATM    5  N2  UNL     1      20.796   0.826  51.664  1.00  0.00    -0.240 N 
ENDROOT
BRANCH   3   6
HETATM    6  C9  UNL     1      24.160   0.924  53.116  1.00  0.00    -0.010 A 
HETATM    7  C10 UNL     1      25.051   1.966  53.210  1.00  0.00     0.016 A 
HETATM    8  C11 UNL     1      26.237   1.863  53.900  1.00  0.00     0.037 A 
HETATM    9  C12 UNL     1      26.477   0.646  54.490  1.00  0.00     0.068 A 
HETATM   10  C14 UNL     1      25.647  -0.447  54.449  1.00  0.00     0.037 A 
HETATM   11  C15 UNL     1      24.458  -0.270  53.731  1.00  0.00     0.016 A 
BRANCH   9  12
HETATM   12  O1  UNL     1      27.675   0.510  55.196  1.00  0.00    -0.356 OA
HETATM   13  C13 UNL     1      28.899   0.396  54.469  1.00  0.00     0.210 C 
ENDBRANCH   9  12
ENDBRANCH   3   6
BRANCH   1  14
HETATM   14  C5  UNL     1      21.314   1.012  49.269  1.00  0.00     0.055 C 
BRANCH  14  15
HETATM   15  C4  UNL     1      21.138   1.954  48.159  1.00  0.00    -0.025 C 
HETATM   16  C3  UNL     1      22.002   2.983  48.013  1.00  0.00    -0.005 C 
BRANCH  16  17
HETATM   17  C2  UNL     1      22.004   4.013  46.987  1.00  0.00    -0.011 C 
HETATM   18  C1  UNL     1      21.830   3.696  45.724  1.00  0.00     0.011 C 
ENDBRANCH  16  17
ENDBRANCH  14  15
ENDBRANCH   1  14
BRANCH   5  19
HETATM   19  C16 UNL     1      19.516   0.220  51.871  1.00  0.00     0.192 A 
HETATM   20  N3  UNL     1      19.204  -0.449  52.758  1.00  0.00    -0.198 NA
HETATM   21  C17 UNL     1      18.052  -1.026  53.009  1.00  0.00     0.171 A 
HETATM   22  C18 UNL     1      17.040  -0.753  51.981  1.00  0.00     0.111 A 
HETATM   23  S1  UNL     1      17.976   0.342  50.774  1.00  0.00    -0.058 SA
BRANCH  21  24
HETATM   24  O2  UNL     1      17.753  -1.829  54.121  1.00  0.00    -0.344 OA
HETATM   25  H18 UNL     1      18.397  -2.055  54.839  1.00  0.00     0.219 HD
ENDBRANCH  21  24
ENDBRANCH   5  19
TORSDOF 7
ENDMDL
MODEL 8
REMARK VINA RESULT:      -7.3      3.483      8.523
REMARK  7 active torsions:
REMARK  status: ('A' for Active; 'I' for Inactive)
REMARK    1  A    between atoms: C2_2  and  C3_3 
REMARK    2  A    between atoms: C4_4  and  C5_5 
REMARK    3  A    between atoms: C5_5  and  C6_6 
REMARK    4  A    between atoms: C8_8  and  C9_9 
REMARK    5  A    between atoms: C12_12  and  O1_13 
REMARK    6  A    between atoms: N2_18  and  C16_19 
REMARK    7  A    between atoms: C17_21  and  O2_22 
ROOT
HETATM    1  C6  UNL     1      21.561  -0.298  52.728  1.00  0.00     0.122 C 
HETATM    2  C7  UNL     1      22.815  -0.579  53.549  1.00  0.00     0.089 C 
HETATM    3  C8  UNL     1      23.774   0.409  53.038  1.00  0.00     0.067 C 
HETATM    4  N1  UNL     1      23.195   1.285  52.310  1.00  0.00    -0.174 NA
HETATM    5  N2  UNL     1      21.817   1.010  52.235  1.00  0.00    -0.240 N 
ENDROOT
BRANCH   3   6
HETATM    6  C9  UNL     1      25.182   0.222  53.456  1.00  0.00    -0.010 A 
HETATM    7  C10 UNL     1      25.693   0.456  54.709  1.00  0.00     0.016 A 
HETATM    8  C11 UNL     1      27.020   0.256  55.015  1.00  0.00     0.037 A 
HETATM    9  C12 UNL     1      27.805  -0.195  53.982  1.00  0.00     0.068 A 
HETATM   10  C14 UNL     1      27.382  -0.456  52.702  1.00  0.00     0.037 A 
HETATM   11  C15 UNL     1      26.020  -0.231  52.464  1.00  0.00     0.016 A 
BRANCH   9  12
HETATM   12  O1  UNL     1      29.158  -0.406  54.261  1.00  0.00    -0.356 OA
HETATM   13  C13 UNL     1      29.891  -1.342  53.468  1.00  0.00     0.210 C 
ENDBRANCH   9  12
ENDBRANCH   3   6
BRANCH   1  14
HETATM   14  C5  UNL     1      20.442  -0.385  53.718  1.00  0.00     0.055 C 
BRANCH  14  15
HETATM   15  C4  UNL     1      19.137  -0.845  53.231  1.00  0.00    -0.025 C 
HETATM   16  C3  UNL     1      18.602  -1.981  53.730  1.00  0.00    -0.005 C 
BRANCH  16  17
HETATM   17  C2  UNL     1      17.331  -2.599  53.387  1.00  0.00    -0.011 C 
HETATM   18  C1  UNL     1      17.165  -3.896  53.515  1.00  0.00     0.011 C 
ENDBRANCH  16  17
ENDBRANCH  14  15
ENDBRANCH   1  14
BRANCH   5  19
HETATM   19  C16 UNL     1      21.059   2.100  51.700  1.00  0.00     0.192 A 
HETATM   20  N3  UNL     1      20.012   2.446  52.038  1.00  0.00    -0.198 NA
HETATM   21  C17 UNL     1      19.271   3.437  51.596  1.00  0.00     0.171 A 
HETATM   22  C18 UNL     1      19.911   4.186  50.508  1.00  0.00     0.111 A 
HETATM   23  S1  UNL     1      21.549   3.287  50.305  1.00  0.00    -0.058 SA
BRANCH  21  24
HETATM   24  O2  UNL     1      17.999   3.793  52.068  1.00  0.00    -0.344 OA
HETATM   25  H18 UNL     1      17.301   3.146  52.343  1.00  0.00     0.219 HD
ENDBRANCH  21  24
ENDBRANCH   5  19
TORSDOF 7
ENDMDL
MODEL 9
REMARK VINA RESULT:      -7.2      4.240      7.608
REMARK  7 active torsions:
REMARK  status: ('A' for Active; 'I' for Inactive)
REMARK    1  A    between atoms: C2_2  and  C3_3 
REMARK    2  A    between atoms: C4_4  and  C5_5 
REMARK    3  A    between atoms: C5_5  and  C6_6 
REMARK    4  A    between atoms: C8_8  and  C9_9 
REMARK    5  A    between atoms: C12_12  and  O1_13 
REMARK    6  A    between atoms: N2_18  and  C16_19 
REMARK    7  A    between atoms: C17_21  and  O2_22 
ROOT
HETATM    1  C6  UNL     1      19.607   0.766  52.454  1.00  0.00     0.122 C 
HETATM    2  C7  UNL     1      21.127   0.716  52.567  1.00  0.00     0.089 C 
HETATM    3  C8  UNL     1      21.352  -0.357  53.545  1.00  0.00     0.067 C 
HETATM    4  N1  UNL     1      20.281  -1.018  53.762  1.00  0.00    -0.174 NA
HETATM    5  N2  UNL     1      19.229  -0.496  52.987  1.00  0.00    -0.240 N 
ENDROOT
BRANCH   3   6
HETATM    6  C9  UNL     1      22.731  -0.477  54.070  1.00  0.00    -0.010 A 
HETATM    7  C10 UNL     1      23.113  -1.165  55.195  1.00  0.00     0.016 A 
HETATM    8  C11 UNL     1      24.423  -1.225  55.616  1.00  0.00     0.037 A 
HETATM    9  C12 UNL     1      25.328  -0.548  54.836  1.00  0.00     0.068 A 
HETATM   10  C14 UNL     1      25.038   0.164  53.697  1.00  0.00     0.037 A 
HETATM   11  C15 UNL     1      23.687   0.180  53.329  1.00  0.00     0.016 A 
BRANCH   9  12
HETATM   12  O1  UNL     1      26.665  -0.589  55.237  1.00  0.00    -0.356 OA
HETATM   13  C13 UNL     1      27.632   0.165  54.504  1.00  0.00     0.210 C 
ENDBRANCH   9  12
ENDBRANCH   3   6
BRANCH   1  14
HETATM   14  C5  UNL     1      19.349   0.928  50.989  1.00  0.00     0.055 C 
BRANCH  14  15
HETATM   15  C4  UNL     1      20.352   1.648  50.198  1.00  0.00    -0.025 C 
HETATM   16  C3  UNL     1      20.831   1.093  49.063  1.00  0.00    -0.005 C 
BRANCH  16  17
HETATM   17  C2  UNL     1      21.816   1.640  48.143  1.00  0.00    -0.011 C 
HETATM   18  C1  UNL     1      22.598   2.628  48.516  1.00  0.00     0.011 C 
ENDBRANCH  16  17
ENDBRANCH  14  15
ENDBRANCH   1  14
BRANCH   5  19
HETATM   19  C16 UNL     1      18.088  -1.358  52.941  1.00  0.00     0.192 A 
HETATM   20  N3  UNL     1      17.990  -2.401  53.424  1.00  0.00    -0.198 NA
HETATM   21  C17 UNL     1      16.975  -3.235  53.424  1.00  0.00     0.171 A 
HETATM   22  C18 UNL     1      15.814  -2.721  52.688  1.00  0.00     0.111 A 
HETATM   23  S1  UNL     1      16.421  -1.043  52.095  1.00  0.00    -0.058 SA
BRANCH  21  24
HETATM   24  O2  UNL     1      16.938  -4.494  54.042  1.00  0.00    -0.344 OA
HETATM   25  H18 UNL     1      17.739  -5.013  54.306  1.00  0.00     0.219 HD
ENDBRANCH  21  24
ENDBRANCH   5  19
TORSDOF 7
ENDMDL
