MODEL 1
REMARK VINA RESULT:      -8.8      0.000      0.000
REMARK  7 active torsions:
REMARK  status: ('A' for Active; 'I' for Inactive)
REMARK    1  A    between atoms: N1_1  and  C1_2 
REMARK    2  A    between atoms: N3_5  and  C3_6 
REMARK    3  A    between atoms: C6_9  and  O1_10 
REMARK    4  A    between atoms: O1_10  and  C7_11 
REMARK    5  A    between atoms: C17_22  and  C18_23 
REMARK    6  A    between atoms: C19_24  and  C20_25 
REMARK    7  A    between atoms: C20_25  and  N4_26 
ROOT
HETATM    1  C1  UNL     1      29.163   8.444  48.549  1.00  0.00     0.302 A 
HETATM    2  C2  UNL     1      27.836   8.651  49.179  1.00  0.00     0.152 A 
HETATM    3  N2  UNL     1      26.945   7.733  49.291  1.00  0.00    -0.182 NA
HETATM    4  N3  UNL     1      27.141   6.430  48.822  1.00  0.00    -0.245 N 
HETATM    5  C16 UNL     1      28.360   6.060  48.191  1.00  0.00     0.137 A 
HETATM    6  C17 UNL     1      29.240   7.031  48.100  1.00  0.00     0.051 A 
ENDROOT
BRANCH   4   7
HETATM    7  C3  UNL     1      26.086   5.496  48.999  1.00  0.00     0.058 A 
HETATM    8  C4  UNL     1      26.404   4.216  49.441  1.00  0.00     0.034 A 
HETATM    9  C5  UNL     1      25.485   3.208  49.656  1.00  0.00     0.039 A 
HETATM   10  C6  UNL     1      24.171   3.464  49.426  1.00  0.00     0.070 A 
HETATM   11  C14 UNL     1      23.807   4.731  48.984  1.00  0.00     0.039 A 
HETATM   12  C15 UNL     1      24.766   5.727  48.776  1.00  0.00     0.034 A 
BRANCH  10  13
HETATM   13  O1  UNL     1      23.148   2.576  49.590  1.00  0.00    -0.338 OA
BRANCH  13  14
HETATM   14  C7  UNL     1      22.453   2.265  50.761  1.00  0.00     0.177 C 
HETATM   15  C8  UNL     1      22.473   3.479  51.621  1.00  0.00     0.009 C 
HETATM   16  C9  UNL     1      23.235   3.974  52.584  1.00  0.00    -0.001 C 
HETATM   17  C10 UNL     1      24.437   3.359  53.132  1.00  0.00     0.003 C 
HETATM   18  C11 UNL     1      24.753   2.072  53.081  1.00  0.00     0.042 C 
HETATM   19  C12 UNL     1      23.995   0.977  52.477  1.00  0.00     0.115 C 
HETATM   20  F1  UNL     1      24.230  -0.293  52.887  1.00  0.00    -0.206 F 
HETATM   21  C13 UNL     1      23.076   1.150  51.537  1.00  0.00     0.051 C 
ENDBRANCH  13  14
ENDBRANCH  10  13
ENDBRANCH   4   7
BRANCH   6  22
HETATM   22  C18 UNL     1      30.503   6.686  47.458  1.00  0.00    -0.066 C 
HETATM   23  C19 UNL     1      31.544   6.389  46.908  1.00  0.00    -0.082 C 
BRANCH  23  24
HETATM   24  C20 UNL     1      32.787   6.013  46.234  1.00  0.00     0.212 C 
BRANCH  24  25
HETATM   25  N4  UNL     1      33.164   4.713  46.660  1.00  0.00    -0.399 N 
HETATM   26  C21 UNL     1      32.299   3.639  46.293  1.00  0.00     0.144 C 
HETATM   27  C22 UNL     1      32.920   2.368  46.874  1.00  0.00     0.187 C 
HETATM   28  O2  UNL     1      33.643   2.699  47.992  1.00  0.00    -0.388 OA
HETATM   29  C23 UNL     1      34.806   3.411  47.755  1.00  0.00     0.187 C 
HETATM   30  C24 UNL     1      34.552   4.395  46.611  1.00  0.00     0.144 C 
ENDBRANCH  24  25
ENDBRANCH  23  24
ENDBRANCH   6  22
BRANCH   1  31
HETATM   31  N1  UNL     1      30.144   8.561  49.636  1.00  0.00     0.093 N 
HETATM   32  H1  UNL     1      30.619   9.502  49.488  1.00  0.00     0.314 HD
HETATM   33  H2  UNL     1      29.651   8.561  50.565  1.00  0.00     0.314 HD
ENDBRANCH   1  31
TORSDOF 7
ENDMDL
MODEL 2
REMARK VINA RESULT:      -8.6      1.193      1.620
REMARK  7 active torsions:
REMARK  status: ('A' for Active; 'I' for Inactive)
REMARK    1  A    between atoms: N1_1  and  C1_2 
REMARK    2  A    between atoms: N3_5  and  C3_6 
REMARK    3  A    between atoms: C6_9  and  O1_10 
REMARK    4  A    between atoms: O1_10  and  C7_11 
REMARK    5  A    between atoms: C17_22  and  C18_23 
REMARK    6  A    between atoms: C19_24  and  C20_25 
REMARK    7  A    between atoms: C20_25  and  N4_26 
ROOT
HETATM    1  C1  UNL     1      28.505   8.238  47.080  1.00  0.00     0.302 A 
HETATM    2  C2  UNL     1      27.077   8.301  47.476  1.00  0.00     0.152 A 
HETATM    3  N2  UNL     1      26.462   7.360  48.096  1.00  0.00    -0.182 NA
HETATM    4  N3  UNL     1      27.089   6.165  48.464  1.00  0.00    -0.245 N 
HETATM    5  C16 UNL     1      28.459   5.939  48.161  1.00  0.00     0.137 A 
HETATM    6  C17 UNL     1      29.044   6.929  47.527  1.00  0.00     0.051 A 
ENDROOT
BRANCH   4   7
HETATM    7  C3  UNL     1      26.311   5.192  49.148  1.00  0.00     0.058 A 
HETATM    8  C4  UNL     1      26.869   3.937  49.367  1.00  0.00     0.034 A 
HETATM    9  C5  UNL     1      26.232   2.897  50.013  1.00  0.00     0.039 A 
HETATM   10  C6  UNL     1      24.970   3.093  50.479  1.00  0.00     0.070 A 
HETATM   11  C14 UNL     1      24.374   4.333  50.283  1.00  0.00     0.039 A 
HETATM   12  C15 UNL     1      25.050   5.363  49.622  1.00  0.00     0.034 A 
BRANCH  10  13
HETATM   13  O1  UNL     1      24.212   2.167  51.135  1.00  0.00    -0.338 OA
BRANCH  13  14
HETATM   14  C7  UNL     1      23.817   2.166  52.474  1.00  0.00     0.177 C 
HETATM   15  C8  UNL     1      25.022   2.474  53.290  1.00  0.00     0.009 C 
HETATM   16  C9  UNL     1      25.979   1.794  53.904  1.00  0.00    -0.001 C 
HETATM   17  C10 UNL     1      26.116   0.345  53.942  1.00  0.00     0.003 C 
HETATM   18  C11 UNL     1      25.147  -0.541  53.746  1.00  0.00     0.042 C 
HETATM   19  C12 UNL     1      23.737  -0.288  53.449  1.00  0.00     0.115 C 
HETATM   20  F1  UNL     1      22.825  -1.256  53.711  1.00  0.00    -0.206 F 
HETATM   21  C13 UNL     1      23.287   0.846  52.931  1.00  0.00     0.051 C 
ENDBRANCH  13  14
ENDBRANCH  10  13
ENDBRANCH   4   7
BRANCH   6  22
HETATM   22  C18 UNL     1      30.451   6.730  47.201  1.00  0.00    -0.066 C 
HETATM   23  C19 UNL     1      31.623   6.545  46.937  1.00  0.00    -0.082 C 
BRANCH  23  24
HETATM   24  C20 UNL     1      33.035   6.307  46.640  1.00  0.00     0.212 C 
BRANCH  24  25
HETATM   25  N4  UNL     1      33.334   4.943  46.890  1.00  0.00    -0.399 N 
HETATM   26  C21 UNL     1      32.504   3.975  46.250  1.00  0.00     0.144 C 
HETATM   27  C22 UNL     1      33.024   2.605  46.686  1.00  0.00     0.187 C 
HETATM   28  O2  UNL     1      33.607   2.726  47.923  1.00  0.00    -0.388 OA
HETATM   29  C23 UNL     1      34.802   3.422  47.948  1.00  0.00     0.187 C 
HETATM   30  C24 UNL     1      34.711   4.586  46.958  1.00  0.00     0.144 C 
ENDBRANCH  24  25
ENDBRANCH  23  24
ENDBRANCH   6  22
BRANCH   1  31
HETATM   31  N1  UNL     1      29.192   9.243  47.900  1.00  0.00     0.093 N 
HETATM   32  H1  UNL     1      30.221   8.971  47.878  1.00  0.00     0.314 HD
HETATM   33  H2  UNL     1      29.074  10.196  47.471  1.00  0.00     0.314 HD
ENDBRANCH   1  31
TORSDOF 7
ENDMDL
MODEL 3
REMARK VINA RESULT:      -8.5      3.811      8.508
REMARK  7 active torsions:
REMARK  status: ('A' for Active; 'I' for Inactive)
REMARK    1  A    between atoms: N1_1  and  C1_2 
REMARK    2  A    between atoms: N3_5  and  C3_6 
REMARK    3  A    between atoms: C6_9  and  O1_10 
REMARK    4  A    between atoms: O1_10  and  C7_11 
REMARK    5  A    between atoms: C17_22  and  C18_23 
REMARK    6  A    between atoms: C19_24  and  C20_25 
REMARK    7  A    between atoms: C20_25  and  N4_26 
ROOT
HETATM    1  C1  UNL     1      23.086   3.157  50.519  1.00  0.00     0.302 A 
HETATM    2  C2  UNL     1      22.993   4.283  49.558  1.00  0.00     0.152 A 
HETATM    3  N2  UNL     1      24.009   4.920  49.099  1.00  0.00    -0.182 NA
HETATM    4  N3  UNL     1      25.322   4.609  49.466  1.00  0.00    -0.245 N 
HETATM    5  C16 UNL     1      25.592   3.555  50.381  1.00  0.00     0.137 A 
HETATM    6  C17 UNL     1      24.523   2.934  50.822  1.00  0.00     0.051 A 
ENDROOT
BRANCH   4   7
HETATM    7  C3  UNL     1      26.371   5.381  48.896  1.00  0.00     0.058 A 
HETATM    8  C4  UNL     1      27.603   4.769  48.689  1.00  0.00     0.034 A 
HETATM    9  C5  UNL     1      28.708   5.395  48.147  1.00  0.00     0.039 A 
HETATM   10  C6  UNL     1      28.606   6.699  47.780  1.00  0.00     0.070 A 
HETATM   11  C14 UNL     1      27.391   7.349  47.969  1.00  0.00     0.039 A 
HETATM   12  C15 UNL     1      26.293   6.684  48.523  1.00  0.00     0.034 A 
BRANCH  10  13
HETATM   13  O1  UNL     1      29.604   7.451  47.234  1.00  0.00    -0.338 OA
BRANCH  13  14
HETATM   14  C7  UNL     1      30.746   7.956  47.860  1.00  0.00     0.177 C 
HETATM   15  C8  UNL     1      31.876   7.806  46.903  1.00  0.00     0.009 C 
HETATM   16  C9  UNL     1      32.809   6.906  46.635  1.00  0.00    -0.001 C 
HETATM   17  C10 UNL     1      32.996   5.632  47.317  1.00  0.00     0.003 C 
HETATM   18  C11 UNL     1      32.570   5.324  48.536  1.00  0.00     0.042 C 
HETATM   19  C12 UNL     1      31.826   6.163  49.473  1.00  0.00     0.115 C 
HETATM   20  F1  UNL     1      31.858   5.864  50.794  1.00  0.00    -0.206 F 
HETATM   21  C13 UNL     1      31.109   7.217  49.107  1.00  0.00     0.051 C 
ENDBRANCH  13  14
ENDBRANCH  10  13
ENDBRANCH   4   7
BRANCH   6  22
HETATM   22  C18 UNL     1      24.763   1.845  51.762  1.00  0.00    -0.066 C 
HETATM   23  C19 UNL     1      24.946   0.944  52.556  1.00  0.00    -0.082 C 
BRANCH  23  24
HETATM   24  C20 UNL     1      25.157  -0.126  53.530  1.00  0.00     0.212 C 
BRANCH  24  25
HETATM   25  N4  UNL     1      26.551  -0.325  53.701  1.00  0.00    -0.399 N 
HETATM   26  C21 UNL     1      27.191  -1.217  52.790  1.00  0.00     0.144 C 
HETATM   27  C22 UNL     1      28.665  -1.260  53.191  1.00  0.00     0.187 C 
HETATM   28  O2  UNL     1      28.766  -1.001  54.535  1.00  0.00    -0.388 OA
HETATM   29  C23 UNL     1      28.485   0.301  54.909  1.00  0.00     0.187 C 
HETATM   30  C24 UNL     1      27.328   0.817  54.050  1.00  0.00     0.144 C 
ENDBRANCH  24  25
ENDBRANCH  23  24
ENDBRANCH   6  22
BRANCH   1  31
HETATM   31  N1  UNL     1      22.654   1.964  49.781  1.00  0.00     0.093 N 
HETATM   32  H1  UNL     1      23.485   1.300  49.804  1.00  0.00     0.314 HD
HETATM   33  H2  UNL     1      21.837   1.517  50.269  1.00  0.00     0.314 HD
ENDBRANCH   1  31
TORSDOF 7
ENDMDL
MODEL 4
REMARK VINA RESULT:      -8.5      4.373      9.052
REMARK  7 active torsions:
REMARK  status: ('A' for Active; 'I' for Inactive)
REMARK    1  A    between atoms: N1_1  and  C1_2 
REMARK    2  A    between atoms: N3_5  and  C3_6 
REMARK    3  A    between atoms: C6_9  and  O1_10 
REMARK    4  A    between atoms: O1_10  and  C7_11 
REMARK    5  A    between atoms: C17_22  and  C18_23 
REMARK    6  A    between atoms: C19_24  and  C20_25 
REMARK    7  A    between atoms: C20_25  and  N4_26 
ROOT
HETATM    1  C1  UNL     1      23.164   3.884  49.850  1.00  0.00     0.302 A 
HETATM    2  C2  UNL     1      23.293   5.029  48.916  1.00  0.00     0.152 A 
HETATM    3  N2  UNL     1      24.415   5.552  48.573  1.00  0.00    -0.182 NA
HETATM    4  N3  UNL     1      25.642   5.085  49.053  1.00  0.00    -0.245 N 
HETATM    5  C16 UNL     1      25.700   3.991  49.960  1.00  0.00     0.137 A 
HETATM    6  C17 UNL     1      24.529   3.491  50.281  1.00  0.00     0.051 A 
ENDROOT
BRANCH   4   7
HETATM    7  C3  UNL     1      26.821   5.739  48.606  1.00  0.00     0.058 A 
HETATM    8  C4  UNL     1      28.015   5.025  48.613  1.00  0.00     0.034 A 
HETATM    9  C5  UNL     1      29.235   5.531  48.208  1.00  0.00     0.039 A 
HETATM   10  C6  UNL     1      29.295   6.815  47.767  1.00  0.00     0.070 A 
HETATM   11  C14 UNL     1      28.124   7.565  47.743  1.00  0.00     0.039 A 
HETATM   12  C15 UNL     1      26.907   7.019  48.162  1.00  0.00     0.034 A 
BRANCH  10  13
HETATM   13  O1  UNL     1      30.420   7.455  47.337  1.00  0.00    -0.338 OA
BRANCH  13  14
HETATM   14  C7  UNL     1      31.513   7.883  48.094  1.00  0.00     0.177 C 
HETATM   15  C8  UNL     1      30.975   8.608  49.276  1.00  0.00     0.009 C 
HETATM   16  C9  UNL     1      30.672   9.857  49.595  1.00  0.00    -0.001 C 
HETATM   17  C10 UNL     1      30.812  11.023  48.732  1.00  0.00     0.003 C 
HETATM   18  C11 UNL     1      31.612  11.127  47.677  1.00  0.00     0.042 C 
HETATM   19  C12 UNL     1      32.527  10.125  47.133  1.00  0.00     0.115 C 
HETATM   20  F1  UNL     1      33.559  10.530  46.354  1.00  0.00    -0.206 F 
HETATM   21  C13 UNL     1      32.409   8.824  47.356  1.00  0.00     0.051 C 
ENDBRANCH  13  14
ENDBRANCH  10  13
ENDBRANCH   4   7
BRANCH   6  22
HETATM   22  C18 UNL     1      24.552   2.366  51.209  1.00  0.00    -0.066 C 
HETATM   23  C19 UNL     1      24.568   1.443  51.997  1.00  0.00    -0.082 C 
BRANCH  23  24
HETATM   24  C20 UNL     1      24.596   0.346  52.965  1.00  0.00     0.212 C 
BRANCH  24  25
HETATM   25  N4  UNL     1      25.945   0.067  53.303  1.00  0.00    -0.399 N 
HETATM   26  C21 UNL     1      26.725  -0.620  52.326  1.00  0.00     0.144 C 
HETATM   27  C22 UNL     1      28.116  -0.803  52.934  1.00  0.00     0.187 C 
HETATM   28  O2  UNL     1      27.999  -0.854  54.300  1.00  0.00    -0.388 OA
HETATM   29  C23 UNL     1      27.658   0.340  54.910  1.00  0.00     0.187 C 
HETATM   30  C24 UNL     1      26.653   1.074  54.020  1.00  0.00     0.144 C 
ENDBRANCH  24  25
ENDBRANCH  23  24
ENDBRANCH   6  22
BRANCH   1  31
HETATM   31  N1  UNL     1      22.672   2.762  49.042  1.00  0.00     0.093 N 
HETATM   32  H1  UNL     1      21.933   2.284  49.640  1.00  0.00     0.314 HD
HETATM   33  H2  UNL     1      22.227   3.124  48.160  1.00  0.00     0.314 HD
ENDBRANCH   1  31
TORSDOF 7
ENDMDL
MODEL 5
REMARK VINA RESULT:      -8.2      7.654     12.928
REMARK  7 active torsions:
REMARK  status: ('A' for Active; 'I' for Inactive)
REMARK    1  A    between atoms: N1_1  and  C1_2 
REMARK    2  A    between atoms: N3_5  and  C3_6 
REMARK    3  A    between atoms: C6_9  and  O1_10 
REMARK    4  A    between atoms: O1_10  and  C7_11 
REMARK    5  A    between atoms: C17_22  and  C18_23 
REMARK    6  A    between atoms: C19_24  and  C20_25 
REMARK    7  A    between atoms: C20_25  and  N4_26 
ROOT
HETATM    1  C1  UNL     1      16.981  -1.274  52.474  1.00  0.00     0.302 A 
HETATM    2  C2  UNL     1      17.946  -1.827  53.454  1.00  0.00     0.152 A 
HETATM    3  N2  UNL     1      19.174  -1.459  53.537  1.00  0.00    -0.182 NA
HETATM    4  N3  UNL     1      19.728  -0.487  52.698  1.00  0.00    -0.245 N 
HETATM    5  C16 UNL     1      18.940   0.146  51.699  1.00  0.00     0.137 A 
HETATM    6  C17 UNL     1      17.693  -0.262  51.654  1.00  0.00     0.051 A 
ENDROOT
BRANCH   4   7
HETATM    7  C3  UNL     1      21.099  -0.159  52.879  1.00  0.00     0.058 A 
HETATM    8  C4  UNL     1      21.872  -0.979  53.694  1.00  0.00     0.034 A 
HETATM    9  C5  UNL     1      23.213  -0.782  53.960  1.00  0.00     0.039 A 
HETATM   10  C6  UNL     1      23.841   0.282  53.393  1.00  0.00     0.070 A 
HETATM   11  C14 UNL     1      23.106   1.127  52.570  1.00  0.00     0.039 A 
HETATM   12  C15 UNL     1      21.748   0.897  52.325  1.00  0.00     0.034 A 
BRANCH  10  13
HETATM   13  O1  UNL     1      25.155   0.609  53.560  1.00  0.00    -0.338 OA
BRANCH  13  14
HETATM   14  C7  UNL     1      26.135   0.772  52.579  1.00  0.00     0.177 C 
HETATM   15  C8  UNL     1      26.754  -0.561  52.349  1.00  0.00     0.009 C 
HETATM   16  C9  UNL     1      27.788  -1.245  52.815  1.00  0.00    -0.001 C 
HETATM   17  C10 UNL     1      28.729  -0.795  53.832  1.00  0.00     0.003 C 
HETATM   18  C11 UNL     1      28.980   0.465  54.168  1.00  0.00     0.042 C 
HETATM   19  C12 UNL     1      28.388   1.682  53.616  1.00  0.00     0.115 C 
HETATM   20  F1  UNL     1      29.052   2.856  53.749  1.00  0.00    -0.206 F 
HETATM   21  C13 UNL     1      27.223   1.713  52.983  1.00  0.00     0.051 C 
ENDBRANCH  13  14
ENDBRANCH  10  13
ENDBRANCH   4   7
BRANCH   6  22
HETATM   22  C18 UNL     1      16.855   0.369  50.640  1.00  0.00    -0.066 C 
HETATM   23  C19 UNL     1      16.174   0.906  49.790  1.00  0.00    -0.082 C 
BRANCH  23  24
HETATM   24  C20 UNL     1      15.367   1.575  48.770  1.00  0.00     0.212 C 
BRANCH  24  25
HETATM   25  N4  UNL     1      14.598   2.595  49.387  1.00  0.00    -0.399 N 
HETATM   26  C21 UNL     1      14.543   3.854  48.716  1.00  0.00     0.144 C 
HETATM   27  C22 UNL     1      13.673   4.766  49.581  1.00  0.00     0.187 C 
HETATM   28  O2  UNL     1      13.770   4.361  50.888  1.00  0.00    -0.388 OA
HETATM   29  C23 UNL     1      13.162   3.152  51.180  1.00  0.00     0.187 C 
HETATM   30  C24 UNL     1      13.375   2.201  50.001  1.00  0.00     0.144 C 
ENDBRANCH  24  25
ENDBRANCH  23  24
ENDBRANCH   6  22
BRANCH   1  31
HETATM   31  N1  UNL     1      16.000  -0.516  53.262  1.00  0.00     0.093 N 
HETATM   32  H1  UNL     1      16.459   0.424  53.458  1.00  0.00     0.314 HD
HETATM   33  H2  UNL     1      15.126  -0.366  52.697  1.00  0.00     0.314 HD
ENDBRANCH   1  31
TORSDOF 7
ENDMDL
MODEL 6
REMARK VINA RESULT:      -8.2      7.410     12.560
REMARK  7 active torsions:
REMARK  status: ('A' for Active; 'I' for Inactive)
REMARK    1  A    between atoms: N1_1  and  C1_2 
REMARK    2  A    between atoms: N3_5  and  C3_6 
REMARK    3  A    between atoms: C6_9  and  O1_10 
REMARK    4  A    between atoms: O1_10  and  C7_11 
REMARK    5  A    between atoms: C17_22  and  C18_23 
REMARK    6  A    between atoms: C19_24  and  C20_25 
REMARK    7  A    between atoms: C20_25  and  N4_26 
ROOT
HETATM    1  C1  UNL     1      17.077  -1.329  52.393  1.00  0.00     0.302 A 
HETATM    2  C2  UNL     1      18.063  -1.690  53.440  1.00  0.00     0.152 A 
HETATM    3  N2  UNL     1      19.261  -1.231  53.486  1.00  0.00    -0.182 NA
HETATM    4  N3  UNL     1      19.761  -0.333  52.538  1.00  0.00    -0.245 N 
HETATM    5  C16 UNL     1      18.947   0.118  51.463  1.00  0.00     0.137 A 
HETATM    6  C17 UNL     1      17.731  -0.378  51.459  1.00  0.00     0.051 A 
ENDROOT
BRANCH   4   7
HETATM    7  C3  UNL     1      21.103   0.109  52.686  1.00  0.00     0.058 A 
HETATM    8  C4  UNL     1      21.962  -0.642  53.482  1.00  0.00     0.034 A 
HETATM    9  C5  UNL     1      23.287  -0.333  53.716  1.00  0.00     0.039 A 
HETATM   10  C6  UNL     1      23.810   0.778  53.135  1.00  0.00     0.070 A 
HETATM   11  C14 UNL     1      22.988   1.558  52.330  1.00  0.00     0.039 A 
HETATM   12  C15 UNL     1      21.649   1.214  52.117  1.00  0.00     0.034 A 
BRANCH  10  13
HETATM   13  O1  UNL     1      25.096   1.214  53.271  1.00  0.00    -0.338 OA
BRANCH  13  14
HETATM   14  C7  UNL     1      26.131   1.155  52.335  1.00  0.00     0.177 C 
HETATM   15  C8  UNL     1      26.599  -0.256  52.285  1.00  0.00     0.009 C 
HETATM   16  C9  UNL     1      27.524  -0.995  52.880  1.00  0.00    -0.001 C 
HETATM   17  C10 UNL     1      28.465  -0.541  53.896  1.00  0.00     0.003 C 
HETATM   18  C11 UNL     1      28.846   0.712  54.109  1.00  0.00     0.042 C 
HETATM   19  C12 UNL     1      28.427   1.919  53.396  1.00  0.00     0.115 C 
HETATM   20  F1  UNL     1      29.218   3.018  53.441  1.00  0.00    -0.206 F 
HETATM   21  C13 UNL     1      27.303   2.008  52.699  1.00  0.00     0.051 C 
ENDBRANCH  13  14
ENDBRANCH  10  13
ENDBRANCH   4   7
BRANCH   6  22
HETATM   22  C18 UNL     1      16.868   0.065  50.370  1.00  0.00    -0.066 C 
HETATM   23  C19 UNL     1      16.143   0.414  49.461  1.00  0.00    -0.082 C 
BRANCH  23  24
HETATM   24  C20 UNL     1      15.273   0.812  48.354  1.00  0.00     0.212 C 
BRANCH  24  25
HETATM   25  N4  UNL     1      15.270  -0.218  47.378  1.00  0.00    -0.399 N 
HETATM   26  C21 UNL     1      15.321  -1.561  47.859  1.00  0.00     0.144 C 
HETATM   27  C22 UNL     1      15.317  -2.462  46.624  1.00  0.00     0.187 C 
HETATM   28  O2  UNL     1      15.881  -1.779  45.576  1.00  0.00    -0.388 OA
HETATM   29  C23 UNL     1      15.126  -0.733  45.075  1.00  0.00     0.187 C 
HETATM   30  C24 UNL     1      14.430  -0.031  46.243  1.00  0.00     0.144 C 
ENDBRANCH  24  25
ENDBRANCH  23  24
ENDBRANCH   6  22
BRANCH   1  31
HETATM   31  N1  UNL     1      16.036  -0.551  53.075  1.00  0.00     0.093 N 
HETATM   32  H1  UNL     1      16.407   0.446  53.116  1.00  0.00     0.314 HD
HETATM   33  H2  UNL     1      15.148  -0.568  52.511  1.00  0.00     0.314 HD
ENDBRANCH   1  31
TORSDOF 7
ENDMDL
MODEL 7
REMARK VINA RESULT:      -8.1      2.255      3.287
REMARK  7 active torsions:
REMARK  status: ('A' for Active; 'I' for Inactive)
REMARK    1  A    between atoms: N1_1  and  C1_2 
REMARK    2  A    between atoms: N3_5  and  C3_6 
REMARK    3  A    between atoms: C6_9  and  O1_10 
REMARK    4  A    between atoms: O1_10  and  C7_11 
REMARK    5  A    between atoms: C17_22  and  C18_23 
REMARK    6  A    between atoms: C19_24  and  C20_25 
REMARK    7  A    between atoms: C20_25  and  N4_26 
ROOT
HETATM    1  C1  UNL     1      25.555   7.897  47.397  1.00  0.00     0.302 A 
HETATM    2  C2  UNL     1      24.217   7.548  47.934  1.00  0.00     0.152 A 
HETATM    3  N2  UNL     1      24.009   6.608  48.785  1.00  0.00    -0.182 NA
HETATM    4  N3  UNL     1      25.039   5.811  49.294  1.00  0.00    -0.245 N 
HETATM    5  C16 UNL     1      26.385   6.011  48.883  1.00  0.00     0.137 A 
HETATM    6  C17 UNL     1      26.547   6.982  48.014  1.00  0.00     0.051 A 
ENDROOT
BRANCH   4   7
HETATM    7  C3  UNL     1      24.693   4.799  50.230  1.00  0.00     0.058 A 
HETATM    8  C4  UNL     1      25.244   3.532  50.066  1.00  0.00     0.034 A 
HETATM    9  C5  UNL     1      24.997   2.456  50.895  1.00  0.00     0.039 A 
HETATM   10  C6  UNL     1      24.163   2.626  51.953  1.00  0.00     0.070 A 
HETATM   11  C14 UNL     1      23.591   3.877  52.156  1.00  0.00     0.039 A 
HETATM   12  C15 UNL     1      23.862   4.944  51.294  1.00  0.00     0.034 A 
BRANCH  10  13
HETATM   13  O1  UNL     1      23.821   1.663  52.858  1.00  0.00    -0.338 OA
BRANCH  13  14
HETATM   14  C7  UNL     1      23.472   0.333  52.614  1.00  0.00     0.177 C 
HETATM   15  C8  UNL     1      22.090   0.333  52.064  1.00  0.00     0.009 C 
HETATM   16  C9  UNL     1      20.857   0.236  52.537  1.00  0.00    -0.001 C 
HETATM   17  C10 UNL     1      20.482   0.079  53.936  1.00  0.00     0.003 C 
HETATM   18  C11 UNL     1      21.253  -0.393  54.907  1.00  0.00     0.042 C 
HETATM   19  C12 UNL     1      22.636  -0.859  54.818  1.00  0.00     0.115 C 
HETATM   20  F1  UNL     1      23.112  -1.694  55.773  1.00  0.00    -0.206 F 
HETATM   21  C13 UNL     1      23.468  -0.511  53.847  1.00  0.00     0.051 C 
ENDBRANCH  13  14
ENDBRANCH  10  13
ENDBRANCH   4   7
BRANCH   6  22
HETATM   22  C18 UNL     1      27.917   7.216  47.572  1.00  0.00    -0.066 C 
HETATM   23  C19 UNL     1      29.065   7.407  47.223  1.00  0.00    -0.082 C 
BRANCH  23  24
HETATM   24  C20 UNL     1      30.452   7.648  46.826  1.00  0.00     0.212 C 
BRANCH  24  25
HETATM   25  N4  UNL     1      31.296   6.764  47.546  1.00  0.00    -0.399 N 
HETATM   26  C21 UNL     1      32.271   6.047  46.790  1.00  0.00     0.144 C 
HETATM   27  C22 UNL     1      33.031   5.171  47.786  1.00  0.00     0.187 C 
HETATM   28  O2  UNL     1      32.202   4.875  48.838  1.00  0.00    -0.388 OA
HETATM   29  C23 UNL     1      31.906   5.937  49.675  1.00  0.00     0.187 C 
HETATM   30  C24 UNL     1      31.747   7.199  48.825  1.00  0.00     0.144 C 
ENDBRANCH  24  25
ENDBRANCH  23  24
ENDBRANCH   6  22
BRANCH   1  31
HETATM   31  N1  UNL     1      25.866   9.228  47.932  1.00  0.00     0.093 N 
HETATM   32  H1  UNL     1      26.034   9.844  47.081  1.00  0.00     0.314 HD
HETATM   33  H2  UNL     1      25.043   9.598  48.473  1.00  0.00     0.314 HD
ENDBRANCH   1  31
TORSDOF 7
ENDMDL
MODEL 8
REMARK VINA RESULT:      -8.0      5.137     10.540
REMARK  7 active torsions:
REMARK  status: ('A' for Active; 'I' for Inactive)
REMARK    1  A    between atoms: N1_1  and  C1_2 
REMARK    2  A    between atoms: N3_5  and  C3_6 
REMARK    3  A    between atoms: C6_9  and  O1_10 
REMARK    4  A    between atoms: O1_10  and  C7_11 
REMARK    5  A    between atoms: C17_22  and  C18_23 
REMARK    6  A    between atoms: C19_24  and  C20_25 
REMARK    7  A    between atoms: C20_25  and  N4_26 
ROOT
HETATM    1  C1  UNL     1      25.696  -0.517  53.056  1.00  0.00     0.302 A 
HETATM    2  C2  UNL     1      26.864   0.169  52.454  1.00  0.00     0.152 A 
HETATM    3  N2  UNL     1      26.787   1.257  51.775  1.00  0.00    -0.182 NA
HETATM    4  N3  UNL     1      25.573   1.910  51.534  1.00  0.00    -0.245 N 
HETATM    5  C16 UNL     1      24.353   1.386  52.040  1.00  0.00     0.137 A 
HETATM    6  C17 UNL     1      24.483   0.275  52.727  1.00  0.00     0.051 A 
ENDROOT
BRANCH   4   7
HETATM    7  C3  UNL     1      25.605   3.107  50.770  1.00  0.00     0.058 A 
HETATM    8  C4  UNL     1      26.648   3.287  49.867  1.00  0.00     0.034 A 
HETATM    9  C5  UNL     1      26.807   4.397  49.062  1.00  0.00     0.039 A 
HETATM   10  C6  UNL     1      25.889   5.395  49.139  1.00  0.00     0.070 A 
HETATM   11  C14 UNL     1      24.829   5.257  50.027  1.00  0.00     0.039 A 
HETATM   12  C15 UNL     1      24.701   4.119  50.829  1.00  0.00     0.034 A 
BRANCH  10  13
HETATM   13  O1  UNL     1      25.909   6.550  48.413  1.00  0.00    -0.338 OA
BRANCH  13  14
HETATM   14  C7  UNL     1      27.018   7.257  47.944  1.00  0.00     0.177 C 
HETATM   15  C8  UNL     1      27.535   8.069  49.078  1.00  0.00     0.009 C 
HETATM   16  C9  UNL     1      27.360   9.291  49.557  1.00  0.00    -0.001 C 
HETATM   17  C10 UNL     1      26.476  10.311  49.009  1.00  0.00     0.003 C 
HETATM   18  C11 UNL     1      26.022  10.370  47.764  1.00  0.00     0.042 C 
HETATM   19  C12 UNL     1      26.287   9.448  46.660  1.00  0.00     0.115 C 
HETATM   20  F1  UNL     1      26.116   9.878  45.386  1.00  0.00    -0.206 F 
HETATM   21  C13 UNL     1      26.690   8.196  46.828  1.00  0.00     0.051 C 
ENDBRANCH  13  14
ENDBRANCH  10  13
ENDBRANCH   4   7
BRANCH   6  22
HETATM   22  C18 UNL     1      23.250  -0.290  53.262  1.00  0.00    -0.066 C 
HETATM   23  C19 UNL     1      22.211  -0.747  53.696  1.00  0.00    -0.082 C 
BRANCH  23  24
HETATM   24  C20 UNL     1      20.950  -1.274  54.215  1.00  0.00     0.212 C 
BRANCH  24  25
HETATM   25  N4  UNL     1      19.892  -0.856  53.367  1.00  0.00    -0.399 N 
HETATM   26  C21 UNL     1      18.619  -1.465  53.577  1.00  0.00     0.144 C 
HETATM   27  C22 UNL     1      17.673  -0.855  52.542  1.00  0.00     0.187 C 
HETATM   28  O2  UNL     1      18.403  -0.474  51.445  1.00  0.00    -0.388 OA
HETATM   29  C23 UNL     1      19.235   0.615  51.636  1.00  0.00     0.187 C 
HETATM   30  C24 UNL     1      19.836   0.530  53.041  1.00  0.00     0.144 C 
ENDBRANCH  24  25
ENDBRANCH  23  24
ENDBRANCH   6  22
BRANCH   1  31
HETATM   31  N1  UNL     1      25.862  -0.389  54.509  1.00  0.00     0.093 N 
HETATM   32  H1  UNL     1      26.500   0.451  54.648  1.00  0.00     0.314 HD
HETATM   33  H2  UNL     1      24.931  -0.198  54.960  1.00  0.00     0.314 HD
ENDBRANCH   1  31
TORSDOF 7
ENDMDL
MODEL 9
REMARK VINA RESULT:      -8.0      4.707      8.958
REMARK  7 active torsions:
REMARK  status: ('A' for Active; 'I' for Inactive)
REMARK    1  A    between atoms: N1_1  and  C1_2 
REMARK    2  A    between atoms: N3_5  and  C3_6 
REMARK    3  A    between atoms: C6_9  and  O1_10 
REMARK    4  A    between atoms: O1_10  and  C7_11 
REMARK    5  A    between atoms: C17_22  and  C18_23 
REMARK    6  A    between atoms: C19_24  and  C20_25 
REMARK    7  A    between atoms: C20_25  and  N4_26 
ROOT
HETATM    1  C1  UNL     1      22.209   2.559  50.212  1.00  0.00     0.302 A 
HETATM    2  C2  UNL     1      22.046   3.645  49.216  1.00  0.00     0.152 A 
HETATM    3  N2  UNL     1      22.989   4.441  48.862  1.00  0.00    -0.182 NA
HETATM    4  N3  UNL     1      24.282   4.360  49.389  1.00  0.00    -0.245 N 
HETATM    5  C16 UNL     1      24.611   3.373  50.358  1.00  0.00     0.137 A 
HETATM    6  C17 UNL     1      23.615   2.583  50.687  1.00  0.00     0.051 A 
ENDROOT
BRANCH   4   7
HETATM    7  C3  UNL     1      25.247   5.293  48.925  1.00  0.00     0.058 A 
HETATM    8  C4  UNL     1      26.592   4.941  48.994  1.00  0.00     0.034 A 
HETATM    9  C5  UNL     1      27.635   5.746  48.582  1.00  0.00     0.039 A 
HETATM   10  C6  UNL     1      27.352   6.971  48.067  1.00  0.00     0.070 A 
HETATM   11  C14 UNL     1      26.020   7.363  47.979  1.00  0.00     0.039 A 
HETATM   12  C15 UNL     1      24.989   6.521  48.408  1.00  0.00     0.034 A 
BRANCH  10  13
HETATM   13  O1  UNL     1      28.268   7.877  47.620  1.00  0.00    -0.338 OA
BRANCH  13  14
HETATM   14  C7  UNL     1      28.354   9.238  47.918  1.00  0.00     0.177 C 
HETATM   15  C8  UNL     1      28.806   9.933  46.683  1.00  0.00     0.009 C 
HETATM   16  C9  UNL     1      29.956  10.306  46.145  1.00  0.00    -0.001 C 
HETATM   17  C10 UNL     1      31.281  10.096  46.714  1.00  0.00     0.003 C 
HETATM   18  C11 UNL     1      31.561   9.887  47.995  1.00  0.00     0.042 C 
HETATM   19  C12 UNL     1      30.633   9.815  49.123  1.00  0.00     0.115 C 
HETATM   20  F1  UNL     1      31.102  10.034  50.376  1.00  0.00    -0.206 F 
HETATM   21  C13 UNL     1      29.342   9.544  48.997  1.00  0.00     0.051 C 
ENDBRANCH  13  14
ENDBRANCH  10  13
ENDBRANCH   4   7
BRANCH   6  22
HETATM   22  C18 UNL     1      23.919   1.558  51.679  1.00  0.00    -0.066 C 
HETATM   23  C19 UNL     1      24.170   0.718  52.520  1.00  0.00    -0.082 C 
BRANCH  23  24
HETATM   24  C20 UNL     1      24.483  -0.275  53.547  1.00  0.00     0.212 C 
BRANCH  24  25
HETATM   25  N4  UNL     1      25.893  -0.384  53.666  1.00  0.00    -0.399 N 
HETATM   26  C21 UNL     1      26.568  -1.134  52.657  1.00  0.00     0.144 C 
HETATM   27  C22 UNL     1      28.053  -1.105  53.019  1.00  0.00     0.187 C 
HETATM   28  O2  UNL     1      28.175  -0.970  54.378  1.00  0.00    -0.388 OA
HETATM   29  C23 UNL     1      27.811   0.265  54.885  1.00  0.00     0.187 C 
HETATM   30  C24 UNL     1      26.595   0.774  54.108  1.00  0.00     0.144 C 
ENDBRANCH  24  25
ENDBRANCH  23  24
ENDBRANCH   6  22
BRANCH   1  31
HETATM   31  N1  UNL     1      22.074   1.304  49.461  1.00  0.00     0.093 N 
HETATM   32  H1  UNL     1      22.792   1.364  48.678  1.00  0.00     0.314 HD
HETATM   33  H2  UNL     1      22.303   0.488  50.083  1.00  0.00     0.314 HD
ENDBRANCH   1  31
TORSDOF 7
ENDMDL
