MODEL 1
REMARK VINA RESULT:      -8.1      0.000      0.000
REMARK  7 active torsions:
REMARK  status: ('A' for Active; 'I' for Inactive)
REMARK    1  A    between atoms: C2_2  and  C3_3 
REMARK    2  A    between atoms: C3_3  and  C4_4 
REMARK    3  A    between atoms: C4_4  and  O1_5 
REMARK    4  A    between atoms: O1_5  and  C5_6 
REMARK    5  A    between atoms: C8_9  and  N1_10 
REMARK    6  A    between atoms: N1_10  and  C9_11 
REMARK    7  A    between atoms: C18_24  and  O2_25 
ROOT
HETATM    1  C5  UNL     1      20.853   0.446  51.367  1.00  0.00     0.103 A 
HETATM    2  C6  UNL     1      22.114   0.261  51.891  1.00  0.00     0.057 A 
HETATM    3  C7  UNL     1      22.470  -0.281  53.100  1.00  0.00     0.042 A 
HETATM    4  C8  UNL     1      23.761  -0.428  53.546  1.00  0.00     0.142 A 
HETATM    5  N2  UNL     1      23.917  -0.977  54.753  1.00  0.00    -0.224 NA
HETATM    6  C15 UNL     1      22.885  -1.367  55.497  1.00  0.00     0.236 A 
HETATM    7  N3  UNL     1      21.629  -1.217  55.053  1.00  0.00    -0.241 NA
HETATM    8  C16 UNL     1      21.382  -0.672  53.845  1.00  0.00     0.075 A 
HETATM    9  C17 UNL     1      20.065  -0.554  53.462  1.00  0.00     0.072 A 
HETATM   10  C18 UNL     1      19.808   0.014  52.205  1.00  0.00     0.103 A 
ENDROOT
BRANCH   4  11
HETATM   11  N1  UNL     1      24.826  -0.003  52.741  1.00  0.00    -0.340 N 
HETATM   12  H11 UNL     1      24.665   0.454  51.823  1.00  0.00     0.167 HD
BRANCH  11  13
HETATM   13  C9  UNL     1      26.220  -0.093  52.976  1.00  0.00     0.035 A 
HETATM   14  C10 UNL     1      26.931  -1.259  52.826  1.00  0.00     0.032 A 
HETATM   15  C11 UNL     1      28.282  -1.402  53.050  1.00  0.00     0.046 A 
HETATM   16  C12 UNL     1      29.014  -0.315  53.454  1.00  0.00     0.138 A 
HETATM   17  F1  UNL     1      30.336  -0.356  53.696  1.00  0.00    -0.204 F 
HETATM   18  C13 UNL     1      28.357   0.880  53.621  1.00  0.00     0.074 A 
HETATM   19 CL1  UNL     1      29.243   2.284  54.133  1.00  0.00    -0.081 Cl
HETATM   20  C14 UNL     1      27.010   0.945  53.380  1.00  0.00     0.056 A 
ENDBRANCH  11  13
ENDBRANCH   4  11
BRANCH   1  21
HETATM   21  O1  UNL     1      20.393   0.941  50.256  1.00  0.00    -0.348 OA
BRANCH  21  22
HETATM   22  C4  UNL     1      20.480   1.656  49.148  1.00  0.00     0.176 C 
BRANCH  22  23
HETATM   23  C3  UNL     1      21.794   1.571  48.430  1.00  0.00     0.026 C 
BRANCH  23  24
HETATM   24  C2  UNL     1      22.525   2.865  48.322  1.00  0.00    -0.002 C 
HETATM   25  C1  UNL     1      23.547   2.951  49.481  1.00  0.00     0.005 C 
ENDBRANCH  23  24
ENDBRANCH  22  23
ENDBRANCH  21  22
ENDBRANCH   1  21
BRANCH  10  26
HETATM   26  O2  UNL     1      18.465   0.110  51.865  1.00  0.00    -0.353 OA
HETATM   27  C19 UNL     1      17.546  -0.812  52.394  1.00  0.00     0.210 C 
ENDBRANCH  10  26
TORSDOF 7
ENDMDL
MODEL 2
REMARK VINA RESULT:      -8.0      2.431      4.598
REMARK  7 active torsions:
REMARK  status: ('A' for Active; 'I' for Inactive)
REMARK    1  A    between atoms: C2_2  and  C3_3 
REMARK    2  A    between atoms: C3_3  and  C4_4 
REMARK    3  A    between atoms: C4_4  and  O1_5 
REMARK    4  A    between atoms: O1_5  and  C5_6 
REMARK    5  A    between atoms: C8_9  and  N1_10 
REMARK    6  A    between atoms: N1_10  and  C9_11 
REMARK    7  A    between atoms: C18_24  and  O2_25 
ROOT
HETATM    1  C5  UNL     1      22.206   1.439  52.399  1.00  0.00     0.103 A 
HETATM    2  C6  UNL     1      23.529   1.822  52.442  1.00  0.00     0.057 A 
HETATM    3  C7  UNL     1      24.279   2.430  51.467  1.00  0.00     0.042 A 
HETATM    4  C8  UNL     1      25.602   2.778  51.595  1.00  0.00     0.142 A 
HETATM    5  N2  UNL     1      26.171   3.362  50.538  1.00  0.00    -0.224 NA
HETATM    6  C15 UNL     1      25.504   3.603  49.412  1.00  0.00     0.236 A 
HETATM    7  N3  UNL     1      24.214   3.258  49.297  1.00  0.00    -0.241 NA
HETATM    8  C16 UNL     1      23.562   2.663  50.316  1.00  0.00     0.075 A 
HETATM    9  C17 UNL     1      22.239   2.341  50.119  1.00  0.00     0.072 A 
HETATM   10  C18 UNL     1      21.561   1.721  51.180  1.00  0.00     0.103 A 
ENDROOT
BRANCH   4  11
HETATM   11  N1  UNL     1      26.278   2.506  52.792  1.00  0.00    -0.340 N 
HETATM   12  H11 UNL     1      26.125   3.077  53.645  1.00  0.00     0.167 HD
BRANCH  11  13
HETATM   13  C9  UNL     1      27.226   1.493  53.076  1.00  0.00     0.035 A 
HETATM   14  C10 UNL     1      28.443   1.749  53.661  1.00  0.00     0.032 A 
HETATM   15  C11 UNL     1      29.402   0.804  53.952  1.00  0.00     0.046 A 
HETATM   16  C12 UNL     1      29.160  -0.512  53.649  1.00  0.00     0.138 A 
HETATM   17  F1  UNL     1      30.033  -1.504  53.894  1.00  0.00    -0.204 F 
HETATM   18  C13 UNL     1      27.959  -0.829  53.062  1.00  0.00     0.074 A 
HETATM   19 CL1  UNL     1      27.609  -2.482  52.660  1.00  0.00    -0.081 Cl
HETATM   20  C14 UNL     1      27.054   0.166  52.803  1.00  0.00     0.056 A 
ENDBRANCH  11  13
ENDBRANCH   4  11
BRANCH   1  21
HETATM   21  O1  UNL     1      21.398   0.863  53.238  1.00  0.00    -0.348 OA
BRANCH  21  22
HETATM   22  C4  UNL     1      21.112   0.149  54.312  1.00  0.00     0.176 C 
BRANCH  22  23
HETATM   23  C3  UNL     1      21.748  -1.209  54.369  1.00  0.00     0.026 C 
BRANCH  23  24
HETATM   24  C2  UNL     1      22.845  -1.337  55.369  1.00  0.00    -0.002 C 
HETATM   25  C1  UNL     1      24.178  -0.934  54.694  1.00  0.00     0.005 C 
ENDBRANCH  23  24
ENDBRANCH  22  23
ENDBRANCH  21  22
ENDBRANCH   1  21
BRANCH  10  26
HETATM   26  O2  UNL     1      20.229   1.417  50.931  1.00  0.00    -0.353 OA
HETATM   27  C19 UNL     1      19.704   1.598  49.640  1.00  0.00     0.210 C 
ENDBRANCH  10  26
TORSDOF 7
ENDMDL
MODEL 3
REMARK VINA RESULT:      -7.7      2.463      4.472
REMARK  7 active torsions:
REMARK  status: ('A' for Active; 'I' for Inactive)
REMARK    1  A    between atoms: C2_2  and  C3_3 
REMARK    2  A    between atoms: C3_3  and  C4_4 
REMARK    3  A    between atoms: C4_4  and  O1_5 
REMARK    4  A    between atoms: O1_5  and  C5_6 
REMARK    5  A    between atoms: C8_9  and  N1_10 
REMARK    6  A    between atoms: N1_10  and  C9_11 
REMARK    7  A    between atoms: C18_24  and  O2_25 
ROOT
HETATM    1  C5  UNL     1      21.628   1.968  52.127  1.00  0.00     0.103 A 
HETATM    2  C6  UNL     1      22.933   2.006  51.689  1.00  0.00     0.057 A 
HETATM    3  C7  UNL     1      23.666   3.086  51.265  1.00  0.00     0.042 A 
HETATM    4  C8  UNL     1      24.972   3.032  50.841  1.00  0.00     0.142 A 
HETATM    5  N2  UNL     1      25.525   4.187  50.464  1.00  0.00    -0.224 NA
HETATM    6  C15 UNL     1      24.860   5.339  50.492  1.00  0.00     0.236 A 
HETATM    7  N3  UNL     1      23.586   5.380  50.907  1.00  0.00    -0.241 NA
HETATM    8  C16 UNL     1      22.950   4.260  51.306  1.00  0.00     0.075 A 
HETATM    9  C17 UNL     1      21.643   4.386  51.718  1.00  0.00     0.072 A 
HETATM   10  C18 UNL     1      20.982   3.219  52.132  1.00  0.00     0.103 A 
ENDROOT
BRANCH   4  11
HETATM   11  N1  UNL     1      25.643   1.803  50.817  1.00  0.00    -0.340 N 
HETATM   12  H11 UNL     1      25.568   1.158  50.008  1.00  0.00     0.167 HD
BRANCH  11  13
HETATM   13  C9  UNL     1      26.490   1.224  51.794  1.00  0.00     0.035 A 
HETATM   14  C10 UNL     1      26.448  -0.108  52.127  1.00  0.00     0.032 A 
HETATM   15  C11 UNL     1      27.242  -0.718  53.073  1.00  0.00     0.046 A 
HETATM   16  C12 UNL     1      28.164   0.031  53.759  1.00  0.00     0.138 A 
HETATM   17  F1  UNL     1      28.982  -0.474  54.699  1.00  0.00    -0.204 F 
HETATM   18  C13 UNL     1      28.253   1.371  53.468  1.00  0.00     0.074 A 
HETATM   19 CL1  UNL     1      29.405   2.359  54.312  1.00  0.00    -0.081 Cl
HETATM   20  C14 UNL     1      27.428   1.907  52.514  1.00  0.00     0.056 A 
ENDBRANCH  11  13
ENDBRANCH   4  11
BRANCH   1  21
HETATM   21  O1  UNL     1      20.834   1.027  52.544  1.00  0.00    -0.348 OA
BRANCH  21  22
HETATM   22  C4  UNL     1      20.554  -0.087  53.197  1.00  0.00     0.176 C 
BRANCH  22  23
HETATM   23  C3  UNL     1      21.128  -0.186  54.579  1.00  0.00     0.026 C 
BRANCH  23  24
HETATM   24  C2  UNL     1      22.152  -1.255  54.749  1.00  0.00    -0.002 C 
HETATM   25  C1  UNL     1      23.508  -0.729  54.218  1.00  0.00     0.005 C 
ENDBRANCH  23  24
ENDBRANCH  22  23
ENDBRANCH  21  22
ENDBRANCH   1  21
BRANCH  10  26
HETATM   26  O2  UNL     1      19.667   3.400  52.538  1.00  0.00    -0.353 OA
HETATM   27  C19 UNL     1      18.659   3.574  51.574  1.00  0.00     0.210 C 
ENDBRANCH  10  26
TORSDOF 7
ENDMDL
MODEL 4
REMARK VINA RESULT:      -7.7      1.921      2.631
REMARK  7 active torsions:
REMARK  status: ('A' for Active; 'I' for Inactive)
REMARK    1  A    between atoms: C2_2  and  C3_3 
REMARK    2  A    between atoms: C3_3  and  C4_4 
REMARK    3  A    between atoms: C4_4  and  O1_5 
REMARK    4  A    between atoms: O1_5  and  C5_6 
REMARK    5  A    between atoms: C8_9  and  N1_10 
REMARK    6  A    between atoms: N1_10  and  C9_11 
REMARK    7  A    between atoms: C18_24  and  O2_25 
ROOT
HETATM    1  C5  UNL     1      22.402   2.261  50.996  1.00  0.00     0.103 A 
HETATM    2  C6  UNL     1      23.124   1.321  51.697  1.00  0.00     0.057 A 
HETATM    3  C7  UNL     1      22.749   0.599  52.802  1.00  0.00     0.042 A 
HETATM    4  C8  UNL     1      23.539  -0.324  53.443  1.00  0.00     0.142 A 
HETATM    5  N2  UNL     1      23.006  -0.931  54.506  1.00  0.00    -0.224 NA
HETATM    6  C15 UNL     1      21.773  -0.668  54.933  1.00  0.00     0.236 A 
HETATM    7  N3  UNL     1      21.011   0.235  54.300  1.00  0.00    -0.241 NA
HETATM    8  C16 UNL     1      21.472   0.895  53.219  1.00  0.00     0.075 A 
HETATM    9  C17 UNL     1      20.628   1.806  52.626  1.00  0.00     0.072 A 
HETATM   10  C18 UNL     1      21.108   2.493  51.500  1.00  0.00     0.103 A 
ENDROOT
BRANCH   4  11
HETATM   11  N1  UNL     1      24.835  -0.575  52.973  1.00  0.00    -0.340 N 
HETATM   12  H11 UNL     1      25.028  -1.330  52.288  1.00  0.00     0.167 HD
BRANCH  11  13
HETATM   13  C9  UNL     1      26.048   0.081  53.294  1.00  0.00     0.035 A 
HETATM   14  C10 UNL     1      26.128   1.430  53.540  1.00  0.00     0.032 A 
HETATM   15  C11 UNL     1      27.281   2.117  53.849  1.00  0.00     0.046 A 
HETATM   16  C12 UNL     1      28.468   1.434  53.928  1.00  0.00     0.138 A 
HETATM   17  F1  UNL     1      29.644   2.016  54.223  1.00  0.00    -0.204 F 
HETATM   18  C13 UNL     1      28.451   0.080  53.692  1.00  0.00     0.074 A 
HETATM   19 CL1  UNL     1      29.930  -0.827  53.781  1.00  0.00    -0.081 Cl
HETATM   20  C14 UNL     1      27.264  -0.534  53.391  1.00  0.00     0.056 A 
ENDBRANCH  11  13
ENDBRANCH   4  11
BRANCH   1  21
HETATM   21  O1  UNL     1      22.642   3.003  49.955  1.00  0.00    -0.348 OA
BRANCH  21  22
HETATM   22  C4  UNL     1      23.417   3.519  49.018  1.00  0.00     0.176 C 
BRANCH  22  23
HETATM   23  C3  UNL     1      24.521   4.406  49.513  1.00  0.00     0.026 C 
BRANCH  23  24
HETATM   24  C2  UNL     1      25.712   3.678  50.036  1.00  0.00    -0.002 C 
HETATM   25  C1  UNL     1      26.954   4.116  49.222  1.00  0.00     0.005 C 
ENDBRANCH  23  24
ENDBRANCH  22  23
ENDBRANCH  21  22
ENDBRANCH   1  21
BRANCH  10  26
HETATM   26  O2  UNL     1      20.219   3.399  50.939  1.00  0.00    -0.353 OA
HETATM   27  C19 UNL     1      18.914   3.500  51.449  1.00  0.00     0.210 C 
ENDBRANCH  10  26
TORSDOF 7
ENDMDL
MODEL 5
REMARK VINA RESULT:      -7.5      2.602      3.924
REMARK  7 active torsions:
REMARK  status: ('A' for Active; 'I' for Inactive)
REMARK    1  A    between atoms: C2_2  and  C3_3 
REMARK    2  A    between atoms: C3_3  and  C4_4 
REMARK    3  A    between atoms: C4_4  and  O1_5 
REMARK    4  A    between atoms: O1_5  and  C5_6 
REMARK    5  A    between atoms: C8_9  and  N1_10 
REMARK    6  A    between atoms: N1_10  and  C9_11 
REMARK    7  A    between atoms: C18_24  and  O2_25 
ROOT
HETATM    1  C5  UNL     1      24.328   2.571  50.530  1.00  0.00     0.103 A 
HETATM    2  C6  UNL     1      24.256   1.809  51.675  1.00  0.00     0.057 A 
HETATM    3  C7  UNL     1      23.219   1.032  52.126  1.00  0.00     0.042 A 
HETATM    4  C8  UNL     1      23.232   0.301  53.289  1.00  0.00     0.142 A 
HETATM    5  N2  UNL     1      22.129  -0.398  53.568  1.00  0.00    -0.224 NA
HETATM    6  C15 UNL     1      21.064  -0.398  52.769  1.00  0.00     0.236 A 
HETATM    7  N3  UNL     1      21.062   0.321  51.637  1.00  0.00    -0.241 NA
HETATM    8  C16 UNL     1      22.134   1.055  51.280  1.00  0.00     0.075 A 
HETATM    9  C17 UNL     1      22.052   1.763  50.103  1.00  0.00     0.072 A 
HETATM   10  C18 UNL     1      23.169   2.528  49.731  1.00  0.00     0.103 A 
ENDROOT
BRANCH   4  11
HETATM   11  N1  UNL     1      24.366   0.325  54.111  1.00  0.00    -0.340 N 
HETATM   12  H11 UNL     1      24.318   0.652  55.094  1.00  0.00     0.167 HD
BRANCH  11  13
HETATM   13  C9  UNL     1      25.698  -0.054  53.813  1.00  0.00     0.035 A 
HETATM   14  C10 UNL     1      26.012  -1.180  53.090  1.00  0.00     0.032 A 
HETATM   15  C11 UNL     1      27.288  -1.598  52.780  1.00  0.00     0.046 A 
HETATM   16  C12 UNL     1      28.359  -0.855  53.207  1.00  0.00     0.138 A 
HETATM   17  F1  UNL     1      29.639  -1.181  52.954  1.00  0.00    -0.204 F 
HETATM   18  C13 UNL     1      28.107   0.283  53.935  1.00  0.00     0.074 A 
HETATM   19 CL1  UNL     1      29.432   1.254  54.498  1.00  0.00    -0.081 Cl
HETATM   20  C14 UNL     1      26.810   0.634  54.204  1.00  0.00     0.056 A 
ENDBRANCH  11  13
ENDBRANCH   4  11
BRANCH   1  21
HETATM   21  O1  UNL     1      25.235   3.339  50.003  1.00  0.00    -0.348 OA
BRANCH  21  22
HETATM   22  C4  UNL     1      25.839   4.496  49.801  1.00  0.00     0.176 C 
BRANCH  22  23
HETATM   23  C3  UNL     1      27.114   4.428  49.013  1.00  0.00     0.026 C 
BRANCH  23  24
HETATM   24  C2  UNL     1      27.588   5.738  48.486  1.00  0.00    -0.002 C 
HETATM   25  C1  UNL     1      29.094   5.619  48.150  1.00  0.00     0.005 C 
ENDBRANCH  23  24
ENDBRANCH  22  23
ENDBRANCH  21  22
ENDBRANCH   1  21
BRANCH  10  26
HETATM   26  O2  UNL     1      23.036   3.223  48.537  1.00  0.00    -0.353 OA
HETATM   27  C19 UNL     1      22.193   2.723  47.531  1.00  0.00     0.210 C 
ENDBRANCH  10  26
TORSDOF 7
ENDMDL
MODEL 6
REMARK VINA RESULT:      -7.5      4.407      7.549
REMARK  7 active torsions:
REMARK  status: ('A' for Active; 'I' for Inactive)
REMARK    1  A    between atoms: C2_2  and  C3_3 
REMARK    2  A    between atoms: C3_3  and  C4_4 
REMARK    3  A    between atoms: C4_4  and  O1_5 
REMARK    4  A    between atoms: O1_5  and  C5_6 
REMARK    5  A    between atoms: C8_9  and  N1_10 
REMARK    6  A    between atoms: N1_10  and  C9_11 
REMARK    7  A    between atoms: C18_24  and  O2_25 
ROOT
HETATM    1  C5  UNL     1      24.852   0.142  53.471  1.00  0.00     0.103 A 
HETATM    2  C6  UNL     1      24.288   1.209  52.806  1.00  0.00     0.057 A 
HETATM    3  C7  UNL     1      24.875   2.075  51.918  1.00  0.00     0.042 A 
HETATM    4  C8  UNL     1      24.234   3.119  51.298  1.00  0.00     0.142 A 
HETATM    5  N2  UNL     1      24.967   3.860  50.463  1.00  0.00    -0.224 NA
HETATM    6  C15 UNL     1      26.254   3.611  50.233  1.00  0.00     0.236 A 
HETATM    7  N3  UNL     1      26.870   2.589  50.844  1.00  0.00    -0.241 NA
HETATM    8  C16 UNL     1      26.204   1.792  51.703  1.00  0.00     0.075 A 
HETATM    9  C17 UNL     1      26.909   0.765  52.289  1.00  0.00     0.072 A 
HETATM   10  C18 UNL     1      26.215  -0.066  53.183  1.00  0.00     0.103 A 
ENDROOT
BRANCH   4  11
HETATM   11  N1  UNL     1      22.880   3.359  51.566  1.00  0.00    -0.340 N 
HETATM   12  H11 UNL     1      22.578   4.119  52.204  1.00  0.00     0.167 HD
BRANCH  11  13
HETATM   13  C9  UNL     1      21.735   2.685  51.074  1.00  0.00     0.035 A 
HETATM   14  C10 UNL     1      21.798   1.710  50.109  1.00  0.00     0.032 A 
HETATM   15  C11 UNL     1      20.718   1.031  49.590  1.00  0.00     0.046 A 
HETATM   16  C12 UNL     1      19.459   1.322  50.051  1.00  0.00     0.138 A 
HETATM   17  F1  UNL     1      18.345   0.713  49.608  1.00  0.00    -0.204 F 
HETATM   18  C13 UNL     1      19.332   2.290  51.018  1.00  0.00     0.074 A 
HETATM   19 CL1  UNL     1      17.758   2.693  51.631  1.00  0.00    -0.081 Cl
HETATM   20  C14 UNL     1      20.455   2.923  51.485  1.00  0.00     0.056 A 
ENDBRANCH  11  13
ENDBRANCH   4  11
BRANCH   1  21
HETATM   21  O1  UNL     1      24.412  -0.736  54.323  1.00  0.00    -0.348 OA
BRANCH  21  22
HETATM   22  C4  UNL     1      23.593  -1.169  55.265  1.00  0.00     0.176 C 
BRANCH  22  23
HETATM   23  C3  UNL     1      22.187  -1.442  54.820  1.00  0.00     0.026 C 
BRANCH  23  24
HETATM   24  C2  UNL     1      21.351  -0.224  54.628  1.00  0.00    -0.002 C 
HETATM   25  C1  UNL     1      20.554  -0.376  53.309  1.00  0.00     0.005 C 
ENDBRANCH  23  24
ENDBRANCH  22  23
ENDBRANCH  21  22
ENDBRANCH   1  21
BRANCH  10  26
HETATM   26  O2  UNL     1      26.969  -1.086  53.746  1.00  0.00    -0.353 OA
HETATM   27  C19 UNL     1      28.295  -1.284  53.325  1.00  0.00     0.210 C 
ENDBRANCH  10  26
TORSDOF 7
ENDMDL
MODEL 7
REMARK VINA RESULT:      -7.5      3.859      6.226
REMARK  7 active torsions:
REMARK  status: ('A' for Active; 'I' for Inactive)
REMARK    1  A    between atoms: C2_2  and  C3_3 
REMARK    2  A    between atoms: C3_3  and  C4_4 
REMARK    3  A    between atoms: C4_4  and  O1_5 
REMARK    4  A    between atoms: O1_5  and  C5_6 
REMARK    5  A    between atoms: C8_9  and  N1_10 
REMARK    6  A    between atoms: N1_10  and  C9_11 
REMARK    7  A    between atoms: C18_24  and  O2_25 
ROOT
HETATM    1  C5  UNL     1      25.352   1.158  52.375  1.00  0.00     0.103 A 
HETATM    2  C6  UNL     1      23.978   1.259  52.381  1.00  0.00     0.057 A 
HETATM    3  C7  UNL     1      23.067   0.548  53.120  1.00  0.00     0.042 A 
HETATM    4  C8  UNL     1      21.705   0.715  53.062  1.00  0.00     0.142 A 
HETATM    5  N2  UNL     1      20.972  -0.070  53.856  1.00  0.00    -0.224 NA
HETATM    6  C15 UNL     1      21.519  -0.971  54.669  1.00  0.00     0.236 A 
HETATM    7  N3  UNL     1      22.850  -1.126  54.717  1.00  0.00    -0.241 NA
HETATM    8  C16 UNL     1      23.664  -0.376  53.948  1.00  0.00     0.075 A 
HETATM    9  C17 UNL     1      25.018  -0.596  54.056  1.00  0.00     0.072 A 
HETATM   10  C18 UNL     1      25.865   0.186  53.255  1.00  0.00     0.103 A 
ENDROOT
BRANCH   4  11
HETATM   11  N1  UNL     1      21.159   1.668  52.192  1.00  0.00    -0.340 N 
HETATM   12  H11 UNL     1      20.436   2.341  52.508  1.00  0.00     0.167 HD
BRANCH  11  13
HETATM   13  C9  UNL     1      21.445   1.902  50.824  1.00  0.00     0.035 A 
HETATM   14  C10 UNL     1      21.327   0.932  49.859  1.00  0.00     0.032 A 
HETATM   15  C11 UNL     1      21.600   1.104  48.519  1.00  0.00     0.046 A 
HETATM   16  C12 UNL     1      22.024   2.329  48.073  1.00  0.00     0.138 A 
HETATM   17  F1  UNL     1      22.313   2.594  46.787  1.00  0.00    -0.204 F 
HETATM   18  C13 UNL     1      22.161   3.340  48.994  1.00  0.00     0.074 A 
HETATM   19 CL1  UNL     1      22.696   4.909  48.476  1.00  0.00    -0.081 Cl
HETATM   20  C14 UNL     1      21.871   3.093  50.310  1.00  0.00     0.056 A 
ENDBRANCH  11  13
ENDBRANCH   4  11
BRANCH   1  21
HETATM   21  O1  UNL     1      26.307   1.761  51.731  1.00  0.00    -0.348 OA
BRANCH  21  22
HETATM   22  C4  UNL     1      26.818   2.746  51.014  1.00  0.00     0.176 C 
BRANCH  22  23
HETATM   23  C3  UNL     1      25.988   3.189  49.846  1.00  0.00     0.026 C 
BRANCH  23  24
HETATM   24  C2  UNL     1      26.186   4.612  49.451  1.00  0.00    -0.002 C 
HETATM   25  C1  UNL     1      27.542   4.736  48.714  1.00  0.00     0.005 C 
ENDBRANCH  23  24
ENDBRANCH  22  23
ENDBRANCH  21  22
ENDBRANCH   1  21
BRANCH  10  26
HETATM   26  O2  UNL     1      27.220  -0.074  53.402  1.00  0.00    -0.353 OA
HETATM   27  C19 UNL     1      27.864   0.250  54.608  1.00  0.00     0.210 C 
ENDBRANCH  10  26
TORSDOF 7
ENDMDL
MODEL 8
REMARK VINA RESULT:      -7.4      3.813      5.953
REMARK  7 active torsions:
REMARK  status: ('A' for Active; 'I' for Inactive)
REMARK    1  A    between atoms: C2_2  and  C3_3 
REMARK    2  A    between atoms: C3_3  and  C4_4 
REMARK    3  A    between atoms: C4_4  and  O1_5 
REMARK    4  A    between atoms: O1_5  and  C5_6 
REMARK    5  A    between atoms: C8_9  and  N1_10 
REMARK    6  A    between atoms: N1_10  and  C9_11 
REMARK    7  A    between atoms: C18_24  and  O2_25 
ROOT
HETATM    1  C5  UNL     1      22.677   0.764  52.249  1.00  0.00     0.103 A 
HETATM    2  C6  UNL     1      23.622   1.583  51.672  1.00  0.00     0.057 A 
HETATM    3  C7  UNL     1      24.969   1.651  51.924  1.00  0.00     0.042 A 
HETATM    4  C8  UNL     1      25.844   2.506  51.299  1.00  0.00     0.142 A 
HETATM    5  N2  UNL     1      27.123   2.432  51.675  1.00  0.00    -0.224 NA
HETATM    6  C15 UNL     1      27.544   1.579  52.606  1.00  0.00     0.236 A 
HETATM    7  N3  UNL     1      26.681   0.751  53.211  1.00  0.00    -0.241 NA
HETATM    8  C16 UNL     1      25.371   0.760  52.892  1.00  0.00     0.075 A 
HETATM    9  C17 UNL     1      24.551  -0.122  53.558  1.00  0.00     0.072 A 
HETATM   10  C18 UNL     1      23.188  -0.112  53.225  1.00  0.00     0.103 A 
ENDROOT
BRANCH   4  11
HETATM   11  N1  UNL     1      25.369   3.396  50.326  1.00  0.00    -0.340 N 
HETATM   12  H11 UNL     1      24.429   3.286  49.901  1.00  0.00     0.167 HD
BRANCH  11  13
HETATM   13  C9  UNL     1      26.003   4.531  49.764  1.00  0.00     0.035 A 
HETATM   14  C10 UNL     1      27.131   4.448  48.985  1.00  0.00     0.032 A 
HETATM   15  C11 UNL     1      27.790   5.519  48.421  1.00  0.00     0.046 A 
HETATM   16  C12 UNL     1      27.311   6.787  48.629  1.00  0.00     0.138 A 
HETATM   17  F1  UNL     1      27.884   7.892  48.121  1.00  0.00    -0.204 F 
HETATM   18  C13 UNL     1      26.183   6.932  49.401  1.00  0.00     0.074 A 
HETATM   19 CL1  UNL     1      25.540   8.519  49.693  1.00  0.00    -0.081 Cl
HETATM   20  C14 UNL     1      25.582   5.820  49.929  1.00  0.00     0.056 A 
ENDBRANCH  11  13
ENDBRANCH   4  11
BRANCH   1  21
HETATM   21  O1  UNL     1      21.395   0.608  52.101  1.00  0.00    -0.348 OA
BRANCH  21  22
HETATM   22  C4  UNL     1      20.306   0.312  51.414  1.00  0.00     0.176 C 
BRANCH  22  23
HETATM   23  C3  UNL     1      19.043   0.216  52.219  1.00  0.00     0.026 C 
BRANCH  23  24
HETATM   24  C2  UNL     1      19.040  -0.872  53.237  1.00  0.00    -0.002 C 
HETATM   25  C1  UNL     1      17.632  -1.516  53.266  1.00  0.00     0.005 C 
ENDBRANCH  23  24
ENDBRANCH  22  23
ENDBRANCH  21  22
ENDBRANCH   1  21
BRANCH  10  26
HETATM   26  O2  UNL     1      22.404  -1.020  53.925  1.00  0.00    -0.353 OA
HETATM   27  C19 UNL     1      22.805  -1.445  55.203  1.00  0.00     0.210 C 
ENDBRANCH  10  26
TORSDOF 7
ENDMDL
MODEL 9
REMARK VINA RESULT:      -7.3      4.133      6.241
REMARK  7 active torsions:
REMARK  status: ('A' for Active; 'I' for Inactive)
REMARK    1  A    between atoms: C2_2  and  C3_3 
REMARK    2  A    between atoms: C3_3  and  C4_4 
REMARK    3  A    between atoms: C4_4  and  O1_5 
REMARK    4  A    between atoms: O1_5  and  C5_6 
REMARK    5  A    between atoms: C8_9  and  N1_10 
REMARK    6  A    between atoms: N1_10  and  C9_11 
REMARK    7  A    between atoms: C18_24  and  O2_25 
ROOT
HETATM    1  C5  UNL     1      23.888   0.579  53.070  1.00  0.00     0.103 A 
HETATM    2  C6  UNL     1      23.911   1.903  52.692  1.00  0.00     0.057 A 
HETATM    3  C7  UNL     1      22.863   2.711  52.328  1.00  0.00     0.042 A 
HETATM    4  C8  UNL     1      22.978   4.030  51.961  1.00  0.00     0.142 A 
HETATM    5  N2  UNL     1      21.846   4.660  51.637  1.00  0.00    -0.224 NA
HETATM    6  C15 UNL     1      20.661   4.056  51.664  1.00  0.00     0.236 A 
HETATM    7  N3  UNL     1      20.561   2.768  52.022  1.00  0.00    -0.241 NA
HETATM    8  C16 UNL     1      21.653   2.056  52.364  1.00  0.00     0.075 A 
HETATM    9  C17 UNL     1      21.466   0.740  52.721  1.00  0.00     0.072 A 
HETATM   10  C18 UNL     1      22.604   0.000  53.077  1.00  0.00     0.103 A 
ENDROOT
BRANCH   4  11
HETATM   11  N1  UNL     1      24.240   4.636  51.937  1.00  0.00    -0.340 N 
HETATM   12  H11 UNL     1      24.819   4.722  52.794  1.00  0.00     0.167 HD
BRANCH  11  13
HETATM   13  C9  UNL     1      24.940   5.209  50.847  1.00  0.00     0.035 A 
HETATM   14  C10 UNL     1      25.771   4.485  50.027  1.00  0.00     0.032 A 
HETATM   15  C11 UNL     1      26.479   4.993  48.960  1.00  0.00     0.046 A 
HETATM   16  C12 UNL     1      26.371   6.327  48.658  1.00  0.00     0.138 A 
HETATM   17  F1  UNL     1      27.021   6.914  47.638  1.00  0.00    -0.204 F 
HETATM   18  C13 UNL     1      25.553   7.103  49.444  1.00  0.00     0.074 A 
HETATM   19 CL1  UNL     1      25.386   8.797  49.100  1.00  0.00    -0.081 Cl
HETATM   20  C14 UNL     1      24.880   6.525  50.489  1.00  0.00     0.056 A 
ENDBRANCH  11  13
ENDBRANCH   4  11
BRANCH   1  21
HETATM   21  O1  UNL     1      24.794  -0.282  53.429  1.00  0.00    -0.348 OA
BRANCH  21  22
HETATM   22  C4  UNL     1      25.935  -0.933  53.288  1.00  0.00     0.176 C 
BRANCH  22  23
HETATM   23  C3  UNL     1      27.062  -0.136  52.702  1.00  0.00     0.026 C 
BRANCH  23  24
HETATM   24  C2  UNL     1      27.654   0.871  53.627  1.00  0.00    -0.002 C 
HETATM   25  C1  UNL     1      28.649   0.151  54.569  1.00  0.00     0.005 C 
ENDBRANCH  23  24
ENDBRANCH  22  23
ENDBRANCH  21  22
ENDBRANCH   1  21
BRANCH  10  26
HETATM   26  O2  UNL     1      22.362  -1.321  53.428  1.00  0.00    -0.353 OA
HETATM   27  C19 UNL     1      21.559  -1.608  54.544  1.00  0.00     0.210 C 
ENDBRANCH  10  26
TORSDOF 7
ENDMDL
