MODEL 1
REMARK VINA RESULT:      -9.1      0.000      0.000
REMARK  4 active torsions:
REMARK  status: ('A' for Active; 'I' for Inactive)
REMARK    1  A    between atoms: C2_2  and  C3_3 
REMARK       I    between atoms: C3_3  and  N1_5 
REMARK    2  A    between atoms: C7_9  and  S1_10 
REMARK    3  A    between atoms: S1_10  and  C8_11 
REMARK    4  A    between atoms: C12_18  and  C13_19 
ROOT
HETATM    1  C8  UNL     1      23.515   4.006  51.313  1.00  0.00     0.214 C 
HETATM    2  C9  UNL     1      24.325   3.280  50.256  1.00  0.00     0.096 C 
HETATM    3  C10 UNL     1      23.598   3.919  49.279  1.00  0.00     0.127 C 
HETATM    4  N2  UNL     1      22.161   3.625  49.024  1.00  0.00    -0.227 NA
HETATM    5  C11 UNL     1      21.719   2.698  49.877  1.00  0.00     0.208 C 
HETATM    6  N3  UNL     1      22.192   3.341  51.141  1.00  0.00    -0.341 N 
HETATM    7  N4  UNL     1      24.074   5.062  48.507  1.00  0.00    -0.364 N 
HETATM    8  C12 UNL     1      24.680   6.262  49.164  1.00  0.00     0.140 C 
HETATM    9  C19 UNL     1      24.622   5.999  50.685  1.00  0.00     0.202 C 
HETATM   10  O2  UNL     1      23.435   5.345  51.058  1.00  0.00    -0.346 OA
HETATM   11  H13 UNL     1      21.502   3.285  51.965  1.00  0.00     0.164 HD
HETATM   12  H14 UNL     1      23.854   4.791  47.515  1.00  0.00     0.162 HD
ENDROOT
BRANCH   1  13
HETATM   13  S1  UNL     1      24.072   3.632  52.980  1.00  0.00    -0.068 SA
BRANCH  13  14
HETATM   14  C7  UNL     1      24.621   1.971  53.221  1.00  0.00    -0.003 C 
HETATM   15  C6  UNL     1      24.103   0.771  52.974  1.00  0.00    -0.009 C 
HETATM   16  C5  UNL     1      24.716  -0.582  53.247  1.00  0.00     0.048 C 
HETATM   17  C4  UNL     1      25.623  -0.368  54.465  1.00  0.00     0.130 C 
HETATM   18  N1  UNL     1      26.494   0.727  54.097  1.00  0.00    -0.347 N 
HETATM   19  C3  UNL     1      27.869   0.399  54.001  1.00  0.00     0.219 C 
HETATM   20  C20 UNL     1      25.993   2.062  53.848  1.00  0.00     0.171 C 
HETATM   21  O1  UNL     1      28.023  -0.838  54.275  1.00  0.00    -0.273 OA
BRANCH  19  22
HETATM   22  C2  UNL     1      29.309   0.637  53.761  1.00  0.00     0.098 C 
HETATM   23  C1  UNL     1      29.962  -0.718  53.520  1.00  0.00     0.014 C 
ENDBRANCH  19  22
ENDBRANCH  13  14
ENDBRANCH   1  13
BRANCH   8  24
HETATM   24  C13 UNL     1      26.055   6.347  48.672  1.00  0.00    -0.034 A 
HETATM   25  C14 UNL     1      26.881   5.247  48.917  1.00  0.00     0.009 A 
HETATM   26  C15 UNL     1      28.191   5.237  48.490  1.00  0.00     0.001 A 
HETATM   27  C16 UNL     1      28.749   6.298  47.807  1.00  0.00     0.000 A 
HETATM   28  C17 UNL     1      27.938   7.410  47.551  1.00  0.00     0.001 A 
HETATM   29  C18 UNL     1      26.622   7.401  47.989  1.00  0.00     0.009 A 
ENDBRANCH   8  24
TORSDOF 4
ENDMDL
MODEL 2
REMARK VINA RESULT:      -8.9      3.074      5.866
REMARK  4 active torsions:
REMARK  status: ('A' for Active; 'I' for Inactive)
REMARK    1  A    between atoms: C2_2  and  C3_3 
REMARK       I    between atoms: C3_3  and  N1_5 
REMARK    2  A    between atoms: C7_9  and  S1_10 
REMARK    3  A    between atoms: S1_10  and  C8_11 
REMARK    4  A    between atoms: C12_18  and  C13_19 
ROOT
HETATM    1  C8  UNL     1      23.306   3.382  50.963  1.00  0.00     0.214 C 
HETATM    2  C9  UNL     1      22.657   3.419  52.333  1.00  0.00     0.096 C 
HETATM    3  C10 UNL     1      21.473   3.800  51.747  1.00  0.00     0.127 C 
HETATM    4  N2  UNL     1      21.278   5.137  51.121  1.00  0.00    -0.227 NA
HETATM    5  C11 UNL     1      22.401   5.855  51.205  1.00  0.00     0.208 C 
HETATM    6  N3  UNL     1      23.338   4.836  50.641  1.00  0.00    -0.341 N 
HETATM    7  N4  UNL     1      20.343   2.908  51.508  1.00  0.00    -0.364 N 
HETATM    8  C12 UNL     1      20.512   1.580  50.839  1.00  0.00     0.140 C 
HETATM    9  C19 UNL     1      22.010   1.461  50.485  1.00  0.00     0.202 C 
HETATM   10  O2  UNL     1      22.547   2.690  50.061  1.00  0.00    -0.346 OA
HETATM   11  H13 UNL     1      24.083   5.227  49.969  1.00  0.00     0.164 HD
HETATM   12  H14 UNL     1      19.524   3.450  51.884  1.00  0.00     0.162 HD
ENDROOT
BRANCH   1  13
HETATM   13  S1  UNL     1      25.014   2.825  51.027  1.00  0.00    -0.068 SA
BRANCH  13  14
HETATM   14  C7  UNL     1      25.334   1.561  52.219  1.00  0.00    -0.003 C 
HETATM   15  C6  UNL     1      24.641   0.531  52.697  1.00  0.00    -0.009 C 
HETATM   16  C5  UNL     1      25.070  -0.476  53.737  1.00  0.00     0.048 C 
HETATM   17  C4  UNL     1      26.052   0.279  54.640  1.00  0.00     0.130 C 
HETATM   18  N1  UNL     1      27.051   0.816  53.741  1.00  0.00    -0.347 N 
HETATM   19  C3  UNL     1      28.360   0.304  53.918  1.00  0.00     0.219 C 
HETATM   20  C20 UNL     1      26.733   1.807  52.735  1.00  0.00     0.171 C 
HETATM   21  O1  UNL     1      28.352  -0.545  54.870  1.00  0.00    -0.273 OA
BRANCH  19  22
HETATM   22  C2  UNL     1      29.807   0.151  53.651  1.00  0.00     0.098 C 
HETATM   23  C1  UNL     1      30.126  -1.337  53.699  1.00  0.00     0.014 C 
ENDBRANCH  19  22
ENDBRANCH  13  14
ENDBRANCH   1  13
BRANCH   8  24
HETATM   24  C13 UNL     1      20.097   0.574  51.818  1.00  0.00    -0.034 A 
HETATM   25  C14 UNL     1      21.086   0.083  52.674  1.00  0.00     0.009 A 
HETATM   26  C15 UNL     1      20.787  -0.867  53.628  1.00  0.00     0.001 A 
HETATM   27  C16 UNL     1      19.514  -1.374  53.786  1.00  0.00     0.000 A 
HETATM   28  C17 UNL     1      18.509  -0.894  52.937  1.00  0.00     0.001 A 
HETATM   29  C18 UNL     1      18.830   0.060  51.984  1.00  0.00     0.009 A 
ENDBRANCH   8  24
TORSDOF 4
ENDMDL
MODEL 3
REMARK VINA RESULT:      -8.6      2.907      5.949
REMARK  4 active torsions:
REMARK  status: ('A' for Active; 'I' for Inactive)
REMARK    1  A    between atoms: C2_2  and  C3_3 
REMARK       I    between atoms: C3_3  and  N1_5 
REMARK    2  A    between atoms: C7_9  and  S1_10 
REMARK    3  A    between atoms: S1_10  and  C8_11 
REMARK    4  A    between atoms: C12_18  and  C13_19 
ROOT
HETATM    1  C8  UNL     1      22.874   4.618  50.666  1.00  0.00     0.214 C 
HETATM    2  C9  UNL     1      23.367   3.447  49.839  1.00  0.00     0.096 C 
HETATM    3  C10 UNL     1      24.653   3.917  49.965  1.00  0.00     0.127 C 
HETATM    4  N2  UNL     1      25.123   5.165  49.302  1.00  0.00    -0.227 NA
HETATM    5  C11 UNL     1      24.125   5.730  48.617  1.00  0.00     0.208 C 
HETATM    6  N3  UNL     1      23.106   5.738  49.711  1.00  0.00    -0.341 N 
HETATM    7  N4  UNL     1      25.648   3.371  50.882  1.00  0.00    -0.364 N 
HETATM    8  C12 UNL     1      25.345   3.138  52.329  1.00  0.00     0.140 C 
HETATM    9  C19 UNL     1      23.895   3.619  52.551  1.00  0.00     0.202 C 
HETATM   10  O2  UNL     1      23.608   4.777  51.807  1.00  0.00    -0.346 OA
HETATM   11  H13 UNL     1      22.510   6.633  49.768  1.00  0.00     0.164 HD
HETATM   12  H14 UNL     1      26.496   3.248  50.273  1.00  0.00     0.162 HD
ENDROOT
BRANCH   1  13
HETATM   13  S1  UNL     1      21.103   4.549  50.965  1.00  0.00    -0.068 SA
BRANCH  13  14
HETATM   14  C7  UNL     1      20.433   2.917  51.059  1.00  0.00    -0.003 C 
HETATM   15  C6  UNL     1      19.927   2.062  50.173  1.00  0.00    -0.009 C 
HETATM   16  C5  UNL     1      19.385   0.676  50.422  1.00  0.00     0.048 C 
HETATM   17  C4  UNL     1      18.842   0.713  51.855  1.00  0.00     0.130 C 
HETATM   18  N1  UNL     1      19.947   1.182  52.663  1.00  0.00    -0.347 N 
HETATM   19  C3  UNL     1      20.437   0.253  53.613  1.00  0.00     0.219 C 
HETATM   20  C20 UNL     1      20.507   2.508  52.512  1.00  0.00     0.171 C 
HETATM   21  O1  UNL     1      19.760  -0.825  53.532  1.00  0.00    -0.273 OA
BRANCH  19  22
HETATM   22  C2  UNL     1      21.307  -0.249  54.699  1.00  0.00     0.098 C 
HETATM   23  C1  UNL     1      21.533  -1.735  54.454  1.00  0.00     0.014 C 
ENDBRANCH  19  22
ENDBRANCH  13  14
ENDBRANCH   1  13
BRANCH   8  24
HETATM   24  C13 UNL     1      25.488   1.699  52.551  1.00  0.00    -0.034 A 
HETATM   25  C14 UNL     1      26.588   1.077  51.956  1.00  0.00     0.009 A 
HETATM   26  C15 UNL     1      26.804  -0.276  52.111  1.00  0.00     0.001 A 
HETATM   27  C16 UNL     1      25.959  -1.074  52.852  1.00  0.00     0.000 A 
HETATM   28  C17 UNL     1      24.851  -0.470  53.457  1.00  0.00     0.001 A 
HETATM   29  C18 UNL     1      24.651   0.892  53.289  1.00  0.00     0.009 A 
ENDBRANCH   8  24
TORSDOF 4
ENDMDL
MODEL 4
REMARK VINA RESULT:      -8.4      2.338      3.254
REMARK  4 active torsions:
REMARK  status: ('A' for Active; 'I' for Inactive)
REMARK    1  A    between atoms: C2_2  and  C3_3 
REMARK       I    between atoms: C3_3  and  N1_5 
REMARK    2  A    between atoms: C7_9  and  S1_10 
REMARK    3  A    between atoms: S1_10  and  C8_11 
REMARK    4  A    between atoms: C12_18  and  C13_19 
ROOT
HETATM    1  C8  UNL     1      21.607   5.054  50.393  1.00  0.00     0.214 C 
HETATM    2  C9  UNL     1      22.254   4.202  49.318  1.00  0.00     0.096 C 
HETATM    3  C10 UNL     1      22.178   5.265  48.449  1.00  0.00     0.127 C 
HETATM    4  N2  UNL     1      20.887   5.770  47.906  1.00  0.00    -0.227 NA
HETATM    5  C11 UNL     1      19.868   5.061  48.400  1.00  0.00     0.208 C 
HETATM    6  N3  UNL     1      20.226   5.172  49.847  1.00  0.00    -0.341 N 
HETATM    7  N4  UNL     1      23.300   6.127  48.095  1.00  0.00    -0.364 N 
HETATM    8  C12 UNL     1      24.181   6.744  49.136  1.00  0.00     0.140 C 
HETATM    9  C19 UNL     1      23.611   6.305  50.502  1.00  0.00     0.202 C 
HETATM   10  O2  UNL     1      22.206   6.277  50.498  1.00  0.00    -0.346 OA
HETATM   11  H13 UNL     1      19.393   5.334  50.509  1.00  0.00     0.164 HD
HETATM   12  H14 UNL     1      23.255   6.164  47.045  1.00  0.00     0.162 HD
ENDROOT
BRANCH   1  13
HETATM   13  S1  UNL     1      21.474   4.191  51.964  1.00  0.00    -0.068 SA
BRANCH  13  14
HETATM   14  C7  UNL     1      22.856   3.166  52.363  1.00  0.00    -0.003 C 
HETATM   15  C6  UNL     1      24.161   3.375  52.513  1.00  0.00    -0.009 C 
HETATM   16  C5  UNL     1      25.231   2.369  52.862  1.00  0.00     0.048 C 
HETATM   17  C4  UNL     1      24.722   1.036  52.299  1.00  0.00     0.130 C 
HETATM   18  N1  UNL     1      23.400   0.870  52.865  1.00  0.00    -0.347 N 
HETATM   19  C3  UNL     1      23.252  -0.237  53.736  1.00  0.00     0.219 C 
HETATM   20  C20 UNL     1      22.310   1.771  52.559  1.00  0.00     0.171 C 
HETATM   21  O1  UNL     1      24.365  -0.856  53.820  1.00  0.00    -0.273 OA
BRANCH  19  22
HETATM   22  C2  UNL     1      22.549  -1.157  54.656  1.00  0.00     0.098 C 
HETATM   23  C1  UNL     1      21.164  -1.414  54.076  1.00  0.00     0.014 C 
ENDBRANCH  19  22
ENDBRANCH  13  14
ENDBRANCH   1  13
BRANCH   8  24
HETATM   24  C13 UNL     1      25.525   6.213  48.903  1.00  0.00    -0.034 A 
HETATM   25  C14 UNL     1      25.760   4.897  49.310  1.00  0.00     0.009 A 
HETATM   26  C15 UNL     1      26.995   4.312  49.130  1.00  0.00     0.001 A 
HETATM   27  C16 UNL     1      28.049   4.985  48.546  1.00  0.00     0.000 A 
HETATM   28  C17 UNL     1      27.833   6.304  48.132  1.00  0.00     0.001 A 
HETATM   29  C18 UNL     1      26.583   6.875  48.321  1.00  0.00     0.009 A 
ENDBRANCH   8  24
TORSDOF 4
ENDMDL
MODEL 5
REMARK VINA RESULT:      -8.3      3.250      7.170
REMARK  4 active torsions:
REMARK  status: ('A' for Active; 'I' for Inactive)
REMARK    1  A    between atoms: C2_2  and  C3_3 
REMARK       I    between atoms: C3_3  and  N1_5 
REMARK    2  A    between atoms: C7_9  and  S1_10 
REMARK    3  A    between atoms: S1_10  and  C8_11 
REMARK    4  A    between atoms: C12_18  and  C13_19 
ROOT
HETATM    1  C8  UNL     1      24.042   2.490  52.378  1.00  0.00     0.214 C 
HETATM    2  C9  UNL     1      24.761   1.694  51.306  1.00  0.00     0.096 C 
HETATM    3  C10 UNL     1      25.767   2.632  51.304  1.00  0.00     0.127 C 
HETATM    4  N2  UNL     1      25.577   4.014  50.785  1.00  0.00    -0.227 NA
HETATM    5  C11 UNL     1      24.321   4.183  50.365  1.00  0.00     0.208 C 
HETATM    6  N3  UNL     1      23.627   3.685  51.592  1.00  0.00    -0.341 N 
HETATM    7  N4  UNL     1      27.062   2.459  51.954  1.00  0.00    -0.364 N 
HETATM    8  C12 UNL     1      27.178   2.001  53.374  1.00  0.00     0.140 C 
HETATM    9  C19 UNL     1      25.734   1.833  53.895  1.00  0.00     0.202 C 
HETATM   10  O2  UNL     1      24.880   2.835  53.401  1.00  0.00    -0.346 OA
HETATM   11  H13 UNL     1      22.760   4.253  51.885  1.00  0.00     0.164 HD
HETATM   12  H14 UNL     1      27.746   2.742  51.207  1.00  0.00     0.162 HD
ENDROOT
BRANCH   1  13
HETATM   13  S1  UNL     1      22.535   1.685  52.936  1.00  0.00    -0.068 SA
BRANCH  13  14
HETATM   14  C7  UNL     1      21.346   1.382  51.665  1.00  0.00    -0.003 C 
HETATM   15  C6  UNL     1      21.377   1.391  50.335  1.00  0.00    -0.009 C 
HETATM   16  C5  UNL     1      20.247   1.105  49.376  1.00  0.00     0.048 C 
HETATM   17  C4  UNL     1      18.976   1.529  50.121  1.00  0.00     0.130 C 
HETATM   18  N1  UNL     1      19.020   0.812  51.377  1.00  0.00    -0.347 N 
HETATM   19  C3  UNL     1      17.982  -0.134  51.568  1.00  0.00     0.219 C 
HETATM   20  C20 UNL     1      20.050   1.046  52.366  1.00  0.00     0.171 C 
HETATM   21  O1  UNL     1      17.218  -0.129  50.546  1.00  0.00    -0.273 OA
BRANCH  19  22
HETATM   22  C2  UNL     1      17.209  -1.179  52.274  1.00  0.00     0.098 C 
HETATM   23  C1  UNL     1      18.059  -1.668  53.439  1.00  0.00     0.014 C 
ENDBRANCH  19  22
ENDBRANCH  13  14
ENDBRANCH   1  13
BRANCH   8  24
HETATM   24  C13 UNL     1      27.902   0.730  53.336  1.00  0.00    -0.034 A 
HETATM   25  C14 UNL     1      29.254   0.764  53.685  1.00  0.00     0.009 A 
HETATM   26  C15 UNL     1      30.015  -0.385  53.679  1.00  0.00     0.001 A 
HETATM   27  C16 UNL     1      29.489  -1.613  53.334  1.00  0.00     0.000 A 
HETATM   28  C17 UNL     1      28.135  -1.668  52.982  1.00  0.00     0.001 A 
HETATM   29  C18 UNL     1      27.387  -0.501  52.994  1.00  0.00     0.009 A 
ENDBRANCH   8  24
TORSDOF 4
ENDMDL
MODEL 6
REMARK VINA RESULT:      -8.1      4.889      8.285
REMARK  4 active torsions:
REMARK  status: ('A' for Active; 'I' for Inactive)
REMARK    1  A    between atoms: C2_2  and  C3_3 
REMARK       I    between atoms: C3_3  and  N1_5 
REMARK    2  A    between atoms: C7_9  and  S1_10 
REMARK    3  A    between atoms: S1_10  and  C8_11 
REMARK    4  A    between atoms: C12_18  and  C13_19 
ROOT
HETATM    1  C8  UNL     1      30.063   7.217  48.365  1.00  0.00     0.214 C 
HETATM    2  C9  UNL     1      31.085   7.862  47.450  1.00  0.00     0.096 C 
HETATM    3  C10 UNL     1      32.015   7.790  48.461  1.00  0.00     0.127 C 
HETATM    4  N2  UNL     1      31.929   8.619  49.694  1.00  0.00    -0.227 NA
HETATM    5  C11 UNL     1      30.838   9.389  49.660  1.00  0.00     0.208 C 
HETATM    6  N3  UNL     1      29.843   8.320  49.343  1.00  0.00    -0.341 N 
HETATM    7  N4  UNL     1      33.077   6.793  48.539  1.00  0.00    -0.364 N 
HETATM    8  C12 UNL     1      32.802   5.331  48.375  1.00  0.00     0.140 C 
HETATM    9  C19 UNL     1      31.277   5.197  48.173  1.00  0.00     0.202 C 
HETATM   10  O2  UNL     1      30.562   6.102  48.977  1.00  0.00    -0.346 OA
HETATM   11  H13 UNL     1      28.909   8.398  49.871  1.00  0.00     0.164 HD
HETATM   12  H14 UNL     1      33.935   7.368  48.737  1.00  0.00     0.162 HD
ENDROOT
BRANCH   1  13
HETATM   13  S1  UNL     1      28.490   6.931  47.542  1.00  0.00    -0.068 SA
BRANCH  13  14
HETATM   14  C7  UNL     1      27.378   5.876  48.420  1.00  0.00    -0.003 C 
HETATM   15  C6  UNL     1      27.443   4.631  48.885  1.00  0.00    -0.009 C 
HETATM   16  C5  UNL     1      26.381   3.859  49.629  1.00  0.00     0.048 C 
HETATM   17  C4  UNL     1      25.049   4.425  49.121  1.00  0.00     0.130 C 
HETATM   18  N1  UNL     1      25.144   5.854  49.330  1.00  0.00    -0.347 N 
HETATM   19  C3  UNL     1      24.220   6.390  50.260  1.00  0.00     0.219 C 
HETATM   20  C20 UNL     1      26.113   6.674  48.634  1.00  0.00     0.171 C 
HETATM   21  O1  UNL     1      23.489   5.448  50.714  1.00  0.00    -0.273 OA
BRANCH  19  22
HETATM   22  C2  UNL     1      23.558   7.438  51.066  1.00  0.00     0.098 C 
HETATM   23  C1  UNL     1      22.125   7.565  50.564  1.00  0.00     0.014 C 
ENDBRANCH  19  22
ENDBRANCH  13  14
ENDBRANCH   1  13
BRANCH   8  24
HETATM   24  C13 UNL     1      33.553   4.903  47.194  1.00  0.00    -0.034 A 
HETATM   25  C14 UNL     1      34.370   3.779  47.341  1.00  0.00     0.009 A 
HETATM   26  C15 UNL     1      35.114   3.303  46.282  1.00  0.00     0.001 A 
HETATM   27  C16 UNL     1      35.090   3.902  45.040  1.00  0.00     0.000 A 
HETATM   28  C17 UNL     1      34.278   5.029  44.873  1.00  0.00     0.001 A 
HETATM   29  C18 UNL     1      33.537   5.493  45.949  1.00  0.00     0.009 A 
ENDBRANCH   8  24
TORSDOF 4
ENDMDL
MODEL 7
REMARK VINA RESULT:      -8.0      3.769      6.701
REMARK  4 active torsions:
REMARK  status: ('A' for Active; 'I' for Inactive)
REMARK    1  A    between atoms: C2_2  and  C3_3 
REMARK       I    between atoms: C3_3  and  N1_5 
REMARK    2  A    between atoms: C7_9  and  S1_10 
REMARK    3  A    between atoms: S1_10  and  C8_11 
REMARK    4  A    between atoms: C12_18  and  C13_19 
ROOT
HETATM    1  C8  UNL     1      22.038   3.638  50.943  1.00  0.00     0.214 C 
HETATM    2  C9  UNL     1      22.476   2.409  50.170  1.00  0.00     0.096 C 
HETATM    3  C10 UNL     1      23.643   3.055  49.834  1.00  0.00     0.127 C 
HETATM    4  N2  UNL     1      23.682   4.212  48.898  1.00  0.00    -0.227 NA
HETATM    5  C11 UNL     1      22.449   4.512  48.481  1.00  0.00     0.208 C 
HETATM    6  N3  UNL     1      21.793   4.588  49.822  1.00  0.00    -0.341 N 
HETATM    7  N4  UNL     1      24.935   2.814  50.468  1.00  0.00    -0.364 N 
HETATM    8  C12 UNL     1      25.096   2.810  51.956  1.00  0.00     0.140 C 
HETATM    9  C19 UNL     1      23.705   3.133  52.543  1.00  0.00     0.202 C 
HETATM   10  O2  UNL     1      23.023   4.092  51.774  1.00  0.00    -0.346 OA
HETATM   11  H13 UNL     1      21.089   5.394  49.938  1.00  0.00     0.164 HD
HETATM   12  H14 UNL     1      25.586   2.692  49.652  1.00  0.00     0.162 HD
ENDROOT
BRANCH   1  13
HETATM   13  S1  UNL     1      20.462   3.398  51.775  1.00  0.00    -0.068 SA
BRANCH  13  14
HETATM   14  C7  UNL     1      20.333   1.893  52.692  1.00  0.00    -0.003 C 
HETATM   15  C6  UNL     1      20.929   1.406  53.776  1.00  0.00    -0.009 C 
HETATM   16  C5  UNL     1      20.699   0.072  54.445  1.00  0.00     0.048 C 
HETATM   17  C4  UNL     1      20.263  -0.869  53.315  1.00  0.00     0.130 C 
HETATM   18  N1  UNL     1      19.142  -0.205  52.686  1.00  0.00    -0.347 N 
HETATM   19  C3  UNL     1      17.902  -0.883  52.790  1.00  0.00     0.219 C 
HETATM   20  C20 UNL     1      19.280   1.061  51.997  1.00  0.00     0.171 C 
HETATM   21  O1  UNL     1      18.073  -1.968  53.441  1.00  0.00    -0.273 OA
BRANCH  19  22
HETATM   22  C2  UNL     1      16.454  -1.105  52.591  1.00  0.00     0.098 C 
HETATM   23  C1  UNL     1      16.200  -2.602  52.707  1.00  0.00     0.014 C 
ENDBRANCH  19  22
ENDBRANCH  13  14
ENDBRANCH   1  13
BRANCH   8  24
HETATM   24  C13 UNL     1      25.545   1.464  52.315  1.00  0.00    -0.034 A 
HETATM   25  C14 UNL     1      24.671   0.693  53.085  1.00  0.00     0.009 A 
HETATM   26  C15 UNL     1      25.009  -0.587  53.470  1.00  0.00     0.001 A 
HETATM   27  C16 UNL     1      26.211  -1.165  53.120  1.00  0.00     0.000 A 
HETATM   28  C17 UNL     1      27.101  -0.409  52.349  1.00  0.00     0.001 A 
HETATM   29  C18 UNL     1      26.743   0.876  51.971  1.00  0.00     0.009 A 
ENDBRANCH   8  24
TORSDOF 4
ENDMDL
MODEL 8
REMARK VINA RESULT:      -8.0      3.851      6.994
REMARK  4 active torsions:
REMARK  status: ('A' for Active; 'I' for Inactive)
REMARK    1  A    between atoms: C2_2  and  C3_3 
REMARK       I    between atoms: C3_3  and  N1_5 
REMARK    2  A    between atoms: C7_9  and  S1_10 
REMARK    3  A    between atoms: S1_10  and  C8_11 
REMARK    4  A    between atoms: C12_18  and  C13_19 
ROOT
HETATM    1  C8  UNL     1      22.400   2.421  50.664  1.00  0.00     0.214 C 
HETATM    2  C9  UNL     1      23.784   2.637  50.083  1.00  0.00     0.096 C 
HETATM    3  C10 UNL     1      24.003   3.630  51.010  1.00  0.00     0.127 C 
HETATM    4  N2  UNL     1      23.290   4.936  50.972  1.00  0.00    -0.227 NA
HETATM    5  C11 UNL     1      22.432   4.967  49.949  1.00  0.00     0.208 C 
HETATM    6  N3  UNL     1      21.729   3.679  50.234  1.00  0.00    -0.341 N 
HETATM    7  N4  UNL     1      24.804   3.472  52.219  1.00  0.00    -0.364 N 
HETATM    8  C12 UNL     1      24.600   2.323  53.157  1.00  0.00     0.140 C 
HETATM    9  C19 UNL     1      23.432   1.495  52.581  1.00  0.00     0.202 C 
HETATM   10  O2  UNL     1      22.433   2.315  52.026  1.00  0.00    -0.346 OA
HETATM   11  H13 UNL     1      20.662   3.704  50.093  1.00  0.00     0.164 HD
HETATM   12  H14 UNL     1      25.436   4.312  52.201  1.00  0.00     0.162 HD
ENDROOT
BRANCH   1  13
HETATM   13  S1  UNL     1      21.526   1.067  49.868  1.00  0.00    -0.068 SA
BRANCH  13  14
HETATM   14  C7  UNL     1      19.839   0.887  50.358  1.00  0.00    -0.003 C 
HETATM   15  C6  UNL     1      18.667   1.183  49.801  1.00  0.00    -0.009 C 
HETATM   16  C5  UNL     1      17.285   0.960  50.366  1.00  0.00     0.048 C 
HETATM   17  C4  UNL     1      17.460   1.045  51.887  1.00  0.00     0.130 C 
HETATM   18  N1  UNL     1      18.500   0.089  52.199  1.00  0.00    -0.347 N 
HETATM   19  C3  UNL     1      18.093  -1.004  53.004  1.00  0.00     0.219 C 
HETATM   20  C20 UNL     1      19.859   0.242  51.725  1.00  0.00     0.171 C 
HETATM   21  O1  UNL     1      16.853  -0.883  53.278  1.00  0.00    -0.273 OA
BRANCH  19  22
HETATM   22  C2  UNL     1      18.246  -2.268  53.757  1.00  0.00     0.098 C 
HETATM   23  C1  UNL     1      17.106  -3.188  53.343  1.00  0.00     0.014 C 
ENDBRANCH  19  22
ENDBRANCH  13  14
ENDBRANCH   1  13
BRANCH   8  24
HETATM   24  C13 UNL     1      25.857   1.573  53.163  1.00  0.00    -0.034 A 
HETATM   25  C14 UNL     1      25.808   0.261  52.686  1.00  0.00     0.009 A 
HETATM   26  C15 UNL     1      26.942  -0.522  52.654  1.00  0.00     0.001 A 
HETATM   27  C16 UNL     1      28.168  -0.057  53.084  1.00  0.00     0.000 A 
HETATM   28  C17 UNL     1      28.237   1.255  53.565  1.00  0.00     0.001 A 
HETATM   29  C18 UNL     1      27.085   2.026  53.590  1.00  0.00     0.009 A 
ENDBRANCH   8  24
TORSDOF 4
ENDMDL
MODEL 9
REMARK VINA RESULT:      -7.9      5.715      8.634
REMARK  4 active torsions:
REMARK  status: ('A' for Active; 'I' for Inactive)
REMARK    1  A    between atoms: C2_2  and  C3_3 
REMARK       I    between atoms: C3_3  and  N1_5 
REMARK    2  A    between atoms: C7_9  and  S1_10 
REMARK    3  A    between atoms: S1_10  and  C8_11 
REMARK    4  A    between atoms: C12_18  and  C13_19 
ROOT
HETATM    1  C8  UNL     1      29.526  10.050  47.882  1.00  0.00     0.214 C 
HETATM    2  C9  UNL     1      29.071   9.594  49.254  1.00  0.00     0.096 C 
HETATM    3  C10 UNL     1      27.794  10.008  48.953  1.00  0.00     0.127 C 
HETATM    4  N2  UNL     1      27.426  11.443  48.811  1.00  0.00    -0.227 NA
HETATM    5  C11 UNL     1      28.499  12.217  48.997  1.00  0.00     0.208 C 
HETATM    6  N3  UNL     1      29.416  11.527  48.039  1.00  0.00    -0.341 N 
HETATM    7  N4  UNL     1      26.705   9.117  48.566  1.00  0.00    -0.364 N 
HETATM    8  C12 UNL     1      26.870   8.085  47.495  1.00  0.00     0.140 C 
HETATM    9  C19 UNL     1      28.310   8.242  46.961  1.00  0.00     0.202 C 
HETATM   10  O2  UNL     1      28.700   9.592  46.895  1.00  0.00    -0.346 OA
HETATM   11  H13 UNL     1      30.034  12.183  47.450  1.00  0.00     0.164 HD
HETATM   12  H14 UNL     1      25.911   9.426  49.182  1.00  0.00     0.162 HD
ENDROOT
BRANCH   1  13
HETATM   13  S1  UNL     1      31.261   9.687  47.580  1.00  0.00    -0.068 SA
BRANCH  13  14
HETATM   14  C7  UNL     1      31.772   8.067  48.067  1.00  0.00    -0.003 C 
HETATM   15  C6  UNL     1      31.377   7.203  48.998  1.00  0.00    -0.009 C 
HETATM   16  C5  UNL     1      31.932   5.830  49.290  1.00  0.00     0.048 C 
HETATM   17  C4  UNL     1      33.409   5.905  48.883  1.00  0.00     0.130 C 
HETATM   18  N1  UNL     1      33.398   6.373  47.514  1.00  0.00    -0.347 N 
HETATM   19  C3  UNL     1      33.899   5.454  46.559  1.00  0.00     0.219 C 
HETATM   20  C20 UNL     1      32.912   7.686  47.150  1.00  0.00     0.171 C 
HETATM   21  O1  UNL     1      34.259   4.385  47.155  1.00  0.00    -0.273 OA
BRANCH  19  22
HETATM   22  C2  UNL     1      34.276   4.961  45.216  1.00  0.00     0.098 C 
HETATM   23  C1  UNL     1      35.103   3.696  45.410  1.00  0.00     0.014 C 
ENDBRANCH  19  22
ENDBRANCH  13  14
ENDBRANCH   1  13
BRANCH   8  24
HETATM   24  C13 UNL     1      26.661   6.788  48.141  1.00  0.00    -0.034 A 
HETATM   25  C14 UNL     1      27.771   5.945  48.232  1.00  0.00     0.009 A 
HETATM   26  C15 UNL     1      27.670   4.704  48.824  1.00  0.00     0.001 A 
HETATM   27  C16 UNL     1      26.483   4.238  49.352  1.00  0.00     0.000 A 
HETATM   28  C17 UNL     1      25.360   5.068  49.271  1.00  0.00     0.001 A 
HETATM   29  C18 UNL     1      25.483   6.313  48.671  1.00  0.00     0.009 A 
ENDBRANCH   8  24
TORSDOF 4
ENDMDL
