MODEL 1
REMARK VINA RESULT:      -8.9      0.000      0.000
REMARK  3 active torsions:
REMARK  status: ('A' for Active; 'I' for Inactive)
REMARK    1  A    between atoms: C3_4  and  C4_5 
REMARK    2  A    between atoms: N2_12  and  C10_13 
REMARK    3  A    between atoms: C11_15  and  C12_16 
ROOT
HETATM    1  N1  UNL     1      21.065  -1.535  54.967  1.00  0.00    -0.307 NA
HETATM    2  C1  UNL     1      22.036  -1.100  54.270  1.00  0.00     0.024 C 
HETATM    3  C2  UNL     1      23.427  -0.923  54.844  1.00  0.00     0.086 C 
HETATM    4  C3  UNL     1      24.206  -0.887  53.545  1.00  0.00     0.125 C 
HETATM    5  N2  UNL     1      23.441   0.090  52.824  1.00  0.00    -0.345 N 
HETATM    6  C19 UNL     1      22.197  -0.652  52.832  1.00  0.00     0.179 C 
HETATM    7  H1  UNL     1      20.108  -1.688  54.680  1.00  0.00     0.186 HD
ENDROOT
BRANCH   5   8
HETATM    8  C10 UNL     1      23.650   1.358  52.266  1.00  0.00     0.170 A 
HETATM    9  N3  UNL     1      23.263   1.761  51.092  1.00  0.00    -0.223 NA
HETATM   10  C11 UNL     1      23.534   2.986  50.732  1.00  0.00     0.076 A 
HETATM   11  C18 UNL     1      24.226   3.852  51.584  1.00  0.00     0.085 A 
HETATM   12  S1  UNL     1      24.472   2.752  52.994  1.00  0.00    -0.062 SA
BRANCH  10  13
HETATM   13  C12 UNL     1      23.072   3.397  49.390  1.00  0.00    -0.007 A 
HETATM   14  C13 UNL     1      22.583   2.455  48.518  1.00  0.00     0.014 A 
HETATM   15  C14 UNL     1      22.123   2.700  47.247  1.00  0.00     0.001 A 
HETATM   16  C15 UNL     1      22.145   3.998  46.784  1.00  0.00     0.000 A 
HETATM   17  C16 UNL     1      22.626   4.975  47.624  1.00  0.00     0.001 A 
HETATM   18  C17 UNL     1      23.077   4.682  48.890  1.00  0.00     0.014 A 
ENDBRANCH  10  13
ENDBRANCH   5   8
BRANCH   4  19
HETATM   19  C4  UNL     1      25.634  -0.610  53.693  1.00  0.00    -0.035 A 
HETATM   20  C5  UNL     1      26.078   0.010  54.842  1.00  0.00     0.012 A 
HETATM   21  C6  UNL     1      27.454   0.239  54.938  1.00  0.00     0.043 A 
HETATM   22  C7  UNL     1      28.361  -0.129  53.937  1.00  0.00     0.116 A 
HETATM   23  F1  UNL     1      29.685   0.111  54.071  1.00  0.00    -0.206 F 
HETATM   24  C8  UNL     1      27.850  -0.741  52.821  1.00  0.00     0.043 A 
HETATM   25  C9  UNL     1      26.501  -0.990  52.678  1.00  0.00     0.012 A 
ENDBRANCH   4  19
TORSDOF 3
ENDMDL
MODEL 2
REMARK VINA RESULT:      -8.8      1.863      2.221
REMARK  3 active torsions:
REMARK  status: ('A' for Active; 'I' for Inactive)
REMARK    1  A    between atoms: C3_4  and  C4_5 
REMARK    2  A    between atoms: N2_12  and  C10_13 
REMARK    3  A    between atoms: C11_15  and  C12_16 
ROOT
HETATM    1  N1  UNL     1      20.794  -1.649  54.650  1.00  0.00    -0.307 NA
HETATM    2  C1  UNL     1      21.682  -1.056  53.957  1.00  0.00     0.024 C 
HETATM    3  C2  UNL     1      23.071  -0.776  54.494  1.00  0.00     0.086 C 
HETATM    4  C3  UNL     1      23.782  -0.552  53.175  1.00  0.00     0.125 C 
HETATM    5  N2  UNL     1      22.887   0.391  52.567  1.00  0.00    -0.345 N 
HETATM    6  C19 UNL     1      21.729  -0.480  52.557  1.00  0.00     0.179 C 
HETATM    7  H1  UNL     1      19.846  -1.881  54.386  1.00  0.00     0.186 HD
ENDROOT
BRANCH   5   8
HETATM    8  C10 UNL     1      22.936   1.715  52.111  1.00  0.00     0.170 A 
HETATM    9  N3  UNL     1      23.892   2.261  51.419  1.00  0.00    -0.223 NA
HETATM   10  C11 UNL     1      23.772   3.511  51.067  1.00  0.00     0.076 A 
HETATM   11  C18 UNL     1      22.642   4.255  51.421  1.00  0.00     0.085 A 
HETATM   12  S1  UNL     1      21.725   2.994  52.329  1.00  0.00    -0.062 SA
BRANCH  10  13
HETATM   13  C12 UNL     1      24.884   4.085  50.281  1.00  0.00    -0.007 A 
HETATM   14  C13 UNL     1      25.974   3.308  49.972  1.00  0.00     0.014 A 
HETATM   15  C14 UNL     1      27.071   3.715  49.252  1.00  0.00     0.001 A 
HETATM   16  C15 UNL     1      27.103   5.013  48.788  1.00  0.00     0.000 A 
HETATM   17  C16 UNL     1      26.031   5.827  49.074  1.00  0.00     0.001 A 
HETATM   18  C17 UNL     1      24.954   5.376  49.799  1.00  0.00     0.014 A 
ENDBRANCH  10  13
ENDBRANCH   5   8
BRANCH   4  19
HETATM   19  C4  UNL     1      25.179  -0.134  53.294  1.00  0.00    -0.035 A 
HETATM   20  C5  UNL     1      25.656   0.256  54.527  1.00  0.00     0.012 A 
HETATM   21  C6  UNL     1      27.001   0.632  54.588  1.00  0.00     0.043 A 
HETATM   22  C7  UNL     1      27.847   0.626  53.472  1.00  0.00     0.116 A 
HETATM   23  F1  UNL     1      29.143   0.997  53.575  1.00  0.00    -0.206 F 
HETATM   24  C8  UNL     1      27.305   0.227  52.276  1.00  0.00     0.043 A 
HETATM   25  C9  UNL     1      25.985  -0.154  52.164  1.00  0.00     0.012 A 
ENDBRANCH   4  19
TORSDOF 3
ENDMDL
MODEL 3
REMARK VINA RESULT:      -8.3      3.370      7.381
REMARK  3 active torsions:
REMARK  status: ('A' for Active; 'I' for Inactive)
REMARK    1  A    between atoms: C3_4  and  C4_5 
REMARK    2  A    between atoms: N2_12  and  C10_13 
REMARK    3  A    between atoms: C11_15  and  C12_16 
ROOT
HETATM    1  N1  UNL     1      24.128   6.459  52.022  1.00  0.00    -0.307 NA
HETATM    2  C1  UNL     1      23.891   5.236  51.764  1.00  0.00     0.024 C 
HETATM    3  C2  UNL     1      22.506   4.636  51.904  1.00  0.00     0.086 C 
HETATM    4  C3  UNL     1      22.703   3.408  51.038  1.00  0.00     0.125 C 
HETATM    5  N2  UNL     1      23.923   2.902  51.600  1.00  0.00    -0.345 N 
HETATM    6  C19 UNL     1      24.729   4.066  51.294  1.00  0.00     0.179 C 
HETATM    7  H1  UNL     1      25.009   6.952  51.961  1.00  0.00     0.186 HD
ENDROOT
BRANCH   5   8
HETATM    8  C10 UNL     1      24.351   1.743  52.262  1.00  0.00     0.170 A 
HETATM    9  N3  UNL     1      25.579   1.344  52.409  1.00  0.00    -0.223 NA
HETATM   10  C11 UNL     1      25.802   0.240  53.067  1.00  0.00     0.076 A 
HETATM   11  C18 UNL     1      24.749  -0.505  53.604  1.00  0.00     0.085 A 
HETATM   12  S1  UNL     1      23.359   0.523  53.085  1.00  0.00    -0.062 SA
BRANCH  10  13
HETATM   13  C12 UNL     1      27.215  -0.171  53.208  1.00  0.00    -0.007 A 
HETATM   14  C13 UNL     1      28.163   0.756  53.569  1.00  0.00     0.014 A 
HETATM   15  C14 UNL     1      29.504   0.509  53.735  1.00  0.00     0.001 A 
HETATM   16  C15 UNL     1      29.962  -0.774  53.526  1.00  0.00     0.000 A 
HETATM   17  C16 UNL     1      29.048  -1.735  53.164  1.00  0.00     0.001 A 
HETATM   18  C17 UNL     1      27.713  -1.441  53.010  1.00  0.00     0.014 A 
ENDBRANCH  10  13
ENDBRANCH   5   8
BRANCH   4  19
HETATM   19  C4  UNL     1      21.569   2.486  51.014  1.00  0.00    -0.035 A 
HETATM   20  C5  UNL     1      20.604   2.588  51.993  1.00  0.00     0.012 A 
HETATM   21  C6  UNL     1      19.535   1.691  51.915  1.00  0.00     0.043 A 
HETATM   22  C7  UNL     1      19.420   0.725  50.909  1.00  0.00     0.116 A 
HETATM   23  F1  UNL     1      18.368  -0.123  50.870  1.00  0.00    -0.206 F 
HETATM   24  C8  UNL     1      20.418   0.679  49.967  1.00  0.00     0.043 A 
HETATM   25  C9  UNL     1      21.492   1.542  49.999  1.00  0.00     0.012 A 
ENDBRANCH   4  19
TORSDOF 3
ENDMDL
MODEL 4
REMARK VINA RESULT:      -8.2      9.422     11.372
REMARK  3 active torsions:
REMARK  status: ('A' for Active; 'I' for Inactive)
REMARK    1  A    between atoms: C3_4  and  C4_5 
REMARK    2  A    between atoms: N2_12  and  C10_13 
REMARK    3  A    between atoms: C11_15  and  C12_16 
ROOT
HETATM    1  N1  UNL     1      33.399   6.656  41.784  1.00  0.00    -0.307 NA
HETATM    2  C1  UNL     1      33.462   6.489  43.044  1.00  0.00     0.024 C 
HETATM    3  C2  UNL     1      33.192   5.148  43.696  1.00  0.00     0.086 C 
HETATM    4  C3  UNL     1      33.868   5.403  45.027  1.00  0.00     0.125 C 
HETATM    5  N2  UNL     1      33.273   6.664  45.371  1.00  0.00    -0.345 N 
HETATM    6  C19 UNL     1      33.775   7.389  44.222  1.00  0.00     0.179 C 
HETATM    7  H1  UNL     1      33.561   7.503  41.256  1.00  0.00     0.186 HD
ENDROOT
BRANCH   5   8
HETATM    8  C10 UNL     1      32.457   7.177  46.387  1.00  0.00     0.170 A 
HETATM    9  N3  UNL     1      31.266   6.766  46.706  1.00  0.00    -0.223 NA
HETATM   10  C11 UNL     1      30.646   7.353  47.692  1.00  0.00     0.076 A 
HETATM   11  C18 UNL     1      31.243   8.403  48.397  1.00  0.00     0.085 A 
HETATM   12  S1  UNL     1      32.815   8.497  47.518  1.00  0.00    -0.062 SA
BRANCH  10  13
HETATM   13  C12 UNL     1      29.294   6.849  48.016  1.00  0.00    -0.007 A 
HETATM   14  C13 UNL     1      29.104   5.509  48.252  1.00  0.00     0.014 A 
HETATM   15  C14 UNL     1      27.907   4.911  48.562  1.00  0.00     0.001 A 
HETATM   16  C15 UNL     1      26.784   5.706  48.650  1.00  0.00     0.000 A 
HETATM   17  C16 UNL     1      26.928   7.055  48.422  1.00  0.00     0.001 A 
HETATM   18  C17 UNL     1      28.148   7.609  48.114  1.00  0.00     0.014 A 
ENDBRANCH  10  13
ENDBRANCH   5   8
BRANCH   4  19
HETATM   19  C4  UNL     1      33.717   4.328  46.008  1.00  0.00    -0.035 A 
HETATM   20  C5  UNL     1      34.705   4.144  46.952  1.00  0.00     0.012 A 
HETATM   21  C6  UNL     1      34.504   3.111  47.874  1.00  0.00     0.043 A 
HETATM   22  C7  UNL     1      33.372   2.288  47.865  1.00  0.00     0.116 A 
HETATM   23  F1  UNL     1      33.218   1.301  48.775  1.00  0.00    -0.206 F 
HETATM   24  C8  UNL     1      32.430   2.528  46.896  1.00  0.00     0.043 A 
HETATM   25  C9  UNL     1      32.580   3.534  45.965  1.00  0.00     0.012 A 
ENDBRANCH   4  19
TORSDOF 3
ENDMDL
MODEL 5
REMARK VINA RESULT:      -8.2      2.746      5.482
REMARK  3 active torsions:
REMARK  status: ('A' for Active; 'I' for Inactive)
REMARK    1  A    between atoms: C3_4  and  C4_5 
REMARK    2  A    between atoms: N2_12  and  C10_13 
REMARK    3  A    between atoms: C11_15  and  C12_16 
ROOT
HETATM    1  N1  UNL     1      27.073   5.240  48.565  1.00  0.00    -0.307 NA
HETATM    2  C1  UNL     1      26.282   4.573  49.305  1.00  0.00     0.024 C 
HETATM    3  C2  UNL     1      26.721   3.317  50.031  1.00  0.00     0.086 C 
HETATM    4  C3  UNL     1      25.621   3.261  51.072  1.00  0.00     0.125 C 
HETATM    5  N2  UNL     1      24.471   3.411  50.226  1.00  0.00    -0.345 N 
HETATM    6  C19 UNL     1      24.829   4.715  49.708  1.00  0.00     0.179 C 
HETATM    7  H1  UNL     1      26.880   6.083  48.042  1.00  0.00     0.186 HD
ENDROOT
BRANCH   5   8
HETATM    8  C10 UNL     1      23.337   2.661  49.884  1.00  0.00     0.170 A 
HETATM    9  N3  UNL     1      22.552   2.028  50.704  1.00  0.00    -0.223 NA
HETATM   10  C11 UNL     1      21.528   1.384  50.215  1.00  0.00     0.076 A 
HETATM   11  C18 UNL     1      21.274   1.370  48.840  1.00  0.00     0.085 A 
HETATM   12  S1  UNL     1      22.655   2.382  48.270  1.00  0.00    -0.062 SA
BRANCH  10  13
HETATM   13  C12 UNL     1      20.665   0.681  51.187  1.00  0.00    -0.007 A 
HETATM   14  C13 UNL     1      21.188   0.258  52.384  1.00  0.00     0.014 A 
HETATM   15  C14 UNL     1      20.500  -0.404  53.371  1.00  0.00     0.001 A 
HETATM   16  C15 UNL     1      19.165  -0.677  53.166  1.00  0.00     0.000 A 
HETATM   17  C16 UNL     1      18.598  -0.271  51.980  1.00  0.00     0.001 A 
HETATM   18  C17 UNL     1      19.327   0.389  51.019  1.00  0.00     0.014 A 
ENDBRANCH  10  13
ENDBRANCH   5   8
BRANCH   4  19
HETATM   19  C4  UNL     1      25.646   2.076  51.928  1.00  0.00    -0.035 A 
HETATM   20  C5  UNL     1      24.970   2.107  53.129  1.00  0.00     0.012 A 
HETATM   21  C6  UNL     1      25.015   0.942  53.902  1.00  0.00     0.043 A 
HETATM   22  C7  UNL     1      25.702  -0.211  53.507  1.00  0.00     0.116 A 
HETATM   23  F1  UNL     1      25.719  -1.317  54.284  1.00  0.00    -0.206 F 
HETATM   24  C8  UNL     1      26.353  -0.171  52.299  1.00  0.00     0.043 A 
HETATM   25  C9  UNL     1      26.339   0.952  51.499  1.00  0.00     0.012 A 
ENDBRANCH   4  19
TORSDOF 3
ENDMDL
MODEL 6
REMARK VINA RESULT:      -8.2      3.136      7.221
REMARK  3 active torsions:
REMARK  status: ('A' for Active; 'I' for Inactive)
REMARK    1  A    between atoms: C3_4  and  C4_5 
REMARK    2  A    between atoms: N2_12  and  C10_13 
REMARK    3  A    between atoms: C11_15  and  C12_16 
ROOT
HETATM    1  N1  UNL     1      26.509   6.460  49.639  1.00  0.00    -0.307 NA
HETATM    2  C1  UNL     1      25.935   5.326  49.694  1.00  0.00     0.024 C 
HETATM    3  C2  UNL     1      24.426   5.184  49.697  1.00  0.00     0.086 C 
HETATM    4  C3  UNL     1      24.335   3.731  49.277  1.00  0.00     0.125 C 
HETATM    5  N2  UNL     1      25.258   3.145  50.207  1.00  0.00    -0.345 N 
HETATM    6  C19 UNL     1      26.418   3.892  49.765  1.00  0.00     0.179 C 
HETATM    7  H1  UNL     1      27.500   6.660  49.632  1.00  0.00     0.186 HD
ENDROOT
BRANCH   5   8
HETATM    8  C10 UNL     1      25.220   2.205  51.246  1.00  0.00     0.170 A 
HETATM    9  N3  UNL     1      24.165   1.603  51.707  1.00  0.00    -0.223 NA
HETATM   10  C11 UNL     1      24.310   0.743  52.677  1.00  0.00     0.076 A 
HETATM   11  C18 UNL     1      25.572   0.469  53.215  1.00  0.00     0.085 A 
HETATM   12  S1  UNL     1      26.577   1.569  52.197  1.00  0.00    -0.062 SA
BRANCH  10  13
HETATM   13  C12 UNL     1      23.081   0.085  53.166  1.00  0.00    -0.007 A 
HETATM   14  C13 UNL     1      21.868   0.401  52.605  1.00  0.00     0.014 A 
HETATM   15  C14 UNL     1      20.654  -0.134  52.963  1.00  0.00     0.001 A 
HETATM   16  C15 UNL     1      20.627  -1.073  53.972  1.00  0.00     0.000 A 
HETATM   17  C16 UNL     1      21.819  -1.421  54.563  1.00  0.00     0.001 A 
HETATM   18  C17 UNL     1      23.011  -0.858  54.170  1.00  0.00     0.014 A 
ENDBRANCH  10  13
ENDBRANCH   5   8
BRANCH   4  19
HETATM   19  C4  UNL     1      22.981   3.177  49.273  1.00  0.00    -0.035 A 
HETATM   20  C5  UNL     1      22.699   2.111  48.447  1.00  0.00     0.012 A 
HETATM   21  C6  UNL     1      21.394   1.611  48.493  1.00  0.00     0.043 A 
HETATM   22  C7  UNL     1      20.401   2.145  49.322  1.00  0.00     0.116 A 
HETATM   23  F1  UNL     1      19.150   1.631  49.335  1.00  0.00    -0.206 F 
HETATM   24  C8  UNL     1      20.751   3.207  50.117  1.00  0.00     0.043 A 
HETATM   25  C9  UNL     1      22.024   3.735  50.110  1.00  0.00     0.012 A 
ENDBRANCH   4  19
TORSDOF 3
ENDMDL
MODEL 7
REMARK VINA RESULT:      -8.1      1.867      2.296
REMARK  3 active torsions:
REMARK  status: ('A' for Active; 'I' for Inactive)
REMARK    1  A    between atoms: C3_4  and  C4_5 
REMARK    2  A    between atoms: N2_12  and  C10_13 
REMARK    3  A    between atoms: C11_15  and  C12_16 
ROOT
HETATM    1  N1  UNL     1      21.254  -0.668  54.852  1.00  0.00    -0.307 NA
HETATM    2  C1  UNL     1      22.293  -0.450  54.150  1.00  0.00     0.024 C 
HETATM    3  C2  UNL     1      23.690  -0.504  54.737  1.00  0.00     0.086 C 
HETATM    4  C3  UNL     1      24.470  -0.671  53.450  1.00  0.00     0.125 C 
HETATM    5  N2  UNL     1      23.902   0.396  52.675  1.00  0.00    -0.345 N 
HETATM    6  C19 UNL     1      22.543  -0.105  52.697  1.00  0.00     0.179 C 
HETATM    7  H1  UNL     1      20.287  -0.656  54.557  1.00  0.00     0.186 HD
ENDROOT
BRANCH   5   8
HETATM    8  C10 UNL     1      24.344   1.578  52.066  1.00  0.00     0.170 A 
HETATM    9  N3  UNL     1      23.647   2.659  51.877  1.00  0.00    -0.223 NA
HETATM   10  C11 UNL     1      24.221   3.678  51.299  1.00  0.00     0.076 A 
HETATM   11  C18 UNL     1      25.557   3.617  50.888  1.00  0.00     0.085 A 
HETATM   12  S1  UNL     1      25.952   1.934  51.406  1.00  0.00    -0.062 SA
BRANCH  10  13
HETATM   13  C12 UNL     1      23.388   4.884  51.108  1.00  0.00    -0.007 A 
HETATM   14  C13 UNL     1      22.025   4.762  50.999  1.00  0.00     0.014 A 
HETATM   15  C14 UNL     1      21.138   5.796  50.820  1.00  0.00     0.001 A 
HETATM   16  C15 UNL     1      21.638   7.078  50.740  1.00  0.00     0.000 A 
HETATM   17  C16 UNL     1      22.999   7.248  50.844  1.00  0.00     0.001 A 
HETATM   18  C17 UNL     1      23.848   6.181  51.023  1.00  0.00     0.014 A 
ENDBRANCH  10  13
ENDBRANCH   5   8
BRANCH   4  19
HETATM   19  C4  UNL     1      25.924  -0.653  53.606  1.00  0.00    -0.035 A 
HETATM   20  C5  UNL     1      26.698  -1.390  52.735  1.00  0.00     0.012 A 
HETATM   21  C6  UNL     1      28.082  -1.326  52.921  1.00  0.00     0.043 A 
HETATM   22  C7  UNL     1      28.684  -0.566  53.930  1.00  0.00     0.116 A 
HETATM   23  F1  UNL     1      30.027  -0.533  54.075  1.00  0.00    -0.206 F 
HETATM   24  C8  UNL     1      27.852   0.142  54.762  1.00  0.00     0.043 A 
HETATM   25  C9  UNL     1      26.481   0.113  54.620  1.00  0.00     0.012 A 
ENDBRANCH   4  19
TORSDOF 3
ENDMDL
MODEL 8
REMARK VINA RESULT:      -8.1      3.457      4.804
REMARK  3 active torsions:
REMARK  status: ('A' for Active; 'I' for Inactive)
REMARK    1  A    between atoms: C3_4  and  C4_5 
REMARK    2  A    between atoms: N2_12  and  C10_13 
REMARK    3  A    between atoms: C11_15  and  C12_16 
ROOT
HETATM    1  N1  UNL     1      17.677   1.653  49.120  1.00  0.00    -0.307 NA
HETATM    2  C1  UNL     1      18.823   1.564  49.664  1.00  0.00     0.024 C 
HETATM    3  C2  UNL     1      19.009   1.040  51.074  1.00  0.00     0.086 C 
HETATM    4  C3  UNL     1      20.483   0.698  50.996  1.00  0.00     0.125 C 
HETATM    5  N2  UNL     1      20.994   1.927  50.459  1.00  0.00    -0.345 N 
HETATM    6  C19 UNL     1      20.237   1.884  49.225  1.00  0.00     0.179 C 
HETATM    7  H1  UNL     1      17.449   1.986  48.193  1.00  0.00     0.186 HD
ENDROOT
BRANCH   5   8
HETATM    8  C10 UNL     1      21.882   2.937  50.856  1.00  0.00     0.170 A 
HETATM    9  N3  UNL     1      22.959   3.310  50.232  1.00  0.00    -0.223 NA
HETATM   10  C11 UNL     1      23.670   4.279  50.739  1.00  0.00     0.076 A 
HETATM   11  C18 UNL     1      23.289   4.908  51.928  1.00  0.00     0.085 A 
HETATM   12  S1  UNL     1      21.782   3.982  52.287  1.00  0.00    -0.062 SA
BRANCH  10  13
HETATM   13  C12 UNL     1      24.885   4.667  49.991  1.00  0.00    -0.007 A 
HETATM   14  C13 UNL     1      25.926   3.779  49.871  1.00  0.00     0.014 A 
HETATM   15  C14 UNL     1      27.105   4.011  49.207  1.00  0.00     0.001 A 
HETATM   16  C15 UNL     1      27.283   5.236  48.599  1.00  0.00     0.000 A 
HETATM   17  C16 UNL     1      26.265   6.157  48.694  1.00  0.00     0.001 A 
HETATM   18  C17 UNL     1      25.101   5.879  49.370  1.00  0.00     0.014 A 
ENDBRANCH  10  13
ENDBRANCH   5   8
BRANCH   4  19
HETATM   19  C4  UNL     1      21.075   0.245  52.254  1.00  0.00    -0.035 A 
HETATM   20  C5  UNL     1      20.415   0.510  53.436  1.00  0.00     0.012 A 
HETATM   21  C6  UNL     1      21.018   0.042  54.608  1.00  0.00     0.043 A 
HETATM   22  C7  UNL     1      22.229  -0.659  54.616  1.00  0.00     0.116 A 
HETATM   23  F1  UNL     1      22.778  -1.095  55.772  1.00  0.00    -0.206 F 
HETATM   24  C8  UNL     1      22.832  -0.886  53.403  1.00  0.00     0.043 A 
HETATM   25  C9  UNL     1      22.278  -0.447  52.220  1.00  0.00     0.012 A 
ENDBRANCH   4  19
TORSDOF 3
ENDMDL
MODEL 9
REMARK VINA RESULT:      -8.0      3.364      7.728
REMARK  3 active torsions:
REMARK  status: ('A' for Active; 'I' for Inactive)
REMARK    1  A    between atoms: C3_4  and  C4_5 
REMARK    2  A    between atoms: N2_12  and  C10_13 
REMARK    3  A    between atoms: C11_15  and  C12_16 
ROOT
HETATM    1  N1  UNL     1      26.438   6.580  49.672  1.00  0.00    -0.307 NA
HETATM    2  C1  UNL     1      25.868   5.443  49.705  1.00  0.00     0.024 C 
HETATM    3  C2  UNL     1      24.360   5.295  49.732  1.00  0.00     0.086 C 
HETATM    4  C3  UNL     1      24.265   3.854  49.274  1.00  0.00     0.125 C 
HETATM    5  N2  UNL     1      25.207   3.246  50.171  1.00  0.00    -0.345 N 
HETATM    6  C19 UNL     1      26.356   4.009  49.728  1.00  0.00     0.179 C 
HETATM    7  H1  UNL     1      27.428   6.783  49.653  1.00  0.00     0.186 HD
ENDROOT
BRANCH   5   8
HETATM    8  C10 UNL     1      25.190   2.278  51.183  1.00  0.00     0.170 A 
HETATM    9  N3  UNL     1      26.159   1.472  51.500  1.00  0.00    -0.223 NA
HETATM   10  C11 UNL     1      25.977   0.633  52.483  1.00  0.00     0.076 A 
HETATM   11  C18 UNL     1      24.769   0.596  53.185  1.00  0.00     0.085 A 
HETATM   12  S1  UNL     1      23.873   1.895  52.310  1.00  0.00    -0.062 SA
BRANCH  10  13
HETATM   13  C12 UNL     1      27.108  -0.262  52.805  1.00  0.00    -0.007 A 
HETATM   14  C13 UNL     1      27.009  -1.608  52.549  1.00  0.00     0.014 A 
HETATM   15  C14 UNL     1      27.981  -2.545  52.798  1.00  0.00     0.001 A 
HETATM   16  C15 UNL     1      29.170  -2.122  53.354  1.00  0.00     0.000 A 
HETATM   17  C16 UNL     1      29.313  -0.782  53.627  1.00  0.00     0.001 A 
HETATM   18  C17 UNL     1      28.312   0.121  53.359  1.00  0.00     0.014 A 
ENDBRANCH  10  13
ENDBRANCH   5   8
BRANCH   4  19
HETATM   19  C4  UNL     1      22.914   3.297  49.278  1.00  0.00    -0.035 A 
HETATM   20  C5  UNL     1      21.941   3.911  50.037  1.00  0.00     0.012 A 
HETATM   21  C6  UNL     1      20.663   3.345  49.994  1.00  0.00     0.043 A 
HETATM   22  C7  UNL     1      20.354   2.212  49.233  1.00  0.00     0.116 A 
HETATM   23  F1  UNL     1      19.104   1.697  49.219  1.00  0.00    -0.206 F 
HETATM   24  C8  UNL     1      21.372   1.651  48.502  1.00  0.00     0.043 A 
HETATM   25  C9  UNL     1      22.648   2.172  48.509  1.00  0.00     0.012 A 
ENDBRANCH   4  19
TORSDOF 3
ENDMDL
