MODEL 1
REMARK VINA RESULT:      -9.1      0.000      0.000
REMARK  7 active torsions:
REMARK  status: ('A' for Active; 'I' for Inactive)
REMARK    1  A    between atoms: O1_2  and  C2_3 
REMARK    2  A    between atoms: C6_9  and  N3_10 
REMARK    3  A    between atoms: N4_13  and  C9_14 
REMARK    4  A    between atoms: C9_14  and  N5_16 
REMARK    5  A    between atoms: N5_16  and  C10_17 
REMARK    6  A    between atoms: C10_17  and  C11_18 
REMARK    7  A    between atoms: C22_31  and  O4_32 
ROOT
HETATM    1  N3  UNL     1      23.119   3.196  51.847  1.00  0.00    -0.362 N 
HETATM    2  C7  UNL     1      22.717   4.461  52.479  1.00  0.00     0.144 C 
HETATM    3  C8  UNL     1      23.724   5.537  52.138  1.00  0.00     0.145 C 
HETATM    4  N4  UNL     1      23.904   5.607  50.703  1.00  0.00    -0.355 N 
HETATM    5  C18 UNL     1      23.271   4.602  49.874  1.00  0.00     0.145 C 
HETATM    6  C19 UNL     1      23.476   3.215  50.442  1.00  0.00     0.144 C 
ENDROOT
BRANCH   1   7
HETATM    7  C6  UNL     1      23.248   1.854  52.336  1.00  0.00     0.139 A 
HETATM    8  N2  UNL     1      22.201   1.014  52.099  1.00  0.00    -0.224 NA
HETATM    9  C5  UNL     1      22.195  -0.272  52.506  1.00  0.00     0.236 A 
HETATM   10  N1  UNL     1      23.243  -0.778  53.171  1.00  0.00    -0.241 NA
HETATM   11  C4  UNL     1      24.300   0.013  53.428  1.00  0.00     0.075 A 
HETATM   12  C3  UNL     1      25.405  -0.483  54.117  1.00  0.00     0.072 A 
HETATM   13  C20 UNL     1      24.325   1.329  53.021  1.00  0.00     0.041 A 
HETATM   14  C2  UNL     1      26.493   0.354  54.374  1.00  0.00     0.103 A 
HETATM   15  C22 UNL     1      26.454   1.672  53.935  1.00  0.00     0.102 A 
HETATM   16  C21 UNL     1      25.372   2.197  53.248  1.00  0.00     0.057 A 
BRANCH  14  17
HETATM   17  O1  UNL     1      27.593  -0.156  55.065  1.00  0.00    -0.353 OA
HETATM   18  C1  UNL     1      28.591  -0.778  54.265  1.00  0.00     0.210 C 
ENDBRANCH  14  17
BRANCH  15  19
HETATM   19  O4  UNL     1      27.578   2.429  54.235  1.00  0.00    -0.353 OA
HETATM   20  C23 UNL     1      28.657   2.546  53.333  1.00  0.00     0.210 C 
ENDBRANCH  15  19
ENDBRANCH   1   7
BRANCH   4  21
HETATM   21  C9  UNL     1      24.700   6.668  50.158  1.00  0.00     0.170 C 
HETATM   22  S1  UNL     1      24.026   8.141  49.923  1.00  0.00    -0.041 SA
BRANCH  21  23
HETATM   23  N5  UNL     1      26.068   6.538  49.796  1.00  0.00    -0.363 N 
HETATM   24  H10 UNL     1      26.800   6.928  50.398  1.00  0.00     0.162 HD
BRANCH  23  25
HETATM   25  C10 UNL     1      26.511   5.868  48.595  1.00  0.00     0.160 C 
BRANCH  25  26
HETATM   26  C11 UNL     1      27.897   6.244  48.225  1.00  0.00    -0.038 A 
HETATM   27  C12 UNL     1      28.284   7.494  47.774  1.00  0.00     0.012 A 
HETATM   28  C13 UNL     1      29.603   7.743  47.456  1.00  0.00     0.040 A 
HETATM   29  C14 UNL     1      30.571   6.770  47.574  1.00  0.00     0.105 A 
HETATM   30  C15 UNL     1      30.199   5.524  48.021  1.00  0.00     0.105 A 
HETATM   31  O3  UNL     1      31.949   6.787  47.315  1.00  0.00    -0.323 OA
HETATM   32  C16 UNL     1      28.878   5.266  48.342  1.00  0.00     0.048 A 
HETATM   33  O2  UNL     1      31.367   4.758  48.039  1.00  0.00    -0.323 OA
HETATM   34  C17 UNL     1      32.354   5.428  47.274  1.00  0.00     0.352 C 
ENDBRANCH  25  26
ENDBRANCH  23  25
ENDBRANCH  21  23
ENDBRANCH   4  21
TORSDOF 7
ENDMDL
MODEL 2
REMARK VINA RESULT:      -8.7      2.369      3.511
REMARK  7 active torsions:
REMARK  status: ('A' for Active; 'I' for Inactive)
REMARK    1  A    between atoms: O1_2  and  C2_3 
REMARK    2  A    between atoms: C6_9  and  N3_10 
REMARK    3  A    between atoms: N4_13  and  C9_14 
REMARK    4  A    between atoms: C9_14  and  N5_16 
REMARK    5  A    between atoms: N5_16  and  C10_17 
REMARK    6  A    between atoms: C10_17  and  C11_18 
REMARK    7  A    between atoms: C22_31  and  O4_32 
ROOT
HETATM    1  N3  UNL     1      25.506   3.608  50.806  1.00  0.00    -0.362 N 
HETATM    2  C7  UNL     1      24.312   4.460  50.715  1.00  0.00     0.144 C 
HETATM    3  C8  UNL     1      24.726   5.914  50.755  1.00  0.00     0.145 C 
HETATM    4  N4  UNL     1      25.730   6.168  49.743  1.00  0.00    -0.355 N 
HETATM    5  C18 UNL     1      26.275   5.046  49.009  1.00  0.00     0.145 C 
HETATM    6  C19 UNL     1      26.627   3.903  49.935  1.00  0.00     0.144 C 
ENDROOT
BRANCH   1   7
HETATM    7  C6  UNL     1      25.841   2.473  51.617  1.00  0.00     0.139 A 
HETATM    8  N2  UNL     1      27.157   2.316  51.934  1.00  0.00    -0.224 NA
HETATM    9  C5  UNL     1      27.605   1.292  52.689  1.00  0.00     0.236 A 
HETATM   10  N1  UNL     1      26.750   0.374  53.162  1.00  0.00    -0.241 NA
HETATM   11  C4  UNL     1      25.442   0.487  52.876  1.00  0.00     0.075 A 
HETATM   12  C3  UNL     1      24.529  -0.451  53.353  1.00  0.00     0.072 A 
HETATM   13  C20 UNL     1      24.965   1.526  52.106  1.00  0.00     0.041 A 
HETATM   14  C2  UNL     1      23.173  -0.315  53.044  1.00  0.00     0.103 A 
HETATM   15  C22 UNL     1      22.758   0.756  52.263  1.00  0.00     0.102 A 
HETATM   16  C21 UNL     1      23.639   1.706  51.772  1.00  0.00     0.057 A 
BRANCH  14  17
HETATM   17  O1  UNL     1      22.269  -1.262  53.529  1.00  0.00    -0.353 OA
HETATM   18  C1  UNL     1      21.951  -1.160  54.912  1.00  0.00     0.210 C 
ENDBRANCH  14  17
BRANCH  15  19
HETATM   19  O4  UNL     1      21.395   0.809  52.008  1.00  0.00    -0.353 OA
HETATM   20  C23 UNL     1      20.558   1.756  52.636  1.00  0.00     0.210 C 
ENDBRANCH  15  19
ENDBRANCH   1   7
BRANCH   4  21
HETATM   21  C9  UNL     1      26.145   7.521  49.507  1.00  0.00     0.170 C 
HETATM   22  S1  UNL     1      25.049   8.620  48.989  1.00  0.00    -0.041 SA
BRANCH  21  23
HETATM   23  N5  UNL     1      27.472   7.996  49.694  1.00  0.00    -0.363 N 
HETATM   24  H10 UNL     1      27.862   8.075  50.637  1.00  0.00     0.162 HD
BRANCH  23  25
HETATM   25  C10 UNL     1      28.335   8.387  48.603  1.00  0.00     0.160 C 
BRANCH  25  26
HETATM   26  C11 UNL     1      29.675   7.758  48.700  1.00  0.00    -0.038 A 
HETATM   27  C12 UNL     1      30.808   8.384  49.190  1.00  0.00     0.012 A 
HETATM   28  C13 UNL     1      32.010   7.709  49.239  1.00  0.00     0.040 A 
HETATM   29  C14 UNL     1      32.127   6.406  48.809  1.00  0.00     0.105 A 
HETATM   30  C15 UNL     1      31.007   5.774  48.321  1.00  0.00     0.105 A 
HETATM   31  O3  UNL     1      33.221   5.531  48.762  1.00  0.00    -0.323 OA
HETATM   32  C16 UNL     1      29.797   6.442  48.268  1.00  0.00     0.048 A 
HETATM   33  O2  UNL     1      31.418   4.486  47.966  1.00  0.00    -0.323 OA
HETATM   34  C17 UNL     1      32.834   4.468  47.907  1.00  0.00     0.352 C 
ENDBRANCH  25  26
ENDBRANCH  23  25
ENDBRANCH  21  23
ENDBRANCH   4  21
TORSDOF 7
ENDMDL
MODEL 3
REMARK VINA RESULT:      -8.7      2.306      7.629
REMARK  7 active torsions:
REMARK  status: ('A' for Active; 'I' for Inactive)
REMARK    1  A    between atoms: O1_2  and  C2_3 
REMARK    2  A    between atoms: C6_9  and  N3_10 
REMARK    3  A    between atoms: N4_13  and  C9_14 
REMARK    4  A    between atoms: C9_14  and  N5_16 
REMARK    5  A    between atoms: N5_16  and  C10_17 
REMARK    6  A    between atoms: C10_17  and  C11_18 
REMARK    7  A    between atoms: C22_31  and  O4_32 
ROOT
HETATM    1  N3  UNL     1      22.808   6.223  49.061  1.00  0.00    -0.362 N 
HETATM    2  C7  UNL     1      21.947   5.251  48.371  1.00  0.00     0.144 C 
HETATM    3  C8  UNL     1      21.750   4.037  49.251  1.00  0.00     0.145 C 
HETATM    4  N4  UNL     1      21.277   4.447  50.557  1.00  0.00    -0.355 N 
HETATM    5  C18 UNL     1      21.225   5.861  50.864  1.00  0.00     0.145 C 
HETATM    6  C19 UNL     1      22.495   6.563  50.435  1.00  0.00     0.144 C 
ENDROOT
BRANCH   1   7
HETATM    7  C6  UNL     1      23.970   6.962  48.658  1.00  0.00     0.139 A 
HETATM    8  N2  UNL     1      23.769   8.258  48.286  1.00  0.00    -0.224 NA
HETATM    9  C5  UNL     1      24.776   9.063  47.886  1.00  0.00     0.236 A 
HETATM   10  N1  UNL     1      26.034   8.602  47.840  1.00  0.00    -0.241 NA
HETATM   11  C4  UNL     1      26.281   7.330  48.198  1.00  0.00     0.075 A 
HETATM   12  C3  UNL     1      27.577   6.823  48.161  1.00  0.00     0.072 A 
HETATM   13  C20 UNL     1      25.266   6.493  48.609  1.00  0.00     0.041 A 
HETATM   14  C2  UNL     1      27.813   5.498  48.537  1.00  0.00     0.103 A 
HETATM   15  C22 UNL     1      26.745   4.707  48.942  1.00  0.00     0.102 A 
HETATM   16  C21 UNL     1      25.444   5.179  48.990  1.00  0.00     0.057 A 
BRANCH  14  17
HETATM   17  O1  UNL     1      29.117   5.003  48.496  1.00  0.00    -0.353 OA
HETATM   18  C1  UNL     1      30.124   5.944  48.145  1.00  0.00     0.210 C 
ENDBRANCH  14  17
BRANCH  15  19
HETATM   19  O4  UNL     1      27.073   3.406  49.297  1.00  0.00    -0.353 OA
HETATM   20  C23 UNL     1      26.579   2.810  50.476  1.00  0.00     0.210 C 
ENDBRANCH  15  19
ENDBRANCH   1   7
BRANCH   4  21
HETATM   21  C9  UNL     1      20.877   3.438  51.495  1.00  0.00     0.170 C 
HETATM   22  S1  UNL     1      19.289   3.083  51.666  1.00  0.00    -0.041 SA
BRANCH  21  23
HETATM   23  N5  UNL     1      21.778   2.700  52.309  1.00  0.00    -0.363 N 
HETATM   24  H10 UNL     1      21.500   1.792  52.692  1.00  0.00     0.162 HD
BRANCH  23  25
HETATM   25  C10 UNL     1      23.106   3.162  52.642  1.00  0.00     0.160 C 
BRANCH  25  26
HETATM   26  C11 UNL     1      24.009   2.043  53.011  1.00  0.00    -0.038 A 
HETATM   27  C12 UNL     1      23.705   0.701  52.866  1.00  0.00     0.012 A 
HETATM   28  C13 UNL     1      24.616  -0.264  53.240  1.00  0.00     0.040 A 
HETATM   29  C14 UNL     1      25.846   0.067  53.765  1.00  0.00     0.105 A 
HETATM   30  C15 UNL     1      26.160   1.398  53.912  1.00  0.00     0.105 A 
HETATM   31  O3  UNL     1      26.916  -0.722  54.208  1.00  0.00    -0.323 OA
HETATM   32  C16 UNL     1      25.252   2.373  53.540  1.00  0.00     0.048 A 
HETATM   33  O2  UNL     1      27.446   1.431  54.457  1.00  0.00    -0.323 OA
HETATM   34  C17 UNL     1      27.752   0.141  54.961  1.00  0.00     0.352 C 
ENDBRANCH  25  26
ENDBRANCH  23  25
ENDBRANCH  21  23
ENDBRANCH   4  21
TORSDOF 7
ENDMDL
MODEL 4
REMARK VINA RESULT:      -8.6      2.122      8.454
REMARK  7 active torsions:
REMARK  status: ('A' for Active; 'I' for Inactive)
REMARK    1  A    between atoms: O1_2  and  C2_3 
REMARK    2  A    between atoms: C6_9  and  N3_10 
REMARK    3  A    between atoms: N4_13  and  C9_14 
REMARK    4  A    between atoms: C9_14  and  N5_16 
REMARK    5  A    between atoms: N5_16  and  C10_17 
REMARK    6  A    between atoms: C10_17  and  C11_18 
REMARK    7  A    between atoms: C22_31  and  O4_32 
ROOT
HETATM    1  N3  UNL     1      27.480   6.034  48.634  1.00  0.00    -0.362 N 
HETATM    2  C7  UNL     1      27.506   4.564  48.615  1.00  0.00     0.144 C 
HETATM    3  C8  UNL     1      26.803   4.031  49.843  1.00  0.00     0.145 C 
HETATM    4  N4  UNL     1      25.480   4.612  49.944  1.00  0.00    -0.355 N 
HETATM    5  C18 UNL     1      25.113   5.665  49.022  1.00  0.00     0.145 C 
HETATM    6  C19 UNL     1      26.215   6.693  48.896  1.00  0.00     0.144 C 
ENDROOT
BRANCH   1   7
HETATM    7  C6  UNL     1      28.489   7.035  48.441  1.00  0.00     0.139 A 
HETATM    8  N2  UNL     1      28.078   8.334  48.500  1.00  0.00    -0.224 NA
HETATM    9  C5  UNL     1      28.926   9.371  48.336  1.00  0.00     0.236 A 
HETATM   10  N1  UNL     1      30.228   9.152  48.105  1.00  0.00    -0.241 NA
HETATM   11  C4  UNL     1      30.680   7.887  48.038  1.00  0.00     0.075 A 
HETATM   12  C3  UNL     1      32.027   7.627  47.799  1.00  0.00     0.072 A 
HETATM   13  C20 UNL     1      29.830   6.815  48.203  1.00  0.00     0.041 A 
HETATM   14  C2  UNL     1      32.476   6.306  47.735  1.00  0.00     0.103 A 
HETATM   15  C22 UNL     1      31.566   5.271  47.910  1.00  0.00     0.102 A 
HETATM   16  C21 UNL     1      30.220   5.493  48.149  1.00  0.00     0.057 A 
BRANCH  14  17
HETATM   17  O1  UNL     1      33.829   6.061  47.495  1.00  0.00    -0.353 OA
HETATM   18  C1  UNL     1      34.698   6.258  48.603  1.00  0.00     0.210 C 
ENDBRANCH  14  17
BRANCH  15  19
HETATM   19  O4  UNL     1      32.102   3.993  47.829  1.00  0.00    -0.353 OA
HETATM   20  C23 UNL     1      31.991   3.213  46.658  1.00  0.00     0.210 C 
ENDBRANCH  15  19
ENDBRANCH   1   7
BRANCH   4  21
HETATM   21  C9  UNL     1      24.587   4.120  50.953  1.00  0.00     0.170 C 
HETATM   22  S1  UNL     1      22.992   4.475  50.856  1.00  0.00    -0.041 SA
BRANCH  21  23
HETATM   23  N5  UNL     1      24.988   3.327  52.061  1.00  0.00    -0.363 N 
HETATM   24  H10 UNL     1      25.303   3.772  52.928  1.00  0.00     0.162 HD
BRANCH  23  25
HETATM   25  C10 UNL     1      24.980   1.881  52.046  1.00  0.00     0.160 C 
BRANCH  25  26
HETATM   26  C11 UNL     1      26.260   1.312  52.533  1.00  0.00    -0.038 A 
HETATM   27  C12 UNL     1      27.348   2.056  52.954  1.00  0.00     0.012 A 
HETATM   28  C13 UNL     1      28.495   1.428  53.390  1.00  0.00     0.040 A 
HETATM   29  C14 UNL     1      28.601   0.055  53.422  1.00  0.00     0.105 A 
HETATM   30  C15 UNL     1      27.526  -0.696  53.005  1.00  0.00     0.105 A 
HETATM   31  O3  UNL     1      29.645  -0.793  53.816  1.00  0.00    -0.323 OA
HETATM   32  C16 UNL     1      26.371  -0.074  52.566  1.00  0.00     0.048 A 
HETATM   33  O2  UNL     1      27.914  -2.031  53.145  1.00  0.00    -0.323 OA
HETATM   34  C17 UNL     1      29.323  -2.074  53.301  1.00  0.00     0.352 C 
ENDBRANCH  25  26
ENDBRANCH  23  25
ENDBRANCH  21  23
ENDBRANCH   4  21
TORSDOF 7
ENDMDL
MODEL 5
REMARK VINA RESULT:      -8.5      1.837      2.354
REMARK  7 active torsions:
REMARK  status: ('A' for Active; 'I' for Inactive)
REMARK    1  A    between atoms: O1_2  and  C2_3 
REMARK    2  A    between atoms: C6_9  and  N3_10 
REMARK    3  A    between atoms: N4_13  and  C9_14 
REMARK    4  A    between atoms: C9_14  and  N5_16 
REMARK    5  A    between atoms: N5_16  and  C10_17 
REMARK    6  A    between atoms: C10_17  and  C11_18 
REMARK    7  A    between atoms: C22_31  and  O4_32 
ROOT
HETATM    1  N3  UNL     1      21.627   1.812  52.217  1.00  0.00    -0.362 N 
HETATM    2  C7  UNL     1      21.099   3.169  52.420  1.00  0.00     0.144 C 
HETATM    3  C8  UNL     1      21.833   4.137  51.519  1.00  0.00     0.145 C 
HETATM    4  N4  UNL     1      21.786   3.666  50.149  1.00  0.00    -0.355 N 
HETATM    5  C18 UNL     1      21.233   2.355  49.884  1.00  0.00     0.145 C 
HETATM    6  C19 UNL     1      21.767   1.327  50.858  1.00  0.00     0.144 C 
ENDROOT
BRANCH   1   7
HETATM    7  C6  UNL     1      22.068   0.787  53.118  1.00  0.00     0.139 A 
HETATM    8  N2  UNL     1      21.100   0.146  53.833  1.00  0.00    -0.224 NA
HETATM    9  C5  UNL     1      21.379  -0.837  54.714  1.00  0.00     0.236 A 
HETATM   10  N1  UNL     1      22.647  -1.222  54.920  1.00  0.00    -0.241 NA
HETATM   11  C4  UNL     1      23.635  -0.619  54.238  1.00  0.00     0.075 A 
HETATM   12  C3  UNL     1      24.962  -0.997  54.430  1.00  0.00     0.072 A 
HETATM   13  C20 UNL     1      23.370   0.387  53.334  1.00  0.00     0.041 A 
HETATM   14  C2  UNL     1      25.975  -0.358  53.711  1.00  0.00     0.103 A 
HETATM   15  C22 UNL     1      25.639   0.649  52.814  1.00  0.00     0.102 A 
HETATM   16  C21 UNL     1      24.331   1.050  52.599  1.00  0.00     0.057 A 
BRANCH  14  17
HETATM   17  O1  UNL     1      27.300  -0.747  53.914  1.00  0.00    -0.353 OA
HETATM   18  C1  UNL     1      28.058   0.075  54.792  1.00  0.00     0.210 C 
ENDBRANCH  14  17
BRANCH  15  19
HETATM   19  O4  UNL     1      26.709   1.227  52.146  1.00  0.00    -0.353 OA
HETATM   20  C23 UNL     1      26.598   2.480  51.507  1.00  0.00     0.210 C 
ENDBRANCH  15  19
ENDBRANCH   1   7
BRANCH   4  21
HETATM   21  C9  UNL     1      22.289   4.518  49.110  1.00  0.00     0.170 C 
HETATM   22  S1  UNL     1      21.316   5.669  48.472  1.00  0.00    -0.041 SA
BRANCH  21  23
HETATM   23  N5  UNL     1      23.604   4.439  48.576  1.00  0.00    -0.363 N 
HETATM   24  H10 UNL     1      23.750   4.450  47.563  1.00  0.00     0.162 HD
BRANCH  23  25
HETATM   25  C10 UNL     1      24.789   4.343  49.398  1.00  0.00     0.160 C 
BRANCH  25  26
HETATM   26  C11 UNL     1      25.871   5.238  48.921  1.00  0.00    -0.038 A 
HETATM   27  C12 UNL     1      25.691   6.547  48.510  1.00  0.00     0.012 A 
HETATM   28  C13 UNL     1      26.767   7.298  48.084  1.00  0.00     0.040 A 
HETATM   29  C14 UNL     1      28.043   6.780  48.052  1.00  0.00     0.105 A 
HETATM   30  C15 UNL     1      28.234   5.480  48.459  1.00  0.00     0.105 A 
HETATM   31  O3  UNL     1      29.269   7.339  47.665  1.00  0.00    -0.323 OA
HETATM   32  C16 UNL     1      27.161   4.720  48.888  1.00  0.00     0.048 A 
HETATM   33  O2  UNL     1      29.602   5.232  48.321  1.00  0.00    -0.323 OA
HETATM   34  C17 UNL     1      30.162   6.249  47.506  1.00  0.00     0.352 C 
ENDBRANCH  25  26
ENDBRANCH  23  25
ENDBRANCH  21  23
ENDBRANCH   4  21
TORSDOF 7
ENDMDL
MODEL 6
REMARK VINA RESULT:      -8.5      2.882      7.567
REMARK  7 active torsions:
REMARK  status: ('A' for Active; 'I' for Inactive)
REMARK    1  A    between atoms: O1_2  and  C2_3 
REMARK    2  A    between atoms: C6_9  and  N3_10 
REMARK    3  A    between atoms: N4_13  and  C9_14 
REMARK    4  A    between atoms: C9_14  and  N5_16 
REMARK    5  A    between atoms: N5_16  and  C10_17 
REMARK    6  A    between atoms: C10_17  and  C11_18 
REMARK    7  A    between atoms: C22_31  and  O4_32 
ROOT
HETATM    1  N3  UNL     1      21.136   3.974  50.607  1.00  0.00    -0.362 N 
HETATM    2  C7  UNL     1      20.780   2.848  49.731  1.00  0.00     0.144 C 
HETATM    3  C8  UNL     1      21.260   1.555  50.351  1.00  0.00     0.145 C 
HETATM    4  N4  UNL     1      20.767   1.447  51.708  1.00  0.00    -0.355 N 
HETATM    5  C18 UNL     1      20.080   2.581  52.289  1.00  0.00     0.145 C 
HETATM    6  C19 UNL     1      20.822   3.870  52.019  1.00  0.00     0.144 C 
ENDROOT
BRANCH   1   7
HETATM    7  C6  UNL     1      21.769   5.239  50.368  1.00  0.00     0.139 A 
HETATM    8  N2  UNL     1      20.992   6.348  50.526  1.00  0.00    -0.224 NA
HETATM    9  C5  UNL     1      21.464   7.598  50.332  1.00  0.00     0.236 A 
HETATM   10  N1  UNL     1      22.740   7.793  49.971  1.00  0.00    -0.241 NA
HETATM   11  C4  UNL     1      23.544   6.728  49.804  1.00  0.00     0.075 A 
HETATM   12  C3  UNL     1      24.875   6.898  49.429  1.00  0.00     0.072 A 
HETATM   13  C20 UNL     1      23.081   5.445  49.997  1.00  0.00     0.041 A 
HETATM   14  C2  UNL     1      25.695   5.779  49.262  1.00  0.00     0.103 A 
HETATM   15  C22 UNL     1      25.165   4.512  49.472  1.00  0.00     0.102 A 
HETATM   16  C21 UNL     1      23.847   4.307  49.845  1.00  0.00     0.057 A 
BRANCH  14  17
HETATM   17  O1  UNL     1      27.026   5.964  48.886  1.00  0.00    -0.353 OA
HETATM   18  C1  UNL     1      27.369   7.273  48.450  1.00  0.00     0.210 C 
ENDBRANCH  14  17
BRANCH  15  19
HETATM   19  O4  UNL     1      26.052   3.461  49.282  1.00  0.00    -0.353 OA
HETATM   20  C23 UNL     1      26.560   2.713  50.365  1.00  0.00     0.210 C 
ENDBRANCH  15  19
ENDBRANCH   1   7
BRANCH   4  21
HETATM   21  C9  UNL     1      20.977   0.221  52.423  1.00  0.00     0.170 C 
HETATM   22  S1  UNL     1      19.758  -0.410  53.314  1.00  0.00    -0.041 SA
BRANCH  21  23
HETATM   23  N5  UNL     1      22.195  -0.511  52.417  1.00  0.00    -0.363 N 
HETATM   24  H10 UNL     1      22.596  -0.837  51.533  1.00  0.00     0.162 HD
BRANCH  23  25
HETATM   25  C10 UNL     1      22.932  -0.835  53.617  1.00  0.00     0.160 C 
BRANCH  25  26
HETATM   26  C11 UNL     1      24.174  -0.033  53.743  1.00  0.00    -0.038 A 
HETATM   27  C12 UNL     1      24.319   1.273  53.308  1.00  0.00     0.012 A 
HETATM   28  C13 UNL     1      25.519   1.932  53.472  1.00  0.00     0.040 A 
HETATM   29  C14 UNL     1      26.603   1.324  54.066  1.00  0.00     0.105 A 
HETATM   30  C15 UNL     1      26.470   0.027  54.503  1.00  0.00     0.105 A 
HETATM   31  O3  UNL     1      27.900   1.783  54.337  1.00  0.00    -0.323 OA
HETATM   32  C16 UNL     1      25.270  -0.642  54.342  1.00  0.00     0.048 A 
HETATM   33  O2  UNL     1      27.706  -0.322  55.053  1.00  0.00    -0.323 OA
HETATM   34  C17 UNL     1      28.670   0.628  54.627  1.00  0.00     0.352 C 
ENDBRANCH  25  26
ENDBRANCH  23  25
ENDBRANCH  21  23
ENDBRANCH   4  21
TORSDOF 7
ENDMDL
MODEL 7
REMARK VINA RESULT:      -8.3      4.163      5.930
REMARK  7 active torsions:
REMARK  status: ('A' for Active; 'I' for Inactive)
REMARK    1  A    between atoms: O1_2  and  C2_3 
REMARK    2  A    between atoms: C6_9  and  N3_10 
REMARK    3  A    between atoms: N4_13  and  C9_14 
REMARK    4  A    between atoms: C9_14  and  N5_16 
REMARK    5  A    between atoms: N5_16  and  C10_17 
REMARK    6  A    between atoms: C10_17  and  C11_18 
REMARK    7  A    between atoms: C22_31  and  O4_32 
ROOT
HETATM    1  N3  UNL     1      22.829   1.552  51.674  1.00  0.00    -0.362 N 
HETATM    2  C7  UNL     1      21.949   1.314  52.827  1.00  0.00     0.144 C 
HETATM    3  C8  UNL     1      20.717   2.182  52.710  1.00  0.00     0.145 C 
HETATM    4  N4  UNL     1      20.092   1.979  51.419  1.00  0.00    -0.355 N 
HETATM    5  C18 UNL     1      20.777   1.165  50.437  1.00  0.00     0.145 C 
HETATM    6  C19 UNL     1      22.242   1.529  50.348  1.00  0.00     0.144 C 
ENDROOT
BRANCH   1   7
HETATM    7  C6  UNL     1      24.232   1.822  51.550  1.00  0.00     0.139 A 
HETATM    8  N2  UNL     1      24.596   2.741  50.611  1.00  0.00    -0.224 NA
HETATM    9  C5  UNL     1      25.882   3.086  50.394  1.00  0.00     0.236 A 
HETATM   10  N1  UNL     1      26.866   2.524  51.111  1.00  0.00    -0.241 NA
HETATM   11  C4  UNL     1      26.555   1.613  52.049  1.00  0.00     0.075 A 
HETATM   12  C3  UNL     1      27.554   1.011  52.810  1.00  0.00     0.072 A 
HETATM   13  C20 UNL     1      25.248   1.247  52.286  1.00  0.00     0.041 A 
HETATM   14  C2  UNL     1      27.211   0.067  53.780  1.00  0.00     0.103 A 
HETATM   15  C22 UNL     1      25.872  -0.257  53.969  1.00  0.00     0.102 A 
HETATM   16  C21 UNL     1      24.854   0.321  53.230  1.00  0.00     0.057 A 
BRANCH  14  17
HETATM   17  O1  UNL     1      28.222  -0.528  54.536  1.00  0.00    -0.353 OA
HETATM   18  C1  UNL     1      29.414  -0.850  53.829  1.00  0.00     0.210 C 
ENDBRANCH  14  17
BRANCH  15  19
HETATM   19  O4  UNL     1      25.626  -1.204  54.953  1.00  0.00    -0.353 OA
HETATM   20  C23 UNL     1      24.385  -1.278  55.620  1.00  0.00     0.210 C 
ENDBRANCH  15  19
ENDBRANCH   1   7
BRANCH   4  21
HETATM   21  C9  UNL     1      18.820   2.592  51.165  1.00  0.00     0.170 C 
HETATM   22  S1  UNL     1      17.469   1.668  51.161  1.00  0.00    -0.041 SA
BRANCH  21  23
HETATM   23  N5  UNL     1      18.635   3.977  50.909  1.00  0.00    -0.363 N 
HETATM   24  H10 UNL     1      18.169   4.571  51.601  1.00  0.00     0.162 HD
BRANCH  23  25
HETATM   25  C10 UNL     1      19.080   4.626  49.697  1.00  0.00     0.160 C 
BRANCH  25  26
HETATM   26  C11 UNL     1      20.150   5.620  49.956  1.00  0.00    -0.038 A 
HETATM   27  C12 UNL     1      20.064   6.970  49.664  1.00  0.00     0.012 A 
HETATM   28  C13 UNL     1      21.119   7.812  49.946  1.00  0.00     0.040 A 
HETATM   29  C14 UNL     1      22.282   7.348  50.522  1.00  0.00     0.105 A 
HETATM   30  C15 UNL     1      22.378   6.008  50.818  1.00  0.00     0.105 A 
HETATM   31  O3  UNL     1      23.465   8.000  50.894  1.00  0.00    -0.323 OA
HETATM   32  C16 UNL     1      21.325   5.156  50.538  1.00  0.00     0.048 A 
HETATM   33  O2  UNL     1      23.644   5.830  51.382  1.00  0.00    -0.323 OA
HETATM   34  C17 UNL     1      24.427   6.978  51.097  1.00  0.00     0.352 C 
ENDBRANCH  25  26
ENDBRANCH  23  25
ENDBRANCH  21  23
ENDBRANCH   4  21
TORSDOF 7
ENDMDL
MODEL 8
REMARK VINA RESULT:      -8.3      2.604      8.061
REMARK  7 active torsions:
REMARK  status: ('A' for Active; 'I' for Inactive)
REMARK    1  A    between atoms: O1_2  and  C2_3 
REMARK    2  A    between atoms: C6_9  and  N3_10 
REMARK    3  A    between atoms: N4_13  and  C9_14 
REMARK    4  A    between atoms: C9_14  and  N5_16 
REMARK    5  A    between atoms: N5_16  and  C10_17 
REMARK    6  A    between atoms: C10_17  and  C11_18 
REMARK    7  A    between atoms: C22_31  and  O4_32 
ROOT
HETATM    1  N3  UNL     1      25.185   6.263  49.095  1.00  0.00    -0.362 N 
HETATM    2  C7  UNL     1      23.983   6.280  48.248  1.00  0.00     0.144 C 
HETATM    3  C8  UNL     1      23.110   5.094  48.588  1.00  0.00     0.145 C 
HETATM    4  N4  UNL     1      22.846   5.068  50.012  1.00  0.00    -0.355 N 
HETATM    5  C18 UNL     1      23.541   6.010  50.863  1.00  0.00     0.145 C 
HETATM    6  C19 UNL     1      25.014   6.075  50.523  1.00  0.00     0.144 C 
ENDROOT
BRANCH   1   7
HETATM    7  C6  UNL     1      26.585   6.399  48.814  1.00  0.00     0.139 A 
HETATM    8  N2  UNL     1      27.282   5.244  48.620  1.00  0.00    -0.224 NA
HETATM    9  C5  UNL     1      28.604   5.231  48.348  1.00  0.00     0.236 A 
HETATM   10  N1  UNL     1      29.289   6.380  48.258  1.00  0.00    -0.241 NA
HETATM   11  C4  UNL     1      28.643   7.545  48.442  1.00  0.00     0.075 A 
HETATM   12  C3  UNL     1      29.327   8.756  48.354  1.00  0.00     0.072 A 
HETATM   13  C20 UNL     1      27.294   7.579  48.720  1.00  0.00     0.041 A 
HETATM   14  C2  UNL     1      28.637   9.955  48.548  1.00  0.00     0.103 A 
HETATM   15  C22 UNL     1      27.276   9.919  48.825  1.00  0.00     0.102 A 
HETATM   16  C21 UNL     1      26.566   8.733  48.919  1.00  0.00     0.057 A 
BRANCH  14  17
HETATM   17  O1  UNL     1      29.335  11.160  48.457  1.00  0.00    -0.353 OA
HETATM   18  C1  UNL     1      30.567  11.216  49.165  1.00  0.00     0.210 C 
ENDBRANCH  14  17
BRANCH  15  19
HETATM   19  O4  UNL     1      26.675  11.157  49.002  1.00  0.00    -0.353 OA
HETATM   20  C23 UNL     1      25.830  11.720  48.023  1.00  0.00     0.210 C 
ENDBRANCH  15  19
ENDBRANCH   1   7
BRANCH   4  21
HETATM   21  C9  UNL     1      21.907   4.112  50.523  1.00  0.00     0.170 C 
HETATM   22  S1  UNL     1      20.344   4.551  50.730  1.00  0.00    -0.041 SA
BRANCH  21  23
HETATM   23  N5  UNL     1      22.236   2.774  50.872  1.00  0.00    -0.363 N 
HETATM   24  H10 UNL     1      22.077   2.013  50.206  1.00  0.00     0.162 HD
BRANCH  23  25
HETATM   25  C10 UNL     1      22.802   2.405  52.150  1.00  0.00     0.160 C 
BRANCH  25  26
HETATM   26  C11 UNL     1      24.285   2.356  52.109  1.00  0.00    -0.038 A 
HETATM   27  C12 UNL     1      25.048   2.456  50.959  1.00  0.00     0.012 A 
HETATM   28  C13 UNL     1      26.424   2.399  51.029  1.00  0.00     0.040 A 
HETATM   29  C14 UNL     1      27.082   2.244  52.229  1.00  0.00     0.105 A 
HETATM   30  C15 UNL     1      26.333   2.144  53.379  1.00  0.00     0.105 A 
HETATM   31  O3  UNL     1      28.445   2.160  52.544  1.00  0.00    -0.323 OA
HETATM   32  C16 UNL     1      24.953   2.199  53.318  1.00  0.00     0.048 A 
HETATM   33  O2  UNL     1      27.251   1.996  54.423  1.00  0.00    -0.323 OA
HETATM   34  C17 UNL     1      28.509   1.651  53.867  1.00  0.00     0.352 C 
ENDBRANCH  25  26
ENDBRANCH  23  25
ENDBRANCH  21  23
ENDBRANCH   4  21
TORSDOF 7
ENDMDL
MODEL 9
REMARK VINA RESULT:      -8.3      3.230      8.271
REMARK  7 active torsions:
REMARK  status: ('A' for Active; 'I' for Inactive)
REMARK    1  A    between atoms: O1_2  and  C2_3 
REMARK    2  A    between atoms: C6_9  and  N3_10 
REMARK    3  A    between atoms: N4_13  and  C9_14 
REMARK    4  A    between atoms: C9_14  and  N5_16 
REMARK    5  A    between atoms: N5_16  and  C10_17 
REMARK    6  A    between atoms: C10_17  and  C11_18 
REMARK    7  A    between atoms: C22_31  and  O4_32 
ROOT
HETATM    1  N3  UNL     1      23.282   3.738  49.890  1.00  0.00    -0.362 N 
HETATM    2  C7  UNL     1      22.287   2.900  49.204  1.00  0.00     0.144 C 
HETATM    3  C8  UNL     1      21.994   1.676  50.042  1.00  0.00     0.145 C 
HETATM    4  N4  UNL     1      21.627   2.075  51.385  1.00  0.00    -0.355 N 
HETATM    5  C18 UNL     1      21.749   3.470  51.752  1.00  0.00     0.145 C 
HETATM    6  C19 UNL     1      23.069   4.046  51.291  1.00  0.00     0.144 C 
ENDROOT
BRANCH   1   7
HETATM    7  C6  UNL     1      24.500   4.362  49.463  1.00  0.00     0.139 A 
HETATM    8  N2  UNL     1      25.653   3.673  49.697  1.00  0.00    -0.224 NA
HETATM    9  C5  UNL     1      26.866   4.148  49.344  1.00  0.00     0.236 A 
HETATM   10  N1  UNL     1      26.979   5.338  48.739  1.00  0.00    -0.241 NA
HETATM   11  C4  UNL     1      25.869   6.054  48.487  1.00  0.00     0.075 A 
HETATM   12  C3  UNL     1      25.953   7.295  47.859  1.00  0.00     0.072 A 
HETATM   13  C20 UNL     1      24.622   5.586  48.839  1.00  0.00     0.041 A 
HETATM   14  C2  UNL     1      24.789   8.022  47.606  1.00  0.00     0.103 A 
HETATM   15  C22 UNL     1      23.561   7.493  47.987  1.00  0.00     0.102 A 
HETATM   16  C21 UNL     1      23.441   6.264  48.613  1.00  0.00     0.057 A 
BRANCH  14  17
HETATM   17  O1  UNL     1      24.888   9.264  46.976  1.00  0.00    -0.353 OA
HETATM   18  C1  UNL     1      25.438   9.249  45.665  1.00  0.00     0.210 C 
ENDBRANCH  14  17
BRANCH  15  19
HETATM   19  O4  UNL     1      22.460   8.286  47.695  1.00  0.00    -0.353 OA
HETATM   20  C23 UNL     1      21.349   7.783  46.986  1.00  0.00     0.210 C 
ENDBRANCH  15  19
ENDBRANCH   1   7
BRANCH   4  21
HETATM   21  C9  UNL     1      21.158   1.073  52.299  1.00  0.00     0.170 C 
HETATM   22  S1  UNL     1      19.651   0.462  52.117  1.00  0.00    -0.041 SA
BRANCH  21  23
HETATM   23  N5  UNL     1      21.921   0.554  53.379  1.00  0.00    -0.363 N 
HETATM   24  H10 UNL     1      21.710   0.835  54.341  1.00  0.00     0.162 HD
BRANCH  23  25
HETATM   25  C10 UNL     1      23.012  -0.378  53.204  1.00  0.00     0.160 C 
BRANCH  25  26
HETATM   26  C11 UNL     1      24.330   0.253  53.459  1.00  0.00    -0.038 A 
HETATM   27  C12 UNL     1      24.683   1.533  53.067  1.00  0.00     0.012 A 
HETATM   28  C13 UNL     1      25.938   2.027  53.354  1.00  0.00     0.040 A 
HETATM   29  C14 UNL     1      26.875   1.277  54.031  1.00  0.00     0.105 A 
HETATM   30  C15 UNL     1      26.534   0.004  54.426  1.00  0.00     0.105 A 
HETATM   31  O3  UNL     1      28.188   1.559  54.428  1.00  0.00    -0.323 OA
HETATM   32  C16 UNL     1      25.278  -0.500  54.142  1.00  0.00     0.048 A 
HETATM   33  O2  UNL     1      27.659  -0.509  55.078  1.00  0.00    -0.323 OA
HETATM   34  C17 UNL     1      28.772   0.310  54.762  1.00  0.00     0.352 C 
ENDBRANCH  25  26
ENDBRANCH  23  25
ENDBRANCH  21  23
ENDBRANCH   4  21
TORSDOF 7
ENDMDL
