MODEL 1
REMARK VINA RESULT:      -8.3      0.000      0.000
REMARK  4 active torsions:
REMARK  status: ('A' for Active; 'I' for Inactive)
REMARK    1  A    between atoms: N1_2  and  C3_4 
REMARK    2  A    between atoms: C3_4  and  C4_5 
REMARK    3  A    between atoms: C5_6  and  C6_7 
REMARK       I    between atoms: C6_7  and  N2_9 
REMARK    4  A    between atoms: N2_9  and  C7_10 
ROOT
HETATM    1  C7  UNL     1      23.100   2.496  49.787  1.00  0.00     0.127 C 
HETATM    2  C8  UNL     1      24.031   1.912  50.930  1.00  0.00     0.011 C 
HETATM    3  C9  UNL     1      23.991   1.117  52.017  1.00  0.00    -0.012 A 
HETATM    4  C10 UNL     1      25.379   1.100  52.534  1.00  0.00     0.189 A 
HETATM    5  N3  UNL     1      25.602   0.244  53.646  1.00  0.00    -0.295 NA
HETATM    6  C11 UNL     1      24.755  -0.481  54.267  1.00  0.00     0.135 A 
HETATM    7  C12 UNL     1      23.439  -0.373  53.721  1.00  0.00     0.088 A 
HETATM    8  C13 UNL     1      22.469  -1.187  54.439  1.00  0.00     0.103 C 
HETATM    9  N4  UNL     1      21.677  -1.854  55.012  1.00  0.00    -0.191 NA
HETATM   10  C14 UNL     1      22.933   0.317  52.703  1.00  0.00     0.059 A 
HETATM   11  N5  UNL     1      21.498   0.227  52.412  1.00  0.00    -0.375 N 
HETATM   12  C15 UNL     1      21.372   1.440  51.598  1.00  0.00     0.072 A 
HETATM   13  C16 UNL     1      21.294   0.533  50.575  1.00  0.00     0.057 A 
HETATM   14  C17 UNL     1      21.588   1.155  49.390  1.00  0.00    -0.026 A 
HETATM   15  C18 UNL     1      21.714   2.177  50.274  1.00  0.00     0.048 A 
HETATM   16  C19 UNL     1      21.830   3.162  51.175  1.00  0.00    -0.010 A 
HETATM   17 BR1  UNL     1      22.020   4.707  52.191  1.00  0.00    -0.123 Br
HETATM   18  C20 UNL     1      21.522   2.540  52.395  1.00  0.00     0.118 A 
HETATM   19  H17 UNL     1      21.011  -0.605  52.825  1.00  0.00     0.160 HD
ENDROOT
BRANCH   1  20
HETATM   20  N2  UNL     1      23.518   3.715  49.354  1.00  0.00    -0.348 N 
HETATM   21  C6  UNL     1      23.934   4.954  48.900  1.00  0.00     0.241 C 
HETATM   22  O1  UNL     1      23.372   5.389  47.842  1.00  0.00    -0.269 OA
HETATM   23  H11 UNL     1      24.246   3.907  50.145  1.00  0.00     0.163 HD
BRANCH  21  24
HETATM   24  C5  UNL     1      24.813   6.056  49.167  1.00  0.00     0.072 C 
HETATM   25  C4  UNL     1      26.099   5.996  49.018  1.00  0.00     0.008 C 
BRANCH  25  26
HETATM   26  C3  UNL     1      27.292   5.210  48.649  1.00  0.00     0.299 C 
BRANCH  26  27
HETATM   27  N1  UNL     1      28.259   6.077  48.010  1.00  0.00     0.083 N 
HETATM   28  C1  UNL     1      29.566   5.533  48.169  1.00  0.00     0.309 C 
HETATM   29  C2  UNL     1      28.079   7.419  48.498  1.00  0.00     0.309 C 
ENDBRANCH  26  27
ENDBRANCH  25  26
ENDBRANCH  21  24
ENDBRANCH   1  20
TORSDOF 4
ENDMDL
MODEL 2
REMARK VINA RESULT:      -8.2      3.312      6.884
REMARK  4 active torsions:
REMARK  status: ('A' for Active; 'I' for Inactive)
REMARK    1  A    between atoms: N1_2  and  C3_4 
REMARK    2  A    between atoms: C3_4  and  C4_5 
REMARK    3  A    between atoms: C5_6  and  C6_7 
REMARK       I    between atoms: C6_7  and  N2_9 
REMARK    4  A    between atoms: N2_9  and  C7_10 
ROOT
HETATM    1  C7  UNL     1      21.293   2.861  52.205  1.00  0.00     0.127 C 
HETATM    2  C8  UNL     1      22.224   1.671  52.689  1.00  0.00     0.011 C 
HETATM    3  C9  UNL     1      23.522   1.340  52.828  1.00  0.00    -0.012 A 
HETATM    4  C10 UNL     1      23.513  -0.032  53.386  1.00  0.00     0.189 A 
HETATM    5  N3  UNL     1      24.791  -0.567  53.701  1.00  0.00    -0.295 NA
HETATM    6  C11 UNL     1      25.936  -0.029  53.536  1.00  0.00     0.135 A 
HETATM    7  C12 UNL     1      25.848   1.276  52.960  1.00  0.00     0.088 A 
HETATM    8  C13 UNL     1      27.154   1.885  52.756  1.00  0.00     0.103 C 
HETATM    9  N4  UNL     1      28.212   2.389  52.595  1.00  0.00    -0.191 NA
HETATM   10  C14 UNL     1      24.823   2.031  52.578  1.00  0.00     0.059 A 
HETATM   11  N5  UNL     1      25.077   3.348  51.983  1.00  0.00    -0.375 N 
HETATM   12  C15 UNL     1      23.775   3.543  51.337  1.00  0.00     0.072 A 
HETATM   13  C16 UNL     1      23.591   4.420  52.373  1.00  0.00     0.057 A 
HETATM   14  C17 UNL     1      22.252   4.653  52.540  1.00  0.00    -0.026 A 
HETATM   15  C18 UNL     1      22.249   3.782  51.500  1.00  0.00     0.048 A 
HETATM   16  C19 UNL     1      22.285   2.919  50.475  1.00  0.00    -0.010 A 
HETATM   17 BR1  UNL     1      22.046   1.777  49.029  1.00  0.00    -0.123 Br
HETATM   18  C20 UNL     1      23.655   2.678  50.286  1.00  0.00     0.118 A 
HETATM   19  H17 UNL     1      26.029   3.746  52.174  1.00  0.00     0.160 HD
ENDROOT
BRANCH   1  20
HETATM   20  N2  UNL     1      20.113   2.418  51.698  1.00  0.00    -0.348 N 
HETATM   21  C6  UNL     1      18.904   1.981  51.187  1.00  0.00     0.241 C 
HETATM   22  O1  UNL     1      17.930   2.801  51.254  1.00  0.00    -0.269 OA
HETATM   23  H11 UNL     1      20.454   1.432  51.377  1.00  0.00     0.163 HD
BRANCH  21  24
HETATM   24  C5  UNL     1      18.241   0.884  50.542  1.00  0.00     0.072 C 
HETATM   25  C4  UNL     1      17.657  -0.076  51.187  1.00  0.00     0.008 C 
BRANCH  25  26
HETATM   26  C3  UNL     1      17.286  -0.688  52.477  1.00  0.00     0.299 C 
BRANCH  26  27
HETATM   27  N1  UNL     1      18.349  -1.564  52.918  1.00  0.00     0.083 N 
HETATM   28  C1  UNL     1      17.800  -2.640  53.674  1.00  0.00     0.309 C 
HETATM   29  C2  UNL     1      19.353  -0.780  53.588  1.00  0.00     0.309 C 
ENDBRANCH  26  27
ENDBRANCH  25  26
ENDBRANCH  21  24
ENDBRANCH   1  20
TORSDOF 4
ENDMDL
MODEL 3
REMARK VINA RESULT:      -8.1      2.454      6.685
REMARK  4 active torsions:
REMARK  status: ('A' for Active; 'I' for Inactive)
REMARK    1  A    between atoms: N1_2  and  C3_4 
REMARK    2  A    between atoms: C3_4  and  C4_5 
REMARK    3  A    between atoms: C5_6  and  C6_7 
REMARK       I    between atoms: C6_7  and  N2_9 
REMARK    4  A    between atoms: N2_9  and  C7_10 
ROOT
HETATM    1  C7  UNL     1      23.561   3.098  52.290  1.00  0.00     0.127 C 
HETATM    2  C8  UNL     1      24.847   3.290  51.381  1.00  0.00     0.011 C 
HETATM    3  C9  UNL     1      25.347   4.089  50.419  1.00  0.00    -0.012 A 
HETATM    4  C10 UNL     1      26.686   3.534  50.113  1.00  0.00     0.189 A 
HETATM    5  N3  UNL     1      27.449   4.275  49.171  1.00  0.00    -0.295 NA
HETATM    6  C11 UNL     1      27.114   5.332  48.540  1.00  0.00     0.135 A 
HETATM    7  C12 UNL     1      25.796   5.773  48.872  1.00  0.00     0.088 A 
HETATM    8  C13 UNL     1      25.406   6.969  48.140  1.00  0.00     0.103 C 
HETATM    9  N4  UNL     1      25.087   7.947  47.556  1.00  0.00    -0.191 NA
HETATM   10  C14 UNL     1      24.868   5.309  49.703  1.00  0.00     0.059 A 
HETATM   11  N5  UNL     1      23.574   5.994  49.796  1.00  0.00    -0.375 N 
HETATM   12  C15 UNL     1      22.804   4.908  50.411  1.00  0.00     0.072 A 
HETATM   13  C16 UNL     1      22.920   5.695  51.526  1.00  0.00     0.057 A 
HETATM   14  C17 UNL     1      22.701   4.936  52.645  1.00  0.00    -0.026 A 
HETATM   15  C18 UNL     1      22.553   4.016  51.658  1.00  0.00     0.048 A 
HETATM   16  C19 UNL     1      22.415   3.135  50.657  1.00  0.00    -0.010 A 
HETATM   17 BR1  UNL     1      22.132   1.727  49.478  1.00  0.00    -0.123 Br
HETATM   18  C20 UNL     1      22.628   3.904  49.501  1.00  0.00     0.118 A 
HETATM   19  H17 UNL     1      23.564   6.979  49.435  1.00  0.00     0.160 HD
ENDROOT
BRANCH   1  20
HETATM   20  N2  UNL     1      23.345   1.795  52.608  1.00  0.00    -0.348 N 
HETATM   21  C6  UNL     1      23.109   0.469  52.925  1.00  0.00     0.241 C 
HETATM   22  O1  UNL     1      22.001  -0.021  52.529  1.00  0.00    -0.269 OA
HETATM   23  H11 UNL     1      24.288   1.614  53.128  1.00  0.00     0.163 HD
BRANCH  21  24
HETATM   24  C5  UNL     1      23.660  -0.690  53.567  1.00  0.00     0.072 C 
HETATM   25  C4  UNL     1      24.794  -0.688  54.193  1.00  0.00     0.008 C 
BRANCH  25  26
HETATM   26  C3  UNL     1      25.992   0.051  54.634  1.00  0.00     0.299 C 
BRANCH  26  27
HETATM   27  N1  UNL     1      27.123  -0.332  53.818  1.00  0.00     0.083 N 
HETATM   28  C1  UNL     1      28.333  -0.043  54.511  1.00  0.00     0.309 C 
HETATM   29  C2  UNL     1      26.989   0.275  52.519  1.00  0.00     0.309 C 
ENDBRANCH  26  27
ENDBRANCH  25  26
ENDBRANCH  21  24
ENDBRANCH   1  20
TORSDOF 4
ENDMDL
MODEL 4
REMARK VINA RESULT:      -8.1      3.672      6.025
REMARK  4 active torsions:
REMARK  status: ('A' for Active; 'I' for Inactive)
REMARK    1  A    between atoms: N1_2  and  C3_4 
REMARK    2  A    between atoms: C3_4  and  C4_5 
REMARK    3  A    between atoms: C5_6  and  C6_7 
REMARK       I    between atoms: C6_7  and  N2_9 
REMARK    4  A    between atoms: N2_9  and  C7_10 
ROOT
HETATM    1  C7  UNL     1      24.239   3.436  51.344  1.00  0.00     0.127 C 
HETATM    2  C8  UNL     1      23.380   3.053  50.066  1.00  0.00     0.011 C 
HETATM    3  C9  UNL     1      22.121   3.098  49.591  1.00  0.00    -0.012 A 
HETATM    4  C10 UNL     1      22.196   2.501  48.238  1.00  0.00     0.189 A 
HETATM    5  N3  UNL     1      20.983   2.519  47.498  1.00  0.00    -0.295 NA
HETATM    6  C11 UNL     1      19.841   2.954  47.864  1.00  0.00     0.135 A 
HETATM    7  C12 UNL     1      19.856   3.478  49.194  1.00  0.00     0.088 A 
HETATM    8  C13 UNL     1      18.550   3.959  49.619  1.00  0.00     0.103 C 
HETATM    9  N4  UNL     1      17.493   4.361  49.967  1.00  0.00    -0.191 NA
HETATM   10  C14 UNL     1      20.814   3.607  50.107  1.00  0.00     0.059 A 
HETATM   11  N5  UNL     1      20.489   4.176  51.420  1.00  0.00    -0.375 N 
HETATM   12  C15 UNL     1      21.658   3.685  52.157  1.00  0.00     0.072 A 
HETATM   13  C16 UNL     1      22.048   4.994  52.061  1.00  0.00     0.057 A 
HETATM   14  C17 UNL     1      23.401   5.083  52.256  1.00  0.00    -0.026 A 
HETATM   15  C18 UNL     1      23.194   3.747  52.379  1.00  0.00     0.048 A 
HETATM   16  C19 UNL     1      22.952   2.434  52.495  1.00  0.00    -0.010 A 
HETATM   17 BR1  UNL     1      22.899   0.593  52.741  1.00  0.00    -0.123 Br
HETATM   18  C20 UNL     1      21.565   2.330  52.306  1.00  0.00     0.118 A 
HETATM   19  H17 UNL     1      19.598   4.727  51.458  1.00  0.00     0.160 HD
ENDROOT
BRANCH   1  20
HETATM   20  N2  UNL     1      25.297   2.603  51.523  1.00  0.00    -0.348 N 
HETATM   21  C6  UNL     1      26.385   1.768  51.704  1.00  0.00     0.241 C 
HETATM   22  O1  UNL     1      27.524   2.332  51.795  1.00  0.00    -0.269 OA
HETATM   23  H11 UNL     1      24.741   1.663  51.535  1.00  0.00     0.163 HD
BRANCH  21  24
HETATM   24  C5  UNL     1      26.789   0.400  51.857  1.00  0.00     0.072 C 
HETATM   25  C4  UNL     1      27.166  -0.112  52.985  1.00  0.00     0.008 C 
BRANCH  25  26
HETATM   26  C3  UNL     1      27.424   0.062  54.427  1.00  0.00     0.299 C 
BRANCH  26  27
HETATM   27  N1  UNL     1      28.852   0.121  54.656  1.00  0.00     0.083 N 
HETATM   28  C1  UNL     1      29.301   1.468  54.532  1.00  0.00     0.309 C 
HETATM   29  C2  UNL     1      29.503  -0.833  53.798  1.00  0.00     0.309 C 
ENDBRANCH  26  27
ENDBRANCH  25  26
ENDBRANCH  21  24
ENDBRANCH   1  20
TORSDOF 4
ENDMDL
MODEL 5
REMARK VINA RESULT:      -8.0      3.824      6.619
REMARK  4 active torsions:
REMARK  status: ('A' for Active; 'I' for Inactive)
REMARK    1  A    between atoms: N1_2  and  C3_4 
REMARK    2  A    between atoms: C3_4  and  C4_5 
REMARK    3  A    between atoms: C5_6  and  C6_7 
REMARK       I    between atoms: C6_7  and  N2_9 
REMARK    4  A    between atoms: N2_9  and  C7_10 
ROOT
HETATM    1  C7  UNL     1      20.771   3.035  52.367  1.00  0.00     0.127 C 
HETATM    2  C8  UNL     1      20.895   1.702  53.216  1.00  0.00     0.011 C 
HETATM    3  C9  UNL     1      21.798   0.780  53.604  1.00  0.00    -0.012 A 
HETATM    4  C10 UNL     1      21.035  -0.184  54.431  1.00  0.00     0.189 A 
HETATM    5  N3  UNL     1      21.809  -1.215  55.029  1.00  0.00    -0.295 NA
HETATM    6  C11 UNL     1      23.062  -1.428  54.918  1.00  0.00     0.135 A 
HETATM    7  C12 UNL     1      23.706  -0.471  54.074  1.00  0.00     0.088 A 
HETATM    8  C13 UNL     1      25.133  -0.723  53.934  1.00  0.00     0.103 C 
HETATM    9  N4  UNL     1      26.295  -0.916  53.822  1.00  0.00    -0.191 NA
HETATM   10  C14 UNL     1      23.265   0.587  53.401  1.00  0.00     0.059 A 
HETATM   11  N5  UNL     1      24.202   1.367  52.586  1.00  0.00    -0.375 N 
HETATM   12  C15 UNL     1      23.223   2.052  51.735  1.00  0.00     0.072 A 
HETATM   13  C16 UNL     1      23.547   3.121  52.527  1.00  0.00     0.057 A 
HETATM   14  C17 UNL     1      22.555   4.062  52.450  1.00  0.00    -0.026 A 
HETATM   15  C18 UNL     1      22.078   3.095  51.627  1.00  0.00     0.048 A 
HETATM   16  C19 UNL     1      21.638   2.118  50.821  1.00  0.00    -0.010 A 
HETATM   17 BR1  UNL     1      20.815   0.955  49.628  1.00  0.00    -0.123 Br
HETATM   18  C20 UNL     1      22.652   1.149  50.883  1.00  0.00     0.118 A 
HETATM   19  H17 UNL     1      25.216   1.233  52.821  1.00  0.00     0.160 HD
ENDROOT
BRANCH   1  20
HETATM   20  N2  UNL     1      19.543   3.174  51.802  1.00  0.00    -0.348 N 
HETATM   21  C6  UNL     1      18.287   3.324  51.242  1.00  0.00     0.241 C 
HETATM   22  O1  UNL     1      17.440   3.997  51.916  1.00  0.00    -0.269 OA
HETATM   23  H11 UNL     1      19.741   2.616  50.885  1.00  0.00     0.163 HD
BRANCH  21  24
HETATM   24  C5  UNL     1      17.477   3.011  50.099  1.00  0.00     0.072 C 
HETATM   25  C4  UNL     1      17.062   1.815  49.824  1.00  0.00     0.008 C 
BRANCH  25  26
HETATM   26  C3  UNL     1      17.014   0.383  50.176  1.00  0.00     0.299 C 
BRANCH  26  27
HETATM   27  N1  UNL     1      17.004   0.242  51.616  1.00  0.00     0.083 N 
HETATM   28  C1  UNL     1      18.142  -0.508  52.031  1.00  0.00     0.309 C 
HETATM   29  C2  UNL     1      15.728  -0.286  52.025  1.00  0.00     0.309 C 
ENDBRANCH  26  27
ENDBRANCH  25  26
ENDBRANCH  21  24
ENDBRANCH   1  20
TORSDOF 4
ENDMDL
MODEL 6
REMARK VINA RESULT:      -7.9      1.752      2.726
REMARK  4 active torsions:
REMARK  status: ('A' for Active; 'I' for Inactive)
REMARK    1  A    between atoms: N1_2  and  C3_4 
REMARK    2  A    between atoms: C3_4  and  C4_5 
REMARK    3  A    between atoms: C5_6  and  C6_7 
REMARK       I    between atoms: C6_7  and  N2_9 
REMARK    4  A    between atoms: N2_9  and  C7_10 
ROOT
HETATM    1  C7  UNL     1      24.169   2.703  50.193  1.00  0.00     0.127 C 
HETATM    2  C8  UNL     1      24.850   1.857  51.349  1.00  0.00     0.011 C 
HETATM    3  C9  UNL     1      24.548   1.009  52.351  1.00  0.00    -0.012 A 
HETATM    4  C10 UNL     1      25.848   0.667  52.974  1.00  0.00     0.189 A 
HETATM    5  N3  UNL     1      25.787  -0.296  54.016  1.00  0.00    -0.295 NA
HETATM    6  C11 UNL     1      24.758  -0.874  54.499  1.00  0.00     0.135 A 
HETATM    7  C12 UNL     1      23.548  -0.457  53.862  1.00  0.00     0.088 A 
HETATM    8  C13 UNL     1      22.371  -1.104  54.422  1.00  0.00     0.103 C 
HETATM    9  N4  UNL     1      21.411  -1.632  54.867  1.00  0.00    -0.191 NA
HETATM   10  C14 UNL     1      23.291   0.396  52.875  1.00  0.00     0.059 A 
HETATM   11  N5  UNL     1      21.902   0.627  52.463  1.00  0.00    -0.375 N 
HETATM   12  C15 UNL     1      22.099   1.896  51.757  1.00  0.00     0.072 A 
HETATM   13  C16 UNL     1      21.941   1.103  50.652  1.00  0.00     0.057 A 
HETATM   14  C17 UNL     1      22.466   1.736  49.557  1.00  0.00    -0.026 A 
HETATM   15  C18 UNL     1      22.707   2.642  50.537  1.00  0.00     0.048 A 
HETATM   16  C19 UNL     1      22.930   3.513  51.532  1.00  0.00    -0.010 A 
HETATM   17 BR1  UNL     1      23.325   4.905  52.697  1.00  0.00    -0.123 Br
HETATM   18  C20 UNL     1      22.387   2.879  52.661  1.00  0.00     0.118 A 
HETATM   19  H17 UNL     1      21.221  -0.115  52.758  1.00  0.00     0.160 HD
ENDROOT
BRANCH   1  20
HETATM   20  N2  UNL     1      24.862   3.837  49.909  1.00  0.00    -0.348 N 
HETATM   21  C6  UNL     1      25.578   4.983  49.612  1.00  0.00     0.241 C 
HETATM   22  O1  UNL     1      26.621   4.830  48.895  1.00  0.00    -0.269 OA
HETATM   23  H11 UNL     1      24.213   4.539  50.437  1.00  0.00     0.163 HD
BRANCH  21  24
HETATM   24  C5  UNL     1      25.623   6.406  49.788  1.00  0.00     0.072 C 
HETATM   25  C4  UNL     1      24.662   7.200  49.438  1.00  0.00     0.008 C 
BRANCH  25  26
HETATM   26  C3  UNL     1      23.323   7.377  48.845  1.00  0.00     0.299 C 
BRANCH  26  27
HETATM   27  N1  UNL     1      22.377   6.520  49.528  1.00  0.00     0.083 N 
HETATM   28  C1  UNL     1      21.754   5.650  48.587  1.00  0.00     0.309 C 
HETATM   29  C2  UNL     1      21.484   7.336  50.307  1.00  0.00     0.309 C 
ENDBRANCH  26  27
ENDBRANCH  25  26
ENDBRANCH  21  24
ENDBRANCH   1  20
TORSDOF 4
ENDMDL
MODEL 7
REMARK VINA RESULT:      -7.8      2.887      4.796
REMARK  4 active torsions:
REMARK  status: ('A' for Active; 'I' for Inactive)
REMARK    1  A    between atoms: N1_2  and  C3_4 
REMARK    2  A    between atoms: C3_4  and  C4_5 
REMARK    3  A    between atoms: C5_6  and  C6_7 
REMARK       I    between atoms: C6_7  and  N2_9 
REMARK    4  A    between atoms: N2_9  and  C7_10 
ROOT
HETATM    1  C7  UNL     1      23.045   1.560  50.421  1.00  0.00     0.127 C 
HETATM    2  C8  UNL     1      22.361   0.706  51.570  1.00  0.00     0.011 C 
HETATM    3  C9  UNL     1      21.150   0.322  52.017  1.00  0.00    -0.012 A 
HETATM    4  C10 UNL     1      21.425  -0.515  53.208  1.00  0.00     0.189 A 
HETATM    5  N3  UNL     1      20.284  -1.111  53.808  1.00  0.00    -0.295 NA
HETATM    6  C11 UNL     1      19.060  -0.991  53.470  1.00  0.00     0.135 A 
HETATM    7  C12 UNL     1      18.888  -0.139  52.335  1.00  0.00     0.088 A 
HETATM    8  C13 UNL     1      17.490   0.012  51.958  1.00  0.00     0.103 C 
HETATM    9  N4  UNL     1      16.357   0.132  51.640  1.00  0.00    -0.191 NA
HETATM   10  C14 UNL     1      19.741   0.536  51.570  1.00  0.00     0.059 A 
HETATM   11  N5  UNL     1      19.228   1.361  50.471  1.00  0.00    -0.375 N 
HETATM   12  C15 UNL     1      20.410   2.207  50.273  1.00  0.00     0.072 A 
HETATM   13  C16 UNL     1      20.567   1.421  49.163  1.00  0.00     0.057 A 
HETATM   14  C17 UNL     1      21.866   1.494  48.733  1.00  0.00    -0.026 A 
HETATM   15  C18 UNL     1      21.891   2.310  49.817  1.00  0.00     0.048 A 
HETATM   16  C19 UNL     1      21.878   3.109  50.893  1.00  0.00    -0.010 A 
HETATM   17 BR1  UNL     1      22.135   4.290  52.305  1.00  0.00    -0.123 Br
HETATM   18  C20 UNL     1      20.548   3.050  51.339  1.00  0.00     0.118 A 
HETATM   19  H17 UNL     1      18.253   1.133  50.160  1.00  0.00     0.160 HD
ENDROOT
BRANCH   1  20
HETATM   20  N2  UNL     1      24.218   2.115  50.822  1.00  0.00    -0.348 N 
HETATM   21  C6  UNL     1      25.410   2.695  51.220  1.00  0.00     0.241 C 
HETATM   22  O1  UNL     1      25.618   3.890  50.830  1.00  0.00    -0.269 OA
HETATM   23  H11 UNL     1      24.593   1.265  51.394  1.00  0.00     0.163 HD
BRANCH  21  24
HETATM   24  C5  UNL     1      26.613   2.482  51.974  1.00  0.00     0.072 C 
HETATM   25  C4  UNL     1      27.035   1.310  52.329  1.00  0.00     0.008 C 
BRANCH  25  26
HETATM   26  C3  UNL     1      26.843  -0.152  52.336  1.00  0.00     0.299 C 
BRANCH  26  27
HETATM   27  N1  UNL     1      26.511  -0.587  53.676  1.00  0.00     0.083 N 
HETATM   28  C1  UNL     1      25.114  -0.418  53.901  1.00  0.00     0.309 C 
HETATM   29  C2  UNL     1      27.378   0.079  54.612  1.00  0.00     0.309 C 
ENDBRANCH  26  27
ENDBRANCH  25  26
ENDBRANCH  21  24
ENDBRANCH   1  20
TORSDOF 4
ENDMDL
MODEL 8
REMARK VINA RESULT:      -7.7      2.806      7.039
REMARK  4 active torsions:
REMARK  status: ('A' for Active; 'I' for Inactive)
REMARK    1  A    between atoms: N1_2  and  C3_4 
REMARK    2  A    between atoms: C3_4  and  C4_5 
REMARK    3  A    between atoms: C5_6  and  C6_7 
REMARK       I    between atoms: C6_7  and  N2_9 
REMARK    4  A    between atoms: N2_9  and  C7_10 
ROOT
HETATM    1  C7  UNL     1      24.814   2.810  50.217  1.00  0.00     0.127 C 
HETATM    2  C8  UNL     1      23.606   3.162  49.251  1.00  0.00     0.011 C 
HETATM    3  C9  UNL     1      23.128   4.162  48.485  1.00  0.00    -0.012 A 
HETATM    4  C10 UNL     1      21.883   3.627  47.885  1.00  0.00     0.189 A 
HETATM    5  N3  UNL     1      21.238   4.489  46.957  1.00  0.00    -0.295 NA
HETATM    6  C11 UNL     1      21.579   5.666  46.603  1.00  0.00     0.135 A 
HETATM    7  C12 UNL     1      22.768   6.111  47.259  1.00  0.00     0.088 A 
HETATM    8  C13 UNL     1      23.149   7.460  46.869  1.00  0.00     0.103 C 
HETATM    9  N4  UNL     1      23.469   8.553  46.549  1.00  0.00    -0.191 NA
HETATM   10  C14 UNL     1      23.582   5.544  48.144  1.00  0.00     0.059 A 
HETATM   11  N5  UNL     1      24.733   6.297  48.654  1.00  0.00    -0.375 N 
HETATM   12  C15 UNL     1      24.994   5.496  49.855  1.00  0.00     0.072 A 
HETATM   13  C16 UNL     1      26.048   5.043  49.109  1.00  0.00     0.057 A 
HETATM   14  C17 UNL     1      26.488   3.850  49.618  1.00  0.00    -0.026 A 
HETATM   15  C18 UNL     1      25.463   4.144  50.457  1.00  0.00     0.048 A 
HETATM   16  C19 UNL     1      24.444   4.466  51.266  1.00  0.00    -0.010 A 
HETATM   17 BR1  UNL     1      23.119   4.683  52.551  1.00  0.00    -0.123 Br
HETATM   18  C20 UNL     1      23.989   5.694  50.760  1.00  0.00     0.118 A 
HETATM   19  H17 UNL     1      25.023   7.117  48.069  1.00  0.00     0.160 HD
ENDROOT
BRANCH   1  20
HETATM   20  N2  UNL     1      24.458   1.924  51.184  1.00  0.00    -0.348 N 
HETATM   21  C6  UNL     1      24.079   1.025  52.165  1.00  0.00     0.241 C 
HETATM   22  O1  UNL     1      22.829   0.804  52.280  1.00  0.00    -0.269 OA
HETATM   23  H11 UNL     1      25.462   1.691  51.543  1.00  0.00     0.163 HD
BRANCH  21  24
HETATM   24  C5  UNL     1      24.566   0.152  53.194  1.00  0.00     0.072 C 
HETATM   25  C4  UNL     1      25.771  -0.323  53.217  1.00  0.00     0.008 C 
BRANCH  25  26
HETATM   26  C3  UNL     1      27.103  -0.416  52.590  1.00  0.00     0.299 C 
BRANCH  26  27
HETATM   27  N1  UNL     1      28.019   0.473  53.273  1.00  0.00     0.083 N 
HETATM   28  C1  UNL     1      27.979   0.217  54.674  1.00  0.00     0.309 C 
HETATM   29  C2  UNL     1      27.737   1.828  52.879  1.00  0.00     0.309 C 
ENDBRANCH  26  27
ENDBRANCH  25  26
ENDBRANCH  21  24
ENDBRANCH   1  20
TORSDOF 4
ENDMDL
MODEL 9
REMARK VINA RESULT:      -7.6      1.701      2.079
REMARK  4 active torsions:
REMARK  status: ('A' for Active; 'I' for Inactive)
REMARK    1  A    between atoms: N1_2  and  C3_4 
REMARK    2  A    between atoms: C3_4  and  C4_5 
REMARK    3  A    between atoms: C5_6  and  C6_7 
REMARK       I    between atoms: C6_7  and  N2_9 
REMARK    4  A    between atoms: N2_9  and  C7_10 
ROOT
HETATM    1  C7  UNL     1      23.454   3.103  49.745  1.00  0.00     0.127 C 
HETATM    2  C8  UNL     1      24.856   2.841  50.440  1.00  0.00     0.011 C 
HETATM    3  C9  UNL     1      25.417   2.154  51.453  1.00  0.00    -0.012 A 
HETATM    4  C10 UNL     1      26.859   2.491  51.398  1.00  0.00     0.189 A 
HETATM    5  N3  UNL     1      27.678   1.806  52.334  1.00  0.00    -0.295 NA
HETATM    6  C11 UNL     1      27.326   0.967  53.228  1.00  0.00     0.135 A 
HETATM    7  C12 UNL     1      25.916   0.732  53.230  1.00  0.00     0.088 A 
HETATM    8  C13 UNL     1      25.509  -0.213  54.261  1.00  0.00     0.103 C 
HETATM    9  N4  UNL     1      25.174  -0.986  55.090  1.00  0.00    -0.191 NA
HETATM   10  C14 UNL     1      24.917   1.201  52.489  1.00  0.00     0.059 A 
HETATM   11  N5  UNL     1      23.543   0.770  52.771  1.00  0.00    -0.375 N 
HETATM   12  C15 UNL     1      22.836   1.849  52.075  1.00  0.00     0.072 A 
HETATM   13  C16 UNL     1      22.600   0.862  51.155  1.00  0.00     0.057 A 
HETATM   14  C17 UNL     1      22.272   1.429  49.952  1.00  0.00    -0.026 A 
HETATM   15  C18 UNL     1      22.471   2.526  50.725  1.00  0.00     0.048 A 
HETATM   16  C19 UNL     1      22.677   3.587  51.518  1.00  0.00    -0.010 A 
HETATM   17 BR1  UNL     1      22.859   5.217  52.392  1.00  0.00    -0.123 Br
HETATM   18  C20 UNL     1      23.006   3.019  52.760  1.00  0.00     0.118 A 
HETATM   19  H17 UNL     1      23.460  -0.111  53.334  1.00  0.00     0.160 HD
ENDROOT
BRANCH   1  20
HETATM   20  N2  UNL     1      23.376   4.341  49.192  1.00  0.00    -0.348 N 
HETATM   21  C6  UNL     1      23.280   5.602  48.632  1.00  0.00     0.241 C 
HETATM   22  O1  UNL     1      22.119   6.128  48.612  1.00  0.00    -0.269 OA
HETATM   23  H11 UNL     1      24.434   4.458  48.949  1.00  0.00     0.163 HD
BRANCH  21  24
HETATM   24  C5  UNL     1      24.026   6.663  48.016  1.00  0.00     0.072 C 
HETATM   25  C4  UNL     1      25.278   6.889  48.259  1.00  0.00     0.008 C 
BRANCH  25  26
HETATM   26  C3  UNL     1      26.510   6.524  48.984  1.00  0.00     0.299 C 
BRANCH  26  27
HETATM   27  N1  UNL     1      27.412   7.655  48.999  1.00  0.00     0.083 N 
HETATM   28  C1  UNL     1      26.908   8.658  49.876  1.00  0.00     0.309 C 
HETATM   29  C2  UNL     1      27.655   8.078  47.644  1.00  0.00     0.309 C 
ENDBRANCH  26  27
ENDBRANCH  25  26
ENDBRANCH  21  24
ENDBRANCH   1  20
TORSDOF 4
ENDMDL
