MODEL 1
REMARK VINA RESULT:      -7.6      0.000      0.000
REMARK  6 active torsions:
REMARK  status: ('A' for Active; 'I' for Inactive)
REMARK    1  A    between atoms: C2_2  and  C3_3 
REMARK    2  A    between atoms: C2_2  and  C6_7 
REMARK    3  A    between atoms: C3_3  and  N1_4 
REMARK    4  A    between atoms: C6_7  and  C7_9 
REMARK    5  A    between atoms: C10_12  and  C11_13 
REMARK    6  A    between atoms: C11_13  and  C12_14 
ROOT
HETATM    1  C7  UNL     1      23.930  -0.398  54.369  1.00  0.00     0.087 C 
HETATM    2  C8  UNL     1      23.578  -0.509  52.896  1.00  0.00     0.042 C 
HETATM    3  C9  UNL     1      22.104  -0.245  52.722  1.00  0.00    -0.017 C 
HETATM    4  C10 UNL     1      20.932  -0.637  53.255  1.00  0.00    -0.037 C 
HETATM    5  C18 UNL     1      21.060  -1.663  54.357  1.00  0.00     0.206 C 
HETATM    6  O2  UNL     1      21.847  -1.090  55.349  1.00  0.00    -0.386 OA
HETATM    7  C19 UNL     1      23.188  -1.424  55.183  1.00  0.00     0.180 C 
ENDROOT
BRANCH   4   8
HETATM    8  C11 UNL     1      19.618  -0.201  52.876  1.00  0.00     0.021 C 
BRANCH   8   9
HETATM    9  C12 UNL     1      18.491  -0.327  52.220  1.00  0.00    -0.030 A 
HETATM   10  C13 UNL     1      17.448  -1.047  52.887  1.00  0.00     0.013 A 
HETATM   11  C14 UNL     1      16.238  -1.314  52.473  1.00  0.00     0.009 A 
HETATM   12  P1  UNL     1      15.797  -0.695  50.817  1.00  0.00    -0.082 P 
HETATM   13  C15 UNL     1      17.247   0.173  50.164  1.00  0.00     0.015 A 
HETATM   14  H18 UNL     1      15.574  -1.858  49.950  1.00  0.00     0.066 HD
HETATM   15  C16 UNL     1      18.316   0.230  50.908  1.00  0.00    -0.051 A 
HETATM   16  C17 UNL     1      19.449   0.974  50.262  1.00  0.00     0.049 C 
ENDBRANCH   8   9
ENDBRANCH   4   8
BRANCH   1  17
HETATM   17  C6  UNL     1      25.376  -0.665  54.483  1.00  0.00     0.163 C 
HETATM   18  O1  UNL     1      25.175  -1.194  55.589  1.00  0.00    -0.292 OA
BRANCH  17  19
HETATM   19  C2  UNL     1      26.588  -0.458  53.720  1.00  0.00     0.007 C 
HETATM   20  C1  UNL     1      26.904  -1.404  52.853  1.00  0.00     0.024 C 
BRANCH  19  21
HETATM   21  C3  UNL     1      27.204   0.819  54.110  1.00  0.00     0.312 C 
BRANCH  21  22
HETATM   22  N1  UNL     1      27.804   1.530  53.032  1.00  0.00     0.084 N 
HETATM   23  C4  UNL     1      26.909   2.178  52.128  1.00  0.00     0.309 C 
HETATM   24  C5  UNL     1      28.749   2.483  53.574  1.00  0.00     0.309 C 
ENDBRANCH  21  22
ENDBRANCH  19  21
ENDBRANCH  17  19
ENDBRANCH   1  17
TORSDOF 6
ENDMDL
MODEL 2
REMARK VINA RESULT:      -7.6      1.582      2.253
REMARK  6 active torsions:
REMARK  status: ('A' for Active; 'I' for Inactive)
REMARK    1  A    between atoms: C2_2  and  C3_3 
REMARK    2  A    between atoms: C2_2  and  C6_7 
REMARK    3  A    between atoms: C3_3  and  N1_4 
REMARK    4  A    between atoms: C6_7  and  C7_9 
REMARK    5  A    between atoms: C10_12  and  C11_13 
REMARK    6  A    between atoms: C11_13  and  C12_14 
ROOT
HETATM    1  C7  UNL     1      23.332  -0.807  53.405  1.00  0.00     0.087 C 
HETATM    2  C8  UNL     1      22.530  -0.987  54.683  1.00  0.00     0.042 C 
HETATM    3  C9  UNL     1      21.068  -1.098  54.333  1.00  0.00    -0.017 C 
HETATM    4  C10 UNL     1      20.149  -0.454  53.590  1.00  0.00    -0.037 C 
HETATM    5  C18 UNL     1      20.673   0.769  52.872  1.00  0.00     0.206 C 
HETATM    6  O2  UNL     1      21.710   0.340  52.052  1.00  0.00    -0.386 OA
HETATM    7  C19 UNL     1      22.940   0.458  52.692  1.00  0.00     0.180 C 
ENDROOT
BRANCH   4   8
HETATM    8  C11 UNL     1      18.764  -0.797  53.433  1.00  0.00     0.021 C 
BRANCH   8   9
HETATM    9  C12 UNL     1      17.793  -1.633  53.165  1.00  0.00    -0.030 A 
HETATM   10  C13 UNL     1      17.902  -2.937  53.749  1.00  0.00     0.013 A 
HETATM   11  C14 UNL     1      17.086  -3.953  53.652  1.00  0.00     0.009 A 
HETATM   12  P1  UNL     1      15.595  -3.696  52.637  1.00  0.00    -0.082 P 
HETATM   13  C15 UNL     1      15.662  -2.001  52.003  1.00  0.00     0.015 A 
HETATM   14  H18 UNL     1      15.689  -4.587  51.473  1.00  0.00     0.066 HD
HETATM   15  C16 UNL     1      16.683  -1.260  52.334  1.00  0.00    -0.051 A 
HETATM   16  C17 UNL     1      16.626   0.123  51.752  1.00  0.00     0.049 C 
ENDBRANCH   8   9
ENDBRANCH   4   8
BRANCH   1  17
HETATM   17  C6  UNL     1      24.748  -0.704  53.802  1.00  0.00     0.163 C 
HETATM   18  O1  UNL     1      24.425  -0.990  54.968  1.00  0.00    -0.292 OA
BRANCH  17  19
HETATM   19  C2  UNL     1      26.032  -0.411  53.203  1.00  0.00     0.007 C 
HETATM   20  C1  UNL     1      26.466  -1.270  52.297  1.00  0.00     0.024 C 
BRANCH  19  21
HETATM   21  C3  UNL     1      26.569   0.834  53.771  1.00  0.00     0.312 C 
BRANCH  21  22
HETATM   22  N1  UNL     1      27.988   0.933  53.721  1.00  0.00     0.084 N 
HETATM   23  C4  UNL     1      28.524   2.249  53.587  1.00  0.00     0.309 C 
HETATM   24  C5  UNL     1      28.541   0.282  54.890  1.00  0.00     0.309 C 
ENDBRANCH  21  22
ENDBRANCH  19  21
ENDBRANCH  17  19
ENDBRANCH   1  17
TORSDOF 6
ENDMDL
MODEL 3
REMARK VINA RESULT:      -7.5      5.362      7.970
REMARK  6 active torsions:
REMARK  status: ('A' for Active; 'I' for Inactive)
REMARK    1  A    between atoms: C2_2  and  C3_3 
REMARK    2  A    between atoms: C2_2  and  C6_7 
REMARK    3  A    between atoms: C3_3  and  N1_4 
REMARK    4  A    between atoms: C6_7  and  C7_9 
REMARK    5  A    between atoms: C10_12  and  C11_13 
REMARK    6  A    between atoms: C11_13  and  C12_14 
ROOT
HETATM    1  C7  UNL     1      25.535   1.580  52.175  1.00  0.00     0.087 C 
HETATM    2  C8  UNL     1      26.641   1.686  51.139  1.00  0.00     0.042 C 
HETATM    3  C9  UNL     1      26.547   3.026  50.455  1.00  0.00    -0.017 C 
HETATM    4  C10 UNL     1      25.622   3.802  49.863  1.00  0.00    -0.037 C 
HETATM    5  C18 UNL     1      24.235   3.200  49.825  1.00  0.00     0.206 C 
HETATM    6  O2  UNL     1      23.863   2.965  51.142  1.00  0.00    -0.386 OA
HETATM    7  C19 UNL     1      24.178   1.666  51.530  1.00  0.00     0.180 C 
ENDROOT
BRANCH   4   8
HETATM    8  C11 UNL     1      25.822   5.094  49.270  1.00  0.00     0.021 C 
BRANCH   8   9
HETATM    9  C12 UNL     1      26.410   6.261  49.188  1.00  0.00    -0.030 A 
HETATM   10  C13 UNL     1      27.546   6.337  48.318  1.00  0.00     0.013 A 
HETATM   11  C14 UNL     1      28.308   7.363  48.048  1.00  0.00     0.009 A 
HETATM   12  P1  UNL     1      27.885   8.924  48.885  1.00  0.00    -0.082 P 
HETATM   13  C15 UNL     1      26.437   8.602  49.924  1.00  0.00     0.015 A 
HETATM   14  H18 UNL     1      28.990   9.259  49.792  1.00  0.00     0.066 HD
HETATM   15  C16 UNL     1      25.938   7.397  49.928  1.00  0.00    -0.051 A 
HETATM   16  C17 UNL     1      24.742   7.253  50.823  1.00  0.00     0.049 C 
ENDBRANCH   8   9
ENDBRANCH   4   8
BRANCH   1  17
HETATM   17  C6  UNL     1      25.672   0.256  52.810  1.00  0.00     0.163 C 
HETATM   18  O1  UNL     1      24.452   0.263  53.048  1.00  0.00    -0.292 OA
BRANCH  17  19
HETATM   19  C2  UNL     1      26.702  -0.719  53.092  1.00  0.00     0.007 C 
HETATM   20  C1  UNL     1      26.654  -1.841  52.396  1.00  0.00     0.024 C 
BRANCH  19  21
HETATM   21  C3  UNL     1      27.601  -0.200  54.133  1.00  0.00     0.312 C 
BRANCH  21  22
HETATM   22  N1  UNL     1      28.807   0.368  53.631  1.00  0.00     0.084 N 
HETATM   23  C4  UNL     1      29.207   1.610  54.209  1.00  0.00     0.309 C 
HETATM   24  C5  UNL     1      29.867  -0.609  53.756  1.00  0.00     0.309 C 
ENDBRANCH  21  22
ENDBRANCH  19  21
ENDBRANCH  17  19
ENDBRANCH   1  17
TORSDOF 6
ENDMDL
MODEL 4
REMARK VINA RESULT:      -7.4      5.631      8.373
REMARK  6 active torsions:
REMARK  status: ('A' for Active; 'I' for Inactive)
REMARK    1  A    between atoms: C2_2  and  C3_3 
REMARK    2  A    between atoms: C2_2  and  C6_7 
REMARK    3  A    between atoms: C3_3  and  N1_4 
REMARK    4  A    between atoms: C6_7  and  C7_9 
REMARK    5  A    between atoms: C10_12  and  C11_13 
REMARK    6  A    between atoms: C11_13  and  C12_14 
ROOT
HETATM    1  C7  UNL     1      25.643   2.152  52.238  1.00  0.00     0.087 C 
HETATM    2  C8  UNL     1      26.556   1.935  51.043  1.00  0.00     0.042 C 
HETATM    3  C9  UNL     1      26.633   3.212  50.246  1.00  0.00    -0.017 C 
HETATM    4  C10 UNL     1      25.806   4.133  49.721  1.00  0.00    -0.037 C 
HETATM    5  C18 UNL     1      24.337   3.858  49.953  1.00  0.00     0.206 C 
HETATM    6  O2  UNL     1      24.151   3.803  51.329  1.00  0.00    -0.386 OA
HETATM    7  C19 UNL     1      24.246   2.496  51.798  1.00  0.00     0.180 C 
ENDROOT
BRANCH   4   8
HETATM    8  C11 UNL     1      26.171   5.303  48.974  1.00  0.00     0.021 C 
BRANCH   8   9
HETATM    9  C12 UNL     1      27.039   6.084  48.380  1.00  0.00    -0.030 A 
HETATM   10  C13 UNL     1      28.398   5.632  48.378  1.00  0.00     0.013 A 
HETATM   11  C14 UNL     1      29.454   6.202  47.861  1.00  0.00     0.009 A 
HETATM   12  P1  UNL     1      29.182   7.796  47.023  1.00  0.00    -0.082 P 
HETATM   13  C15 UNL     1      27.414   8.173  47.147  1.00  0.00     0.015 A 
HETATM   14  H18 UNL     1      29.889   8.829  47.790  1.00  0.00     0.066 HD
HETATM   15  C16 UNL     1      26.645   7.321  47.766  1.00  0.00    -0.051 A 
HETATM   16  C17 UNL     1      25.204   7.740  47.802  1.00  0.00     0.049 C 
ENDBRANCH   8   9
ENDBRANCH   4   8
BRANCH   1  17
HETATM   17  C6  UNL     1      25.602   0.878  52.979  1.00  0.00     0.163 C 
HETATM   18  O1  UNL     1      24.405   1.088  53.241  1.00  0.00    -0.292 OA
BRANCH  17  19
HETATM   19  C2  UNL     1      26.485  -0.217  53.321  1.00  0.00     0.007 C 
HETATM   20  C1  UNL     1      26.239  -1.374  52.733  1.00  0.00     0.024 C 
BRANCH  19  21
HETATM   21  C3  UNL     1      27.495   0.247  54.283  1.00  0.00     0.312 C 
BRANCH  21  22
HETATM   22  N1  UNL     1      28.693   0.729  53.684  1.00  0.00     0.084 N 
HETATM   23  C4  UNL     1      29.207   1.957  54.198  1.00  0.00     0.309 C 
HETATM   24  C5  UNL     1      29.700  -0.309  53.762  1.00  0.00     0.309 C 
ENDBRANCH  21  22
ENDBRANCH  19  21
ENDBRANCH  17  19
ENDBRANCH   1  17
TORSDOF 6
ENDMDL
MODEL 5
REMARK VINA RESULT:      -7.3      5.702      9.086
REMARK  6 active torsions:
REMARK  status: ('A' for Active; 'I' for Inactive)
REMARK    1  A    between atoms: C2_2  and  C3_3 
REMARK    2  A    between atoms: C2_2  and  C6_7 
REMARK    3  A    between atoms: C3_3  and  N1_4 
REMARK    4  A    between atoms: C6_7  and  C7_9 
REMARK    5  A    between atoms: C10_12  and  C11_13 
REMARK    6  A    between atoms: C11_13  and  C12_14 
ROOT
HETATM    1  C7  UNL     1      25.317   2.755  51.590  1.00  0.00     0.087 C 
HETATM    2  C8  UNL     1      26.355   2.429  50.530  1.00  0.00     0.042 C 
HETATM    3  C9  UNL     1      26.747   3.699  49.819  1.00  0.00    -0.017 C 
HETATM    4  C10 UNL     1      26.160   4.755  49.228  1.00  0.00    -0.037 C 
HETATM    5  C18 UNL     1      24.649   4.711  49.230  1.00  0.00     0.206 C 
HETATM    6  O2  UNL     1      24.251   4.648  50.559  1.00  0.00    -0.386 OA
HETATM    7  C19 UNL     1      24.072   3.330  50.970  1.00  0.00     0.180 C 
ENDROOT
BRANCH   4   8
HETATM    8  C11 UNL     1      26.810   5.872  48.602  1.00  0.00     0.021 C 
BRANCH   8   9
HETATM    9  C12 UNL     1      27.594   6.921  48.613  1.00  0.00    -0.030 A 
HETATM   10  C13 UNL     1      26.973   8.171  48.938  1.00  0.00     0.013 A 
HETATM   11  C14 UNL     1      27.509   9.358  49.024  1.00  0.00     0.009 A 
HETATM   12  P1  UNL     1      29.296   9.462  48.687  1.00  0.00    -0.082 P 
HETATM   13  C15 UNL     1      29.869   7.788  48.301  1.00  0.00     0.015 A 
HETATM   14  H18 UNL     1      29.475  10.261  47.469  1.00  0.00     0.066 HD
HETATM   15  C16 UNL     1      28.995   6.820  48.318  1.00  0.00    -0.051 A 
HETATM   16  C17 UNL     1      29.587   5.481  47.985  1.00  0.00     0.049 C 
ENDBRANCH   8   9
ENDBRANCH   4   8
BRANCH   1  17
HETATM   17  C6  UNL     1      24.968   1.484  52.251  1.00  0.00     0.163 C 
HETATM   18  O1  UNL     1      23.954   1.409  51.536  1.00  0.00    -0.292 OA
BRANCH  17  19
HETATM   19  C2  UNL     1      25.489   0.610  53.280  1.00  0.00     0.007 C 
HETATM   20  C1  UNL     1      25.050  -0.637  53.267  1.00  0.00     0.024 C 
BRANCH  19  21
HETATM   21  C3  UNL     1      26.429   1.354  54.130  1.00  0.00     0.312 C 
BRANCH  21  22
HETATM   22  N1  UNL     1      27.798   1.172  53.784  1.00  0.00     0.084 N 
HETATM   23  C4  UNL     1      28.569   2.360  53.614  1.00  0.00     0.309 C 
HETATM   24  C5  UNL     1      28.414   0.309  54.770  1.00  0.00     0.309 C 
ENDBRANCH  21  22
ENDBRANCH  19  21
ENDBRANCH  17  19
ENDBRANCH   1  17
TORSDOF 6
ENDMDL
MODEL 6
REMARK VINA RESULT:      -7.0      6.423     10.317
REMARK  6 active torsions:
REMARK  status: ('A' for Active; 'I' for Inactive)
REMARK    1  A    between atoms: C2_2  and  C3_3 
REMARK    2  A    between atoms: C2_2  and  C6_7 
REMARK    3  A    between atoms: C3_3  and  N1_4 
REMARK    4  A    between atoms: C6_7  and  C7_9 
REMARK    5  A    between atoms: C10_12  and  C11_13 
REMARK    6  A    between atoms: C11_13  and  C12_14 
ROOT
HETATM    1  C7  UNL     1      25.532   3.642  50.734  1.00  0.00     0.087 C 
HETATM    2  C8  UNL     1      26.318   3.139  49.535  1.00  0.00     0.042 C 
HETATM    3  C9  UNL     1      27.217   4.243  49.040  1.00  0.00    -0.017 C 
HETATM    4  C10 UNL     1      27.143   5.547  48.718  1.00  0.00    -0.037 C 
HETATM    5  C18 UNL     1      25.763   6.147  48.861  1.00  0.00     0.206 C 
HETATM    6  O2  UNL     1      25.387   5.978  50.188  1.00  0.00    -0.386 OA
HETATM    7  C19 UNL     1      24.656   4.806  50.360  1.00  0.00     0.180 C 
ENDROOT
BRANCH   4   8
HETATM    8  C11 UNL     1      28.208   6.388  48.252  1.00  0.00     0.021 C 
BRANCH   8   9
HETATM    9  C12 UNL     1      29.450   6.805  48.251  1.00  0.00    -0.030 A 
HETATM   10  C13 UNL     1      30.430   5.871  47.783  1.00  0.00     0.013 A 
HETATM   11  C14 UNL     1      31.723   6.021  47.672  1.00  0.00     0.009 A 
HETATM   12  P1  UNL     1      32.393   7.636  48.181  1.00  0.00    -0.082 P 
HETATM   13  C15 UNL     1      30.997   8.649  48.733  1.00  0.00     0.015 A 
HETATM   14  H18 UNL     1      33.247   7.416  49.355  1.00  0.00     0.066 HD
HETATM   15  C16 UNL     1      29.803   8.124  48.693  1.00  0.00    -0.051 A 
HETATM   16  C17 UNL     1      28.730   9.058  49.172  1.00  0.00     0.049 C 
ENDBRANCH   8   9
ENDBRANCH   4   8
BRANCH   1  17
HETATM   17  C6  UNL     1      24.672   2.529  51.177  1.00  0.00     0.163 C 
HETATM   18  O1  UNL     1      23.778   2.940  50.417  1.00  0.00    -0.292 OA
BRANCH  17  19
HETATM   19  C2  UNL     1      24.724   1.399  52.079  1.00  0.00     0.007 C 
HETATM   20  C1  UNL     1      23.565   0.955  52.531  1.00  0.00     0.024 C 
BRANCH  19  21
HETATM   21  C3  UNL     1      26.124   0.996  52.283  1.00  0.00     0.312 C 
BRANCH  21  22
HETATM   22  N1  UNL     1      26.708   1.503  53.478  1.00  0.00     0.084 N 
HETATM   23  C4  UNL     1      26.846   0.576  54.555  1.00  0.00     0.309 C 
HETATM   24  C5  UNL     1      27.990   2.092  53.155  1.00  0.00     0.309 C 
ENDBRANCH  21  22
ENDBRANCH  19  21
ENDBRANCH  17  19
ENDBRANCH   1  17
TORSDOF 6
ENDMDL
MODEL 7
REMARK VINA RESULT:      -6.9      2.337      3.538
REMARK  6 active torsions:
REMARK  status: ('A' for Active; 'I' for Inactive)
REMARK    1  A    between atoms: C2_2  and  C3_3 
REMARK    2  A    between atoms: C2_2  and  C6_7 
REMARK    3  A    between atoms: C3_3  and  N1_4 
REMARK    4  A    between atoms: C6_7  and  C7_9 
REMARK    5  A    between atoms: C10_12  and  C11_13 
REMARK    6  A    between atoms: C11_13  and  C12_14 
ROOT
HETATM    1  C7  UNL     1      22.178   0.310  52.220  1.00  0.00     0.087 C 
HETATM    2  C8  UNL     1      21.627   0.442  53.629  1.00  0.00     0.042 C 
HETATM    3  C9  UNL     1      20.316  -0.296  53.715  1.00  0.00    -0.017 C 
HETATM    4  C10 UNL     1      19.157  -0.391  53.038  1.00  0.00    -0.037 C 
HETATM    5  C18 UNL     1      19.073   0.497  51.818  1.00  0.00     0.206 C 
HETATM    6  O2  UNL     1      20.123   0.134  50.984  1.00  0.00    -0.386 OA
HETATM    7  C19 UNL     1      21.245   0.926  51.213  1.00  0.00     0.180 C 
ENDROOT
BRANCH   4   8
HETATM    8  C11 UNL     1      18.026  -1.214  53.364  1.00  0.00     0.021 C 
BRANCH   8   9
HETATM    9  C12 UNL     1      17.168  -2.169  53.110  1.00  0.00    -0.030 A 
HETATM   10  C13 UNL     1      17.505  -3.470  53.606  1.00  0.00     0.013 A 
HETATM   11  C14 UNL     1      16.838  -4.588  53.503  1.00  0.00     0.009 A 
HETATM   12  P1  UNL     1      15.256  -4.503  52.604  1.00  0.00    -0.082 P 
HETATM   13  C15 UNL     1      15.033  -2.787  52.068  1.00  0.00     0.015 A 
HETATM   14  H18 UNL     1      15.391  -5.312  51.385  1.00  0.00     0.066 HD
HETATM   15  C16 UNL     1      15.958  -1.922  52.377  1.00  0.00    -0.051 A 
HETATM   16  C17 UNL     1      15.662  -0.536  51.882  1.00  0.00     0.049 C 
ENDBRANCH   8   9
ENDBRANCH   4   8
BRANCH   1  17
HETATM   17  C6  UNL     1      23.455   1.048  52.190  1.00  0.00     0.163 C 
HETATM   18  O1  UNL     1      23.191   1.426  51.036  1.00  0.00    -0.292 OA
BRANCH  17  19
HETATM   19  C2  UNL     1      24.590   1.301  53.051  1.00  0.00     0.007 C 
HETATM   20  C1  UNL     1      24.873   2.569  53.290  1.00  0.00     0.024 C 
BRANCH  19  21
HETATM   21  C3  UNL     1      25.181   0.023  53.475  1.00  0.00     0.312 C 
BRANCH  21  22
HETATM   22  N1  UNL     1      26.601  -0.019  53.390  1.00  0.00     0.084 N 
HETATM   23  C4  UNL     1      27.313   0.179  54.611  1.00  0.00     0.309 C 
HETATM   24  C5  UNL     1      26.992  -1.271  52.777  1.00  0.00     0.309 C 
ENDBRANCH  21  22
ENDBRANCH  19  21
ENDBRANCH  17  19
ENDBRANCH   1  17
TORSDOF 6
ENDMDL
MODEL 8
REMARK VINA RESULT:      -6.7      1.669      2.742
REMARK  6 active torsions:
REMARK  status: ('A' for Active; 'I' for Inactive)
REMARK    1  A    between atoms: C2_2  and  C3_3 
REMARK    2  A    between atoms: C2_2  and  C6_7 
REMARK    3  A    between atoms: C3_3  and  N1_4 
REMARK    4  A    between atoms: C6_7  and  C7_9 
REMARK    5  A    between atoms: C10_12  and  C11_13 
REMARK    6  A    between atoms: C11_13  and  C12_14 
ROOT
HETATM    1  C7  UNL     1      23.694   1.704  53.137  1.00  0.00     0.087 C 
HETATM    2  C8  UNL     1      22.847   1.813  51.881  1.00  0.00     0.042 C 
HETATM    3  C9  UNL     1      21.518   1.144  52.126  1.00  0.00    -0.017 C 
HETATM    4  C10 UNL     1      21.038  -0.015  52.610  1.00  0.00    -0.037 C 
HETATM    5  C18 UNL     1      22.102  -0.997  53.047  1.00  0.00     0.206 C 
HETATM    6  O2  UNL     1      22.853  -0.364  54.029  1.00  0.00    -0.386 OA
HETATM    7  C19 UNL     1      23.968   0.266  53.484  1.00  0.00     0.180 C 
ENDROOT
BRANCH   4   8
HETATM    8  C11 UNL     1      19.661  -0.402  52.731  1.00  0.00     0.021 C 
BRANCH   8   9
HETATM    9  C12 UNL     1      18.423  -0.458  52.306  1.00  0.00    -0.030 A 
HETATM   10  C13 UNL     1      18.043   0.527  51.338  1.00  0.00     0.013 A 
HETATM   11  C14 UNL     1      16.890   0.699  50.749  1.00  0.00     0.009 A 
HETATM   12  P1  UNL     1      15.566  -0.463  51.213  1.00  0.00    -0.082 P 
HETATM   13  C15 UNL     1      16.258  -1.606  52.436  1.00  0.00     0.015 A 
HETATM   14  H18 UNL     1      14.517   0.304  51.896  1.00  0.00     0.066 HD
HETATM   15  C16 UNL     1      17.505  -1.451  52.786  1.00  0.00    -0.051 A 
HETATM   16  C17 UNL     1      17.964  -2.456  53.802  1.00  0.00     0.049 C 
ENDBRANCH   8   9
ENDBRANCH   4   8
BRANCH   1  17
HETATM   17  C6  UNL     1      24.976   2.370  52.845  1.00  0.00     0.163 C 
HETATM   18  O1  UNL     1      24.492   3.443  53.245  1.00  0.00    -0.292 OA
BRANCH  17  19
HETATM   19  C2  UNL     1      26.287   2.039  52.327  1.00  0.00     0.007 C 
HETATM   20  C1  UNL     1      26.435   2.113  51.017  1.00  0.00     0.024 C 
BRANCH  19  21
HETATM   21  C3  UNL     1      27.181   1.686  53.440  1.00  0.00     0.312 C 
BRANCH  21  22
HETATM   22  N1  UNL     1      28.167   0.714  53.109  1.00  0.00     0.084 N 
HETATM   23  C4  UNL     1      29.384   0.772  53.852  1.00  0.00     0.309 C 
HETATM   24  C5  UNL     1      27.575  -0.603  53.218  1.00  0.00     0.309 C 
ENDBRANCH  21  22
ENDBRANCH  19  21
ENDBRANCH  17  19
ENDBRANCH   1  17
TORSDOF 6
ENDMDL
MODEL 9
REMARK VINA RESULT:      -6.7      5.864      7.950
REMARK  6 active torsions:
REMARK  status: ('A' for Active; 'I' for Inactive)
REMARK    1  A    between atoms: C2_2  and  C3_3 
REMARK    2  A    between atoms: C2_2  and  C6_7 
REMARK    3  A    between atoms: C3_3  and  N1_4 
REMARK    4  A    between atoms: C6_7  and  C7_9 
REMARK    5  A    between atoms: C10_12  and  C11_13 
REMARK    6  A    between atoms: C11_13  and  C12_14 
ROOT
HETATM    1  C7  UNL     1      26.594   5.600  48.584  1.00  0.00     0.087 C 
HETATM    2  C8  UNL     1      27.147   4.334  49.215  1.00  0.00     0.042 C 
HETATM    3  C9  UNL     1      25.999   3.437  49.605  1.00  0.00    -0.017 C 
HETATM    4  C10 UNL     1      24.829   3.514  50.265  1.00  0.00    -0.037 C 
HETATM    5  C18 UNL     1      24.516   4.884  50.822  1.00  0.00     0.206 C 
HETATM    6  O2  UNL     1      24.494   5.761  49.744  1.00  0.00    -0.386 OA
HETATM    7  C19 UNL     1      25.736   6.361  49.558  1.00  0.00     0.180 C 
ENDROOT
BRANCH   4   8
HETATM    8  C11 UNL     1      23.892   2.452  50.496  1.00  0.00     0.021 C 
BRANCH   8   9
HETATM    9  C12 UNL     1      23.298   1.565  51.255  1.00  0.00    -0.030 A 
HETATM   10  C13 UNL     1      24.028   1.129  52.407  1.00  0.00     0.013 A 
HETATM   11  C14 UNL     1      23.679   0.267  53.325  1.00  0.00     0.009 A 
HETATM   12  P1  UNL     1      22.039  -0.499  53.129  1.00  0.00    -0.082 P 
HETATM   13  C15 UNL     1      21.301   0.186  51.624  1.00  0.00     0.015 A 
HETATM   14  H18 UNL     1      22.242  -1.933  52.885  1.00  0.00     0.066 HD
HETATM   15  C16 UNL     1      21.989   1.063  50.946  1.00  0.00    -0.051 A 
HETATM   16  C17 UNL     1      21.275   1.559  49.722  1.00  0.00     0.049 C 
ENDBRANCH   8   9
ENDBRANCH   4   8
BRANCH   1  17
HETATM   17  C6  UNL     1      27.753   6.437  48.224  1.00  0.00     0.163 C 
HETATM   18  O1  UNL     1      28.481   5.433  48.299  1.00  0.00    -0.292 OA
BRANCH  17  19
HETATM   19  C2  UNL     1      28.045   7.817  47.901  1.00  0.00     0.007 C 
HETATM   20  C1  UNL     1      27.612   8.250  46.729  1.00  0.00     0.024 C 
BRANCH  19  21
HETATM   21  C3  UNL     1      28.786   8.436  49.010  1.00  0.00     0.312 C 
BRANCH  21  22
HETATM   22  N1  UNL     1      30.054   8.967  48.639  1.00  0.00     0.084 N 
HETATM   23  C4  UNL     1      30.270  10.347  48.933  1.00  0.00     0.309 C 
HETATM   24  C5  UNL     1      31.090   8.156  49.242  1.00  0.00     0.309 C 
ENDBRANCH  21  22
ENDBRANCH  19  21
ENDBRANCH  17  19
ENDBRANCH   1  17
TORSDOF 6
ENDMDL
