MODEL 1
REMARK VINA RESULT:      -8.2      0.000      0.000
REMARK  4 active torsions:
REMARK  status: ('A' for Active; 'I' for Inactive)
REMARK    1  A    between atoms: C6_8  and  C7_9 
REMARK    2  A    between atoms: C7_9  and  O3_11 
REMARK    3  A    between atoms: C12_17  and  N3_18 
REMARK    4  A    between atoms: C12_17  and  N5_21 
ROOT
HETATM    1  C1  UNL     1      21.410   3.769  52.318  1.00  0.00     0.180 C 
HETATM    2  N1  UNL     1      22.567   4.362  51.710  1.00  0.00    -0.269 NA
HETATM    3  C2  UNL     1      23.561   3.575  51.384  1.00  0.00     0.195 C 
HETATM    4  O1  UNL     1      23.586   2.195  51.582  1.00  0.00    -0.290 OA
HETATM    5  C3  UNL     1      24.638   1.372  51.961  1.00  0.00     0.086 A 
HETATM    6  C4  UNL     1      24.230   0.232  52.603  1.00  0.00     0.039 A 
HETATM    7  C5  UNL     1      25.196  -0.663  53.025  1.00  0.00     0.021 A 
HETATM    8  C6  UNL     1      26.535  -0.413  52.806  1.00  0.00     0.038 A 
HETATM    9  C8  UNL     1      26.894   0.755  52.152  1.00  0.00     0.029 A 
HETATM   10  C9  UNL     1      25.955   1.694  51.704  1.00  0.00    -0.006 A 
HETATM   11  C10 UNL     1      26.739   2.753  51.082  1.00  0.00     0.161 C 
HETATM   12  N2  UNL     1      26.056   3.974  50.799  1.00  0.00    -0.379 N 
HETATM   13  C11 UNL     1      24.669   4.307  50.777  1.00  0.00     0.130 C 
HETATM   14  C12 UNL     1      24.419   5.408  50.124  1.00  0.00     0.182 C 
HETATM   15  H10 UNL     1      26.764   4.733  50.569  1.00  0.00     0.160 HD
ENDROOT
BRANCH  14  16
HETATM   16  N3  UNL     1      25.245   6.345  49.428  1.00  0.00    -0.135 NA
HETATM   17  N4  UNL     1      26.202   5.955  48.682  1.00  0.00    -0.196 NA
HETATM   18  C13 UNL     1      26.990   6.974  48.013  1.00  0.00     0.204 C 
ENDBRANCH  14  16
BRANCH  14  19
HETATM   19  N5  UNL     1      23.147   6.011  49.920  1.00  0.00    -0.334 N 
HETATM   20  C14 UNL     1      22.228   5.510  48.954  1.00  0.00     0.112 A 
HETATM   21  C15 UNL     1      21.081   6.167  48.871  1.00  0.00     0.026 A 
HETATM   22 BR1  UNL     1      19.847   5.501  47.580  1.00  0.00    -0.050 Br
HETATM   23  C16 UNL     1      20.713   7.326  49.675  1.00  0.00     0.018 A 
HETATM   24  C17 UNL     1      21.635   7.710  50.538  1.00  0.00    -0.005 A 
HETATM   25  C18 UNL     1      22.981   7.143  50.814  1.00  0.00     0.157 A 
ENDBRANCH  14  19
BRANCH   8  26
HETATM   26  C7  UNL     1      27.502  -1.380  53.268  1.00  0.00     0.176 C 
HETATM   27  O2  UNL     1      28.407  -0.984  54.044  1.00  0.00    -0.646 OA
BRANCH  26  28
HETATM   28  O3  UNL     1      27.464  -2.717  52.887  1.00  0.00    -0.773 OA
HETATM   29  H6  UNL     1      27.376  -2.961  51.908  1.00  0.00     0.167 HD
ENDBRANCH  26  28
ENDBRANCH   8  26
TORSDOF 4
ENDMDL
MODEL 2
REMARK VINA RESULT:      -7.8      2.777      4.069
REMARK  4 active torsions:
REMARK  status: ('A' for Active; 'I' for Inactive)
REMARK    1  A    between atoms: C6_8  and  C7_9 
REMARK    2  A    between atoms: C7_9  and  O3_11 
REMARK    3  A    between atoms: C12_17  and  N3_18 
REMARK    4  A    between atoms: C12_17  and  N5_21 
ROOT
HETATM    1  C1  UNL     1      19.876   0.182  53.027  1.00  0.00     0.180 C 
HETATM    2  N1  UNL     1      20.335   1.464  52.576  1.00  0.00    -0.269 NA
HETATM    3  C2  UNL     1      21.618   1.614  52.356  1.00  0.00     0.195 C 
HETATM    4  O1  UNL     1      22.579   0.619  52.527  1.00  0.00    -0.290 OA
HETATM    5  C3  UNL     1      23.877   0.714  53.013  1.00  0.00     0.086 A 
HETATM    6  C4  UNL     1      24.330  -0.450  53.578  1.00  0.00     0.039 A 
HETATM    7  C5  UNL     1      25.612  -0.471  54.094  1.00  0.00     0.021 A 
HETATM    8  C6  UNL     1      26.412   0.652  54.044  1.00  0.00     0.038 A 
HETATM    9  C8  UNL     1      25.906   1.803  53.462  1.00  0.00     0.029 A 
HETATM   10  C9  UNL     1      24.614   1.876  52.923  1.00  0.00    -0.006 A 
HETATM   11  C10 UNL     1      24.485   3.238  52.422  1.00  0.00     0.161 C 
HETATM   12  N2  UNL     1      23.168   3.675  52.084  1.00  0.00    -0.379 N 
HETATM   13  C11 UNL     1      21.946   2.962  51.902  1.00  0.00     0.130 C 
HETATM   14  C12 UNL     1      21.049   3.647  51.247  1.00  0.00     0.182 C 
HETATM   15  H10 UNL     1      23.165   4.730  51.958  1.00  0.00     0.160 HD
ENDROOT
BRANCH  14  16
HETATM   16  N3  UNL     1      21.040   4.957  50.675  1.00  0.00    -0.135 NA
HETATM   17  N4  UNL     1      21.539   5.953  51.297  1.00  0.00    -0.196 NA
HETATM   18  C13 UNL     1      21.487   7.247  50.643  1.00  0.00     0.204 C 
ENDBRANCH  14  16
BRANCH  14  19
HETATM   19  N5  UNL     1      19.735   3.225  50.904  1.00  0.00    -0.334 N 
HETATM   20  C14 UNL     1      18.593   3.670  51.628  1.00  0.00     0.112 A 
HETATM   21  C15 UNL     1      17.432   3.199  51.199  1.00  0.00     0.026 A 
HETATM   22 BR1  UNL     1      15.900   3.792  52.165  1.00  0.00    -0.050 Br
HETATM   23  C16 UNL     1      17.256   2.287  50.075  1.00  0.00     0.018 A 
HETATM   24  C17 UNL     1      18.376   1.936  49.472  1.00  0.00    -0.005 A 
HETATM   25  C18 UNL     1      19.781   2.325  49.764  1.00  0.00     0.157 A 
ENDBRANCH  14  19
BRANCH   8  26
HETATM   26  C7  UNL     1      27.743   0.576  54.599  1.00  0.00     0.176 C 
HETATM   27  O2  UNL     1      28.148  -0.541  55.009  1.00  0.00    -0.646 OA
BRANCH  26  28
HETATM   28  O3  UNL     1      28.579   1.684  54.694  1.00  0.00    -0.773 OA
HETATM   29  H6  UNL     1      29.475   1.603  55.159  1.00  0.00     0.167 HD
ENDBRANCH  26  28
ENDBRANCH   8  26
TORSDOF 4
ENDMDL
MODEL 3
REMARK VINA RESULT:      -7.5      4.324      7.275
REMARK  4 active torsions:
REMARK  status: ('A' for Active; 'I' for Inactive)
REMARK    1  A    between atoms: C6_8  and  C7_9 
REMARK    2  A    between atoms: C7_9  and  O3_11 
REMARK    3  A    between atoms: C12_17  and  N3_18 
REMARK    4  A    between atoms: C12_17  and  N5_21 
ROOT
HETATM    1  C1  UNL     1      25.063  -1.220  54.880  1.00  0.00     0.180 C 
HETATM    2  N1  UNL     1      25.242  -0.428  53.697  1.00  0.00    -0.269 NA
HETATM    3  C2  UNL     1      24.204   0.220  53.230  1.00  0.00     0.195 C 
HETATM    4  O1  UNL     1      22.929   0.200  53.795  1.00  0.00    -0.290 OA
HETATM    5  C3  UNL     1      21.686   0.187  53.176  1.00  0.00     0.086 A 
HETATM    6  C4  UNL     1      20.708  -0.395  53.940  1.00  0.00     0.039 A 
HETATM    7  C5  UNL     1      19.427  -0.462  53.423  1.00  0.00     0.021 A 
HETATM    8  C6  UNL     1      19.143   0.042  52.170  1.00  0.00     0.038 A 
HETATM    9  C8  UNL     1      20.169   0.619  51.438  1.00  0.00     0.029 A 
HETATM   10  C9  UNL     1      21.484   0.713  51.917  1.00  0.00    -0.006 A 
HETATM   11  C10 UNL     1      22.231   1.374  50.855  1.00  0.00     0.161 C 
HETATM   12  N2  UNL     1      23.654   1.337  50.955  1.00  0.00    -0.379 N 
HETATM   13  C11 UNL     1      24.525   0.984  52.028  1.00  0.00     0.130 C 
HETATM   14  C12 UNL     1      25.743   1.421  51.861  1.00  0.00     0.182 C 
HETATM   15  H10 UNL     1      24.083   1.637  50.030  1.00  0.00     0.160 HD
ENDROOT
BRANCH  14  16
HETATM   16  N3  UNL     1      26.381   2.178  50.830  1.00  0.00    -0.135 NA
HETATM   17  N4  UNL     1      25.889   3.281  50.419  1.00  0.00    -0.196 NA
HETATM   18  C13 UNL     1      26.602   3.984  49.369  1.00  0.00     0.204 C 
ENDBRANCH  14  16
BRANCH  14  19
HETATM   19  N5  UNL     1      26.844   1.240  52.743  1.00  0.00    -0.334 N 
HETATM   20  C14 UNL     1      27.677   0.087  52.672  1.00  0.00     0.112 A 
HETATM   21  C15 UNL     1      28.666   0.049  53.553  1.00  0.00     0.026 A 
HETATM   22 BR1  UNL     1      29.785  -1.491  53.462  1.00  0.00    -0.050 Br
HETATM   23  C16 UNL     1      28.944   1.073  54.552  1.00  0.00     0.018 A 
HETATM   24  C17 UNL     1      28.113   2.098  54.534  1.00  0.00    -0.005 A 
HETATM   25  C18 UNL     1      26.945   2.365  53.655  1.00  0.00     0.157 A 
ENDBRANCH  14  19
BRANCH   8  26
HETATM   26  C7  UNL     1      17.790  -0.055  51.678  1.00  0.00     0.176 C 
HETATM   27  O2  UNL     1      17.590   0.157  50.456  1.00  0.00    -0.646 OA
BRANCH  26  28
HETATM   28  O3  UNL     1      16.715  -0.372  52.502  1.00  0.00    -0.773 OA
HETATM   29  H6  UNL     1      16.825  -0.348  53.509  1.00  0.00     0.167 HD
ENDBRANCH  26  28
ENDBRANCH   8  26
TORSDOF 4
ENDMDL
MODEL 4
REMARK VINA RESULT:      -7.5      2.724      4.402
REMARK  4 active torsions:
REMARK  status: ('A' for Active; 'I' for Inactive)
REMARK    1  A    between atoms: C6_8  and  C7_9 
REMARK    2  A    between atoms: C7_9  and  O3_11 
REMARK    3  A    between atoms: C12_17  and  N3_18 
REMARK    4  A    between atoms: C12_17  and  N5_21 
ROOT
HETATM    1  C1  UNL     1      26.214   3.507  49.605  1.00  0.00     0.180 C 
HETATM    2  N1  UNL     1      24.865   3.985  49.704  1.00  0.00    -0.269 NA
HETATM    3  C2  UNL     1      24.160   3.622  50.747  1.00  0.00     0.195 C 
HETATM    4  O1  UNL     1      24.620   2.801  51.776  1.00  0.00    -0.290 OA
HETATM    5  C3  UNL     1      23.952   1.813  52.487  1.00  0.00     0.086 A 
HETATM    6  C4  UNL     1      24.787   0.848  52.986  1.00  0.00     0.039 A 
HETATM    7  C5  UNL     1      24.230  -0.187  53.714  1.00  0.00     0.021 A 
HETATM    8  C6  UNL     1      22.868  -0.246  53.930  1.00  0.00     0.038 A 
HETATM    9  C8  UNL     1      22.069   0.756  53.403  1.00  0.00     0.029 A 
HETATM   10  C9  UNL     1      22.584   1.827  52.659  1.00  0.00    -0.006 A 
HETATM   11  C10 UNL     1      21.426   2.636  52.301  1.00  0.00     0.161 C 
HETATM   12  N2  UNL     1      21.626   3.631  51.297  1.00  0.00    -0.379 N 
HETATM   13  C11 UNL     1      22.811   4.178  50.721  1.00  0.00     0.130 C 
HETATM   14  C12 UNL     1      22.603   5.312  50.109  1.00  0.00     0.182 C 
HETATM   15  H10 UNL     1      20.684   3.989  50.960  1.00  0.00     0.160 HD
ENDROOT
BRANCH  14  16
HETATM   16  N3  UNL     1      21.439   6.115  49.899  1.00  0.00    -0.135 NA
HETATM   17  N4  UNL     1      20.330   5.592  49.550  1.00  0.00    -0.196 NA
HETATM   18  C13 UNL     1      19.199   6.481  49.358  1.00  0.00     0.204 C 
ENDBRANCH  14  16
BRANCH  14  19
HETATM   19  N5  UNL     1      23.570   6.108  49.436  1.00  0.00    -0.334 N 
HETATM   20  C14 UNL     1      24.501   6.916  50.148  1.00  0.00     0.112 A 
HETATM   21  C15 UNL     1      25.345   7.605  49.393  1.00  0.00     0.026 A 
HETATM   22 BR1  UNL     1      26.594   8.688  50.341  1.00  0.00    -0.050 Br
HETATM   23  C16 UNL     1      25.378   7.590  47.936  1.00  0.00     0.018 A 
HETATM   24  C17 UNL     1      24.473   6.810  47.375  1.00  0.00    -0.005 A 
HETATM   25  C18 UNL     1      23.433   5.951  47.998  1.00  0.00     0.157 A 
ENDBRANCH  14  19
BRANCH   8  26
HETATM   26  C7  UNL     1      22.338  -1.349  54.696  1.00  0.00     0.176 C 
HETATM   27  O2  UNL     1      21.253  -1.859  54.321  1.00  0.00    -0.646 OA
BRANCH  26  28
HETATM   28  O3  UNL     1      22.981  -1.856  55.820  1.00  0.00    -0.773 OA
HETATM   29  H6  UNL     1      22.458  -2.386  56.506  1.00  0.00     0.167 HD
ENDBRANCH  26  28
ENDBRANCH   8  26
TORSDOF 4
ENDMDL
MODEL 5
REMARK VINA RESULT:      -7.5      2.610      4.545
REMARK  4 active torsions:
REMARK  status: ('A' for Active; 'I' for Inactive)
REMARK    1  A    between atoms: C6_8  and  C7_9 
REMARK    2  A    between atoms: C7_9  and  O3_11 
REMARK    3  A    between atoms: C12_17  and  N3_18 
REMARK    4  A    between atoms: C12_17  and  N5_21 
ROOT
HETATM    1  C1  UNL     1      23.395   3.534  48.910  1.00  0.00     0.180 C 
HETATM    2  N1  UNL     1      22.517   2.727  49.707  1.00  0.00    -0.269 NA
HETATM    3  C2  UNL     1      22.993   2.212  50.814  1.00  0.00     0.195 C 
HETATM    4  O1  UNL     1      24.295   2.387  51.282  1.00  0.00    -0.290 OA
HETATM    5  C3  UNL     1      25.136   1.486  51.921  1.00  0.00     0.086 A 
HETATM    6  C4  UNL     1      26.465   1.758  51.731  1.00  0.00     0.039 A 
HETATM    7  C5  UNL     1      27.395   0.925  52.324  1.00  0.00     0.021 A 
HETATM    8  C6  UNL     1      26.994  -0.154  53.084  1.00  0.00     0.038 A 
HETATM    9  C8  UNL     1      25.637  -0.386  53.244  1.00  0.00     0.029 A 
HETATM   10  C9  UNL     1      24.654   0.430  52.666  1.00  0.00    -0.006 A 
HETATM   11  C10 UNL     1      23.383  -0.154  53.075  1.00  0.00     0.161 C 
HETATM   12  N2  UNL     1      22.218   0.303  52.389  1.00  0.00    -0.379 N 
HETATM   13  C11 UNL     1      21.996   1.417  51.525  1.00  0.00     0.130 C 
HETATM   14  C12 UNL     1      20.733   1.714  51.390  1.00  0.00     0.182 C 
HETATM   15  H10 UNL     1      21.403  -0.345  52.603  1.00  0.00     0.160 HD
ENDROOT
BRANCH  14  16
HETATM   16  N3  UNL     1      19.531   1.158  51.928  1.00  0.00    -0.135 NA
HETATM   17  N4  UNL     1      19.238  -0.072  51.757  1.00  0.00    -0.196 NA
HETATM   18  C13 UNL     1      17.998  -0.554  52.338  1.00  0.00     0.204 C 
ENDBRANCH  14  16
BRANCH  14  19
HETATM   19  N5  UNL     1      20.182   2.763  50.604  1.00  0.00    -0.334 N 
HETATM   20  C14 UNL     1      19.688   2.530  49.288  1.00  0.00     0.112 A 
HETATM   21  C15 UNL     1      19.202   3.597  48.671  1.00  0.00     0.026 A 
HETATM   22 BR1  UNL     1      18.539   3.292  46.910  1.00  0.00    -0.050 Br
HETATM   23  C16 UNL     1      19.142   4.942  49.230  1.00  0.00     0.018 A 
HETATM   24  C17 UNL     1      19.626   5.048  50.454  1.00  0.00    -0.005 A 
HETATM   25  C18 UNL     1      20.217   4.013  51.341  1.00  0.00     0.157 A 
ENDBRANCH  14  19
BRANCH   8  26
HETATM   26  C7  UNL     1      28.006  -0.993  53.680  1.00  0.00     0.176 C 
HETATM   27  O2  UNL     1      28.654  -0.535  54.654  1.00  0.00    -0.646 OA
BRANCH  26  28
HETATM   28  O3  UNL     1      28.284  -2.275  53.216  1.00  0.00    -0.773 OA
HETATM   29  H6  UNL     1      29.117  -2.443  52.664  1.00  0.00     0.167 HD
ENDBRANCH  26  28
ENDBRANCH   8  26
TORSDOF 4
ENDMDL
MODEL 6
REMARK VINA RESULT:      -7.2      2.565      4.295
REMARK  4 active torsions:
REMARK  status: ('A' for Active; 'I' for Inactive)
REMARK    1  A    between atoms: C6_8  and  C7_9 
REMARK    2  A    between atoms: C7_9  and  O3_11 
REMARK    3  A    between atoms: C12_17  and  N3_18 
REMARK    4  A    between atoms: C12_17  and  N5_21 
ROOT
HETATM    1  C1  UNL     1      27.473   4.417  48.627  1.00  0.00     0.180 C 
HETATM    2  N1  UNL     1      26.214   4.963  49.046  1.00  0.00    -0.269 NA
HETATM    3  C2  UNL     1      25.715   4.550  50.185  1.00  0.00     0.195 C 
HETATM    4  O1  UNL     1      26.315   3.616  51.029  1.00  0.00    -0.290 OA
HETATM    5  C3  UNL     1      25.737   2.610  51.791  1.00  0.00     0.086 A 
HETATM    6  C4  UNL     1      26.581   1.557  52.027  1.00  0.00     0.039 A 
HETATM    7  C5  UNL     1      26.110   0.496  52.778  1.00  0.00     0.021 A 
HETATM    8  C6  UNL     1      24.823   0.498  53.275  1.00  0.00     0.038 A 
HETATM    9  C8  UNL     1      24.009   1.588  53.006  1.00  0.00     0.029 A 
HETATM   10  C9  UNL     1      24.439   2.688  52.251  1.00  0.00    -0.006 A 
HETATM   11  C10 UNL     1      23.297   3.592  52.209  1.00  0.00     0.161 C 
HETATM   12  N2  UNL     1      23.359   4.659  51.262  1.00  0.00    -0.379 N 
HETATM   13  C11 UNL     1      24.436   5.185  50.489  1.00  0.00     0.130 C 
HETATM   14  C12 UNL     1      24.193   6.378  50.022  1.00  0.00     0.182 C 
HETATM   15  H10 UNL     1      22.397   5.100  51.161  1.00  0.00     0.160 HD
ENDROOT
BRANCH  14  16
HETATM   16  N3  UNL     1      23.074   7.263  50.125  1.00  0.00    -0.135 NA
HETATM   17  N4  UNL     1      21.879   6.830  50.031  1.00  0.00    -0.196 NA
HETATM   18  C13 UNL     1      20.803   7.798  50.147  1.00  0.00     0.204 C 
ENDBRANCH  14  16
BRANCH  14  19
HETATM   19  N5  UNL     1      25.056   7.173  49.219  1.00  0.00    -0.334 N 
HETATM   20  C14 UNL     1      26.171   7.863  49.775  1.00  0.00     0.112 A 
HETATM   21  C15 UNL     1      26.889   8.565  48.912  1.00  0.00     0.026 A 
HETATM   22 BR1  UNL     1      28.383   9.490  49.651  1.00  0.00    -0.050 Br
HETATM   23  C16 UNL     1      26.621   8.673  47.483  1.00  0.00     0.018 A 
HETATM   24  C17 UNL     1      25.565   7.997  47.070  1.00  0.00    -0.005 A 
HETATM   25  C18 UNL     1      24.615   7.148  47.835  1.00  0.00     0.157 A 
ENDBRANCH  14  19
BRANCH   8  26
HETATM   26  C7  UNL     1      24.381  -0.636  54.052  1.00  0.00     0.176 C 
HETATM   27  O2  UNL     1      25.222  -1.209  54.788  1.00  0.00    -0.646 OA
BRANCH  26  28
HETATM   28  O3  UNL     1      23.073  -1.107  54.011  1.00  0.00    -0.773 OA
HETATM   29  H6  UNL     1      22.340  -0.606  54.499  1.00  0.00     0.167 HD
ENDBRANCH  26  28
ENDBRANCH   8  26
TORSDOF 4
ENDMDL
MODEL 7
REMARK VINA RESULT:      -7.2      1.699      2.139
REMARK  4 active torsions:
REMARK  status: ('A' for Active; 'I' for Inactive)
REMARK    1  A    between atoms: C6_8  and  C7_9 
REMARK    2  A    between atoms: C7_9  and  O3_11 
REMARK    3  A    between atoms: C12_17  and  N3_18 
REMARK    4  A    between atoms: C12_17  and  N5_21 
ROOT
HETATM    1  C1  UNL     1      19.811   4.077  51.369  1.00  0.00     0.180 C 
HETATM    2  N1  UNL     1      21.086   4.638  51.026  1.00  0.00    -0.269 NA
HETATM    3  C2  UNL     1      22.129   3.845  51.038  1.00  0.00     0.195 C 
HETATM    4  O1  UNL     1      22.098   2.489  51.360  1.00  0.00    -0.290 OA
HETATM    5  C3  UNL     1      23.016   1.725  52.068  1.00  0.00     0.086 A 
HETATM    6  C4  UNL     1      22.454   0.639  52.686  1.00  0.00     0.039 A 
HETATM    7  C5  UNL     1      23.277  -0.195  53.421  1.00  0.00     0.021 A 
HETATM    8  C6  UNL     1      24.628   0.062  53.529  1.00  0.00     0.038 A 
HETATM    9  C8  UNL     1      25.146   1.175  52.885  1.00  0.00     0.029 A 
HETATM   10  C9  UNL     1      24.355   2.050  52.128  1.00  0.00    -0.006 A 
HETATM   11  C10 UNL     1      25.275   3.066  51.633  1.00  0.00     0.161 C 
HETATM   12  N2  UNL     1      24.691   4.243  51.075  1.00  0.00    -0.379 N 
HETATM   13  C11 UNL     1      23.357   4.544  50.670  1.00  0.00     0.130 C 
HETATM   14  C12 UNL     1      23.285   5.577  49.877  1.00  0.00     0.182 C 
HETATM   15  H10 UNL     1      25.437   4.992  50.966  1.00  0.00     0.160 HD
ENDROOT
BRANCH  14  16
HETATM   16  N3  UNL     1      24.264   6.466  49.333  1.00  0.00    -0.135 NA
HETATM   17  N4  UNL     1      25.308   6.022  48.751  1.00  0.00    -0.196 NA
HETATM   18  C13 UNL     1      26.250   6.994  48.227  1.00  0.00     0.204 C 
ENDBRANCH  14  16
BRANCH  14  19
HETATM   19  N5  UNL     1      22.110   6.133  49.301  1.00  0.00    -0.334 N 
HETATM   20  C14 UNL     1      21.471   7.276  49.861  1.00  0.00     0.112 A 
HETATM   21  C15 UNL     1      20.386   7.686  49.221  1.00  0.00     0.026 A 
HETATM   22 BR1  UNL     1      19.526   9.216  49.965  1.00  0.00    -0.050 Br
HETATM   23  C16 UNL     1      19.825   7.065  48.027  1.00  0.00     0.018 A 
HETATM   24  C17 UNL     1      20.492   6.013  47.591  1.00  0.00    -0.005 A 
HETATM   25  C18 UNL     1      21.719   5.370  48.128  1.00  0.00     0.157 A 
ENDBRANCH  14  19
BRANCH   8  26
HETATM   26  C7  UNL     1      25.442  -0.840  54.309  1.00  0.00     0.176 C 
HETATM   27  O2  UNL     1      26.507  -1.266  53.796  1.00  0.00    -0.646 OA
BRANCH  26  28
HETATM   28  O3  UNL     1      25.089  -1.248  55.591  1.00  0.00    -0.773 OA
HETATM   29  H6  UNL     1      24.956  -0.559  56.322  1.00  0.00     0.167 HD
ENDBRANCH  26  28
ENDBRANCH   8  26
TORSDOF 4
ENDMDL
MODEL 8
REMARK VINA RESULT:      -7.2      2.343      2.841
REMARK  4 active torsions:
REMARK  status: ('A' for Active; 'I' for Inactive)
REMARK    1  A    between atoms: C6_8  and  C7_9 
REMARK    2  A    between atoms: C7_9  and  O3_11 
REMARK    3  A    between atoms: C12_17  and  N3_18 
REMARK    4  A    between atoms: C12_17  and  N5_21 
ROOT
HETATM    1  C1  UNL     1      19.515   3.252  49.790  1.00  0.00     0.180 C 
HETATM    2  N1  UNL     1      20.836   3.807  49.870  1.00  0.00    -0.269 NA
HETATM    3  C2  UNL     1      21.795   3.044  50.333  1.00  0.00     0.195 C 
HETATM    4  O1  UNL     1      21.633   1.726  50.758  1.00  0.00    -0.290 OA
HETATM    5  C3  UNL     1      22.227   1.058  51.821  1.00  0.00     0.086 A 
HETATM    6  C4  UNL     1      21.467   0.025  52.304  1.00  0.00     0.039 A 
HETATM    7  C5  UNL     1      21.962  -0.712  53.364  1.00  0.00     0.021 A 
HETATM    8  C6  UNL     1      23.189  -0.413  53.920  1.00  0.00     0.038 A 
HETATM    9  C8  UNL     1      23.917   0.642  53.394  1.00  0.00     0.029 A 
HETATM   10  C9  UNL     1      23.461   1.420  52.321  1.00  0.00    -0.006 A 
HETATM   11  C10 UNL     1      24.511   2.403  52.087  1.00  0.00     0.161 C 
HETATM   12  N2  UNL     1      24.180   3.504  51.241  1.00  0.00    -0.379 N 
HETATM   13  C11 UNL     1      23.083   3.731  50.359  1.00  0.00     0.130 C 
HETATM   14  C12 UNL     1      23.313   4.679  49.492  1.00  0.00     0.182 C 
HETATM   15  H10 UNL     1      24.925   4.257  51.330  1.00  0.00     0.160 HD
ENDROOT
BRANCH  14  16
HETATM   16  N3  UNL     1      24.433   5.533  49.246  1.00  0.00    -0.135 NA
HETATM   17  N4  UNL     1      25.591   5.052  49.014  1.00  0.00    -0.196 NA
HETATM   18  C13 UNL     1      26.673   5.990  48.775  1.00  0.00     0.204 C 
ENDBRANCH  14  16
BRANCH  14  19
HETATM   19  N5  UNL     1      22.428   5.147  48.482  1.00  0.00    -0.334 N 
HETATM   20  C14 UNL     1      22.246   4.438  47.260  1.00  0.00     0.112 A 
HETATM   21  C15 UNL     1      21.392   4.987  46.410  1.00  0.00     0.026 A 
HETATM   22 BR1  UNL     1      21.144   4.042  44.773  1.00  0.00    -0.050 Br
HETATM   23  C16 UNL     1      20.654   6.224  46.636  1.00  0.00     0.018 A 
HETATM   24  C17 UNL     1      20.896   6.802  47.798  1.00  0.00    -0.005 A 
HETATM   25  C18 UNL     1      21.798   6.386  48.903  1.00  0.00     0.157 A 
ENDBRANCH  14  19
BRANCH   8  26
HETATM   26  C7  UNL     1      23.658  -1.214  55.026  1.00  0.00     0.176 C 
HETATM   27  O2  UNL     1      22.805  -1.836  55.707  1.00  0.00    -0.646 OA
BRANCH  26  28
HETATM   28  O3  UNL     1      25.005  -1.316  55.357  1.00  0.00    -0.773 OA
HETATM   29  H6  UNL     1      25.463  -0.560  55.851  1.00  0.00     0.167 HD
ENDBRANCH  26  28
ENDBRANCH   8  26
TORSDOF 4
ENDMDL
MODEL 9
REMARK VINA RESULT:      -6.8      5.766      7.980
REMARK  4 active torsions:
REMARK  status: ('A' for Active; 'I' for Inactive)
REMARK    1  A    between atoms: C6_8  and  C7_9 
REMARK    2  A    between atoms: C7_9  and  O3_11 
REMARK    3  A    between atoms: C12_17  and  N3_18 
REMARK    4  A    between atoms: C12_17  and  N5_21 
ROOT
HETATM    1  C1  UNL     1      18.884   1.840  50.069  1.00  0.00     0.180 C 
HETATM    2  N1  UNL     1      18.453   0.730  50.870  1.00  0.00    -0.269 NA
HETATM    3  C2  UNL     1      19.161   0.428  51.930  1.00  0.00     0.195 C 
HETATM    4  O1  UNL     1      20.308   1.104  52.345  1.00  0.00    -0.290 OA
HETATM    5  C3  UNL     1      21.476   0.605  52.905  1.00  0.00     0.086 A 
HETATM    6  C4  UNL     1      22.571   1.395  52.666  1.00  0.00     0.039 A 
HETATM    7  C5  UNL     1      23.791   0.995  53.179  1.00  0.00     0.021 A 
HETATM    8  C6  UNL     1      23.903  -0.170  53.910  1.00  0.00     0.038 A 
HETATM    9  C8  UNL     1      22.765  -0.933  54.122  1.00  0.00     0.029 A 
HETATM   10  C9  UNL     1      21.505  -0.572  53.625  1.00  0.00    -0.006 A 
HETATM   11  C10 UNL     1      20.603  -1.627  54.066  1.00  0.00     0.161 C 
HETATM   12  N2  UNL     1      19.313  -1.664  53.455  1.00  0.00    -0.379 N 
HETATM   13  C11 UNL     1      18.612  -0.717  52.651  1.00  0.00     0.130 C 
HETATM   14  C12 UNL     1      17.331  -0.952  52.588  1.00  0.00     0.182 C 
HETATM   15  H10 UNL     1      18.842  -2.591  53.677  1.00  0.00     0.160 HD
ENDROOT
BRANCH  14  16
HETATM   16  N3  UNL     1      16.488  -1.958  53.155  1.00  0.00    -0.135 NA
HETATM   17  N4  UNL     1      16.819  -3.189  53.129  1.00  0.00    -0.196 NA
HETATM   18  C13 UNL     1      15.904  -4.143  53.728  1.00  0.00     0.204 C 
ENDBRANCH  14  16
BRANCH  14  19
HETATM   19  N5  UNL     1      16.358  -0.199  51.873  1.00  0.00    -0.334 N 
HETATM   20  C14 UNL     1      15.821   1.013  52.393  1.00  0.00     0.112 A 
HETATM   21  C15 UNL     1      14.925   1.611  51.621  1.00  0.00     0.026 A 
HETATM   22 BR1  UNL     1      14.203   3.234  52.311  1.00  0.00    -0.050 Br
HETATM   23  C16 UNL     1      14.471   1.125  50.324  1.00  0.00     0.018 A 
HETATM   24  C17 UNL     1      15.030  -0.006  49.935  1.00  0.00    -0.005 A 
HETATM   25  C18 UNL     1      16.046  -0.853  50.614  1.00  0.00     0.157 A 
ENDBRANCH  14  19
BRANCH   8  26
HETATM   26  C7  UNL     1      25.201  -0.541  54.421  1.00  0.00     0.176 C 
HETATM   27  O2  UNL     1      25.248  -1.182  55.501  1.00  0.00    -0.646 OA
BRANCH  26  28
HETATM   28  O3  UNL     1      26.384  -0.216  53.767  1.00  0.00    -0.773 OA
HETATM   29  H6  UNL     1      26.749   0.727  53.820  1.00  0.00     0.167 HD
ENDBRANCH  26  28
ENDBRANCH   8  26
TORSDOF 4
ENDMDL
