MODEL 1
REMARK VINA RESULT:      -7.1      0.000      0.000
REMARK  7 active torsions:
REMARK  status: ('A' for Active; 'I' for Inactive)
REMARK    1  A    between atoms: C5_5  and  C6_6 
REMARK    2  A    between atoms: C5_5  and  O2_17 
REMARK    3  A    between atoms: C6_6  and  C7_7 
REMARK    4  A    between atoms: C7_7  and  C8_8 
REMARK    5  A    between atoms: C9_9  and  C10_10 
REMARK    6  A    between atoms: C10_10  and  N1_11 
REMARK    7  A    between atoms: O2_17  and  C15_18 
ROOT
HETATM    1  C1  UNL     1      28.196   2.210  53.395  1.00  0.00     0.021 C 
HETATM    2  C2  UNL     1      27.232   1.322  53.209  1.00  0.00    -0.040 C 
HETATM    3  C3  UNL     1      25.912   1.902  52.855  1.00  0.00     0.099 C 
HETATM    4  C4  UNL     1      24.839   0.854  52.856  1.00  0.00     0.043 C 
HETATM    5  C5  UNL     1      23.572   1.205  52.699  1.00  0.00     0.069 C 
HETATM    6  N2  UNL     1      25.242  -0.496  53.023  1.00  0.00    -0.365 N 
HETATM    7  C17 UNL     1      26.556  -0.959  53.272  1.00  0.00     0.111 C 
HETATM    8  C18 UNL     1      27.541  -0.088  53.365  1.00  0.00     0.065 C 
HETATM    9  C19 UNL     1      28.883  -0.520  53.615  1.00  0.00     0.101 C 
HETATM   10  N3  UNL     1      29.977  -0.874  53.828  1.00  0.00    -0.191 NA
HETATM   11  H26 UNL     1      24.542  -1.268  52.968  1.00  0.00     0.165 HD
ENDROOT
BRANCH   5  12
HETATM   12  C6  UNL     1      23.165   2.605  52.519  1.00  0.00     0.070 C 
BRANCH  12  13
HETATM   13  C7  UNL     1      22.351   2.853  51.266  1.00  0.00     0.033 C 
BRANCH  13  14
HETATM   14  C8  UNL     1      23.080   2.489  50.026  1.00  0.00    -0.029 C 
HETATM   15  C9  UNL     1      23.816   3.073  49.060  1.00  0.00    -0.001 C 
BRANCH  15  16
HETATM   16  C10 UNL     1      24.039   4.535  49.155  1.00  0.00     0.299 C 
BRANCH  16  17
HETATM   17  N1  UNL     1      25.057   4.833  50.134  1.00  0.00     0.096 N 
HETATM   18  C11 UNL     1      25.231   6.244  50.318  1.00  0.00     0.299 C 
HETATM   19  C12 UNL     1      25.906   6.829  49.105  1.00  0.00     0.198 C 
HETATM   20  O1  UNL     1      27.144   6.246  48.962  1.00  0.00    -0.388 OA
HETATM   21  C13 UNL     1      27.088   4.872  48.755  1.00  0.00     0.198 C 
HETATM   22  C14 UNL     1      26.314   4.166  49.840  1.00  0.00     0.299 C 
ENDBRANCH  16  17
ENDBRANCH  15  16
ENDBRANCH  13  14
ENDBRANCH  12  13
ENDBRANCH   5  12
BRANCH   5  23
HETATM   23  O2  UNL     1      22.666   0.125  52.721  1.00  0.00    -0.354 OA
BRANCH  23  24
HETATM   24  C15 UNL     1      21.640   0.026  53.703  1.00  0.00     0.171 C 
HETATM   25  C16 UNL     1      22.052  -0.845  54.872  1.00  0.00     0.034 C 
ENDBRANCH  23  24
ENDBRANCH   5  23
TORSDOF 7
ENDMDL
MODEL 2
REMARK VINA RESULT:      -7.0      1.824      5.869
REMARK  7 active torsions:
REMARK  status: ('A' for Active; 'I' for Inactive)
REMARK    1  A    between atoms: C5_5  and  C6_6 
REMARK    2  A    between atoms: C5_5  and  O2_17 
REMARK    3  A    between atoms: C6_6  and  C7_7 
REMARK    4  A    between atoms: C7_7  and  C8_8 
REMARK    5  A    between atoms: C9_9  and  C10_10 
REMARK    6  A    between atoms: C10_10  and  N1_11 
REMARK    7  A    between atoms: O2_17  and  C15_18 
ROOT
HETATM    1  C1  UNL     1      26.268  -1.071  52.632  1.00  0.00     0.021 C 
HETATM    2  C2  UNL     1      26.450   0.236  52.531  1.00  0.00    -0.040 C 
HETATM    3  C3  UNL     1      25.409   0.950  51.751  1.00  0.00     0.099 C 
HETATM    4  C4  UNL     1      25.790   2.382  51.518  1.00  0.00     0.043 C 
HETATM    5  C5  UNL     1      25.052   3.143  50.723  1.00  0.00     0.069 C 
HETATM    6  N2  UNL     1      26.947   2.868  52.180  1.00  0.00    -0.365 N 
HETATM    7  C17 UNL     1      27.837   2.116  52.984  1.00  0.00     0.111 C 
HETATM    8  C18 UNL     1      27.612   0.830  53.168  1.00  0.00     0.065 C 
HETATM    9  C19 UNL     1      28.489   0.038  53.975  1.00  0.00     0.101 C 
HETATM   10  N3  UNL     1      29.213  -0.609  54.628  1.00  0.00    -0.191 NA
HETATM   11  H26 UNL     1      27.219   3.872  52.102  1.00  0.00     0.165 HD
ENDROOT
BRANCH   5  12
HETATM   12  C6  UNL     1      23.851   2.632  50.048  1.00  0.00     0.070 C 
BRANCH  12  13
HETATM   13  C7  UNL     1      22.560   2.929  50.781  1.00  0.00     0.033 C 
BRANCH  13  14
HETATM   14  C8  UNL     1      21.471   1.983  50.433  1.00  0.00    -0.029 C 
HETATM   15  C9  UNL     1      21.035   0.753  50.767  1.00  0.00    -0.001 C 
BRANCH  15  16
HETATM   16  C10 UNL     1      21.800   0.009  51.796  1.00  0.00     0.299 C 
BRANCH  16  17
HETATM   17  N1  UNL     1      21.453   0.468  53.120  1.00  0.00     0.096 N 
HETATM   18  C11 UNL     1      22.484   0.183  54.076  1.00  0.00     0.299 C 
HETATM   19  C12 UNL     1      22.518  -1.297  54.352  1.00  0.00     0.198 C 
HETATM   20  O1  UNL     1      21.307  -1.678  54.882  1.00  0.00    -0.388 OA
HETATM   21  C13 UNL     1      20.236  -1.464  54.021  1.00  0.00     0.198 C 
HETATM   22  C14 UNL     1      20.160  -0.033  53.554  1.00  0.00     0.299 C 
ENDBRANCH  16  17
ENDBRANCH  15  16
ENDBRANCH  13  14
ENDBRANCH  12  13
ENDBRANCH   5  12
BRANCH   5  23
HETATM   23  O2  UNL     1      25.521   4.465  50.590  1.00  0.00    -0.354 OA
BRANCH  23  24
HETATM   24  C15 UNL     1      25.937   4.991  49.334  1.00  0.00     0.171 C 
HETATM   25  C16 UNL     1      27.273   4.426  48.894  1.00  0.00     0.034 C 
ENDBRANCH  23  24
ENDBRANCH   5  23
TORSDOF 7
ENDMDL
MODEL 3
REMARK VINA RESULT:      -6.9      2.459      5.008
REMARK  7 active torsions:
REMARK  status: ('A' for Active; 'I' for Inactive)
REMARK    1  A    between atoms: C5_5  and  C6_6 
REMARK    2  A    between atoms: C5_5  and  O2_17 
REMARK    3  A    between atoms: C6_6  and  C7_7 
REMARK    4  A    between atoms: C7_7  and  C8_8 
REMARK    5  A    between atoms: C9_9  and  C10_10 
REMARK    6  A    between atoms: C10_10  and  N1_11 
REMARK    7  A    between atoms: O2_17  and  C15_18 
ROOT
HETATM    1  C1  UNL     1      22.181   0.025  52.140  1.00  0.00     0.021 C 
HETATM    2  C2  UNL     1      23.127  -0.218  53.032  1.00  0.00    -0.040 C 
HETATM    3  C3  UNL     1      24.467   0.314  52.678  1.00  0.00     0.099 C 
HETATM    4  C4  UNL     1      25.516  -0.170  53.635  1.00  0.00     0.043 C 
HETATM    5  C5  UNL     1      26.794   0.088  53.402  1.00  0.00     0.069 C 
HETATM    6  N2  UNL     1      25.078  -0.892  54.775  1.00  0.00    -0.365 N 
HETATM    7  C17 UNL     1      23.749  -1.280  55.070  1.00  0.00     0.111 C 
HETATM    8  C18 UNL     1      22.783  -0.960  54.232  1.00  0.00     0.065 C 
HETATM    9  C19 UNL     1      21.427  -1.333  54.497  1.00  0.00     0.101 C 
HETATM   10  N3  UNL     1      20.320  -1.647  54.711  1.00  0.00    -0.191 NA
HETATM   11  H26 UNL     1      25.761  -1.196  55.503  1.00  0.00     0.165 HD
ENDROOT
BRANCH   5  12
HETATM   12  C6  UNL     1      27.236   0.843  52.222  1.00  0.00     0.070 C 
BRANCH  12  13
HETATM   13  C7  UNL     1      26.853   2.308  52.250  1.00  0.00     0.033 C 
BRANCH  13  14
HETATM   14  C8  UNL     1      26.642   2.872  50.894  1.00  0.00    -0.029 C 
HETATM   15  C9  UNL     1      25.648   3.373  50.135  1.00  0.00    -0.001 C 
BRANCH  15  16
HETATM   16  C10 UNL     1      24.292   3.431  50.729  1.00  0.00     0.299 C 
BRANCH  16  17
HETATM   17  N1  UNL     1      24.146   4.610  51.550  1.00  0.00     0.096 N 
HETATM   18  C11 UNL     1      23.209   4.411  52.618  1.00  0.00     0.299 C 
HETATM   19  C12 UNL     1      21.813   4.351  52.056  1.00  0.00     0.198 C 
HETATM   20  O1  UNL     1      21.531   5.549  51.439  1.00  0.00    -0.388 OA
HETATM   21  C13 UNL     1      22.372   5.831  50.369  1.00  0.00     0.198 C 
HETATM   22  C14 UNL     1      23.827   5.791  50.764  1.00  0.00     0.299 C 
ENDBRANCH  16  17
ENDBRANCH  15  16
ENDBRANCH  13  14
ENDBRANCH  12  13
ENDBRANCH   5  12
BRANCH   5  23
HETATM   23  O2  UNL     1      27.673  -0.425  54.377  1.00  0.00    -0.354 OA
BRANCH  23  24
HETATM   24  C15 UNL     1      29.047  -0.054  54.417  1.00  0.00     0.171 C 
HETATM   25  C16 UNL     1      29.932  -1.068  53.721  1.00  0.00     0.034 C 
ENDBRANCH  23  24
ENDBRANCH   5  23
TORSDOF 7
ENDMDL
MODEL 4
REMARK VINA RESULT:      -6.8      3.157      7.623
REMARK  7 active torsions:
REMARK  status: ('A' for Active; 'I' for Inactive)
REMARK    1  A    between atoms: C5_5  and  C6_6 
REMARK    2  A    between atoms: C5_5  and  O2_17 
REMARK    3  A    between atoms: C6_6  and  C7_7 
REMARK    4  A    between atoms: C7_7  and  C8_8 
REMARK    5  A    between atoms: C9_9  and  C10_10 
REMARK    6  A    between atoms: C10_10  and  N1_11 
REMARK    7  A    between atoms: O2_17  and  C15_18 
ROOT
HETATM    1  C1  UNL     1      29.139   7.793  47.305  1.00  0.00     0.021 C 
HETATM    2  C2  UNL     1      28.352   7.895  48.365  1.00  0.00    -0.040 C 
HETATM    3  C3  UNL     1      27.434   6.747  48.570  1.00  0.00     0.099 C 
HETATM    4  C4  UNL     1      26.449   7.027  49.666  1.00  0.00     0.043 C 
HETATM    5  C5  UNL     1      25.461   6.176  49.902  1.00  0.00     0.069 C 
HETATM    6  N2  UNL     1      26.629   8.215  50.420  1.00  0.00    -0.365 N 
HETATM    7  C17 UNL     1      27.603   9.218  50.196  1.00  0.00     0.111 C 
HETATM    8  C18 UNL     1      28.453   9.080  49.198  1.00  0.00     0.065 C 
HETATM    9  C19 UNL     1      29.453  10.071  48.942  1.00  0.00     0.101 C 
HETATM   10  N3  UNL     1      30.263  10.888  48.729  1.00  0.00    -0.191 NA
HETATM   11  H26 UNL     1      26.009   8.425  51.233  1.00  0.00     0.165 HD
ENDROOT
BRANCH   5  12
HETATM   12  C6  UNL     1      25.287   4.945  49.120  1.00  0.00     0.070 C 
BRANCH  12  13
HETATM   13  C7  UNL     1      26.081   3.766  49.644  1.00  0.00     0.033 C 
BRANCH  13  14
HETATM   14  C8  UNL     1      25.290   2.900  50.552  1.00  0.00    -0.029 C 
HETATM   15  C9  UNL     1      25.482   2.012  51.547  1.00  0.00    -0.001 C 
BRANCH  15  16
HETATM   16  C10 UNL     1      26.878   1.726  51.954  1.00  0.00     0.299 C 
BRANCH  16  17
HETATM   17  N1  UNL     1      27.125   2.200  53.296  1.00  0.00     0.096 N 
HETATM   18  C11 UNL     1      28.526   2.340  53.569  1.00  0.00     0.299 C 
HETATM   19  C12 UNL     1      29.151   0.975  53.692  1.00  0.00     0.198 C 
HETATM   20  O1  UNL     1      28.561   0.309  54.742  1.00  0.00    -0.388 OA
HETATM   21  C13 UNL     1      27.197   0.101  54.567  1.00  0.00     0.198 C 
HETATM   22  C14 UNL     1      26.456   1.387  54.297  1.00  0.00     0.299 C 
ENDBRANCH  16  17
ENDBRANCH  15  16
ENDBRANCH  13  14
ENDBRANCH  12  13
ENDBRANCH   5  12
BRANCH   5  23
HETATM   23  O2  UNL     1      24.608   6.560  50.956  1.00  0.00    -0.354 OA
BRANCH  23  24
HETATM   24  C15 UNL     1      23.325   5.968  51.136  1.00  0.00     0.171 C 
HETATM   25  C16 UNL     1      22.202   6.929  50.803  1.00  0.00     0.034 C 
ENDBRANCH  23  24
ENDBRANCH   5  23
TORSDOF 7
ENDMDL
MODEL 5
REMARK VINA RESULT:      -6.7      2.346      7.012
REMARK  7 active torsions:
REMARK  status: ('A' for Active; 'I' for Inactive)
REMARK    1  A    between atoms: C5_5  and  C6_6 
REMARK    2  A    between atoms: C5_5  and  O2_17 
REMARK    3  A    between atoms: C6_6  and  C7_7 
REMARK    4  A    between atoms: C7_7  and  C8_8 
REMARK    5  A    between atoms: C9_9  and  C10_10 
REMARK    6  A    between atoms: C10_10  and  N1_11 
REMARK    7  A    between atoms: O2_17  and  C15_18 
ROOT
HETATM    1  C1  UNL     1      28.681   5.322  48.343  1.00  0.00     0.021 C 
HETATM    2  C2  UNL     1      27.400   5.533  48.599  1.00  0.00    -0.040 C 
HETATM    3  C3  UNL     1      26.730   4.443  49.354  1.00  0.00     0.099 C 
HETATM    4  C4  UNL     1      25.248   4.665  49.430  1.00  0.00     0.043 C 
HETATM    5  C5  UNL     1      24.465   3.729  49.944  1.00  0.00     0.069 C 
HETATM    6  N2  UNL     1      24.745   5.898  48.941  1.00  0.00    -0.365 N 
HETATM    7  C17 UNL     1      25.490   6.923  48.308  1.00  0.00     0.111 C 
HETATM    8  C18 UNL     1      26.787   6.763  48.132  1.00  0.00     0.065 C 
HETATM    9  C19 UNL     1      27.572   7.777  47.498  1.00  0.00     0.101 C 
HETATM   10  N3  UNL     1      28.211   8.604  46.971  1.00  0.00    -0.191 NA
HETATM   11  H26 UNL     1      23.731   6.128  49.028  1.00  0.00     0.165 HD
ENDROOT
BRANCH   5  12
HETATM   12  C6  UNL     1      24.997   2.459  50.455  1.00  0.00     0.070 C 
BRANCH  12  13
HETATM   13  C7  UNL     1      24.263   1.928  51.668  1.00  0.00     0.033 C 
BRANCH  13  14
HETATM   14  C8  UNL     1      24.722   2.549  52.935  1.00  0.00    -0.029 C 
HETATM   15  C9  UNL     1      25.764   2.488  53.787  1.00  0.00    -0.001 C 
BRANCH  15  16
HETATM   16  C10 UNL     1      26.859   1.542  53.469  1.00  0.00     0.299 C 
BRANCH  16  17
HETATM   17  N1  UNL     1      26.828   0.408  54.363  1.00  0.00     0.096 N 
HETATM   18  C11 UNL     1      28.143   0.016  54.781  1.00  0.00     0.299 C 
HETATM   19  C12 UNL     1      28.867  -0.625  53.627  1.00  0.00     0.198 C 
HETATM   20  O1  UNL     1      28.175  -1.749  53.238  1.00  0.00    -0.388 OA
HETATM   21  C13 UNL     1      26.887  -1.476  52.790  1.00  0.00     0.198 C 
HETATM   22  C14 UNL     1      26.082  -0.708  53.809  1.00  0.00     0.299 C 
ENDBRANCH  16  17
ENDBRANCH  15  16
ENDBRANCH  13  14
ENDBRANCH  12  13
ENDBRANCH   5  12
BRANCH   5  23
HETATM   23  O2  UNL     1      23.096   4.064  49.954  1.00  0.00    -0.354 OA
BRANCH  23  24
HETATM   24  C15 UNL     1      22.120   3.253  49.308  1.00  0.00     0.171 C 
HETATM   25  C16 UNL     1      22.377   3.128  47.820  1.00  0.00     0.034 C 
ENDBRANCH  23  24
ENDBRANCH   5  23
TORSDOF 7
ENDMDL
MODEL 6
REMARK VINA RESULT:      -6.7      2.905      6.616
REMARK  7 active torsions:
REMARK  status: ('A' for Active; 'I' for Inactive)
REMARK    1  A    between atoms: C5_5  and  C6_6 
REMARK    2  A    between atoms: C5_5  and  O2_17 
REMARK    3  A    between atoms: C6_6  and  C7_7 
REMARK    4  A    between atoms: C7_7  and  C8_8 
REMARK    5  A    between atoms: C9_9  and  C10_10 
REMARK    6  A    between atoms: C10_10  and  N1_11 
REMARK    7  A    between atoms: O2_17  and  C15_18 
ROOT
HETATM    1  C1  UNL     1      21.288  -1.381  54.376  1.00  0.00     0.021 C 
HETATM    2  C2  UNL     1      20.981  -0.410  53.531  1.00  0.00    -0.040 C 
HETATM    3  C3  UNL     1      22.090   0.534  53.240  1.00  0.00     0.099 C 
HETATM    4  C4  UNL     1      21.610   1.707  52.438  1.00  0.00     0.043 C 
HETATM    5  C5  UNL     1      22.425   2.723  52.200  1.00  0.00     0.069 C 
HETATM    6  N2  UNL     1      20.276   1.669  51.957  1.00  0.00    -0.365 N 
HETATM    7  C17 UNL     1      19.311   0.667  52.222  1.00  0.00     0.111 C 
HETATM    8  C18 UNL     1      19.636  -0.356  52.988  1.00  0.00     0.065 C 
HETATM    9  C19 UNL     1      18.688  -1.388  53.277  1.00  0.00     0.101 C 
HETATM   10  N3  UNL     1      17.908  -2.226  53.519  1.00  0.00    -0.191 NA
HETATM   11  H26 UNL     1      19.913   2.429  51.342  1.00  0.00     0.165 HD
ENDROOT
BRANCH   5  12
HETATM   12  C6  UNL     1      23.807   2.750  52.696  1.00  0.00     0.070 C 
BRANCH  12  13
HETATM   13  C7  UNL     1      24.764   3.519  51.811  1.00  0.00     0.033 C 
BRANCH  13  14
HETATM   14  C8  UNL     1      25.584   2.635  50.947  1.00  0.00    -0.029 C 
HETATM   15  C9  UNL     1      26.607   1.764  51.048  1.00  0.00    -0.001 C 
BRANCH  15  16
HETATM   16  C10 UNL     1      27.181   1.531  52.395  1.00  0.00     0.299 C 
BRANCH  16  17
HETATM   17  N1  UNL     1      27.307   0.117  52.657  1.00  0.00     0.096 N 
HETATM   18  C11 UNL     1      26.171  -0.405  53.360  1.00  0.00     0.299 C 
HETATM   19  C12 UNL     1      26.189   0.092  54.782  1.00  0.00     0.198 C 
HETATM   20  O1  UNL     1      27.335  -0.362  55.396  1.00  0.00    -0.388 OA
HETATM   21  C13 UNL     1      28.502   0.106  54.802  1.00  0.00     0.198 C 
HETATM   22  C14 UNL     1      28.555  -0.208  53.328  1.00  0.00     0.299 C 
ENDBRANCH  16  17
ENDBRANCH  15  16
ENDBRANCH  13  14
ENDBRANCH  12  13
ENDBRANCH   5  12
BRANCH   5  23
HETATM   23  O2  UNL     1      21.848   3.759  51.437  1.00  0.00    -0.354 OA
BRANCH  23  24
HETATM   24  C15 UNL     1      21.593   5.046  51.990  1.00  0.00     0.171 C 
HETATM   25  C16 UNL     1      21.934   6.160  51.022  1.00  0.00     0.034 C 
ENDBRANCH  23  24
ENDBRANCH   5  23
TORSDOF 7
ENDMDL
MODEL 7
REMARK VINA RESULT:      -6.6      2.255      6.249
REMARK  7 active torsions:
REMARK  status: ('A' for Active; 'I' for Inactive)
REMARK    1  A    between atoms: C5_5  and  C6_6 
REMARK    2  A    between atoms: C5_5  and  O2_17 
REMARK    3  A    between atoms: C6_6  and  C7_7 
REMARK    4  A    between atoms: C7_7  and  C8_8 
REMARK    5  A    between atoms: C9_9  and  C10_10 
REMARK    6  A    between atoms: C10_10  and  N1_11 
REMARK    7  A    between atoms: O2_17  and  C15_18 
ROOT
HETATM    1  C1  UNL     1      27.179   4.357  48.952  1.00  0.00     0.021 C 
HETATM    2  C2  UNL     1      25.944   4.680  49.303  1.00  0.00    -0.040 C 
HETATM    3  C3  UNL     1      25.217   3.626  50.055  1.00  0.00     0.099 C 
HETATM    4  C4  UNL     1      23.773   3.990  50.242  1.00  0.00     0.043 C 
HETATM    5  C5  UNL     1      22.933   3.112  50.768  1.00  0.00     0.069 C 
HETATM    6  N2  UNL     1      23.368   5.289  49.841  1.00  0.00    -0.365 N 
HETATM    7  C17 UNL     1      24.172   6.265  49.203  1.00  0.00     0.111 C 
HETATM    8  C18 UNL     1      25.432   5.987  48.933  1.00  0.00     0.065 C 
HETATM    9  C19 UNL     1      26.275   6.948  48.290  1.00  0.00     0.101 C 
HETATM   10  N3  UNL     1      26.960   7.732  47.756  1.00  0.00    -0.191 NA
HETATM   11  H26 UNL     1      22.391   5.614  50.007  1.00  0.00     0.165 HD
ENDROOT
BRANCH   5  12
HETATM   12  C6  UNL     1      23.363   1.771  51.186  1.00  0.00     0.070 C 
BRANCH  12  13
HETATM   13  C7  UNL     1      23.452   1.594  52.687  1.00  0.00     0.033 C 
BRANCH  13  14
HETATM   14  C8  UNL     1      23.802   0.207  53.082  1.00  0.00    -0.029 C 
HETATM   15  C9  UNL     1      24.810  -0.469  53.666  1.00  0.00    -0.001 C 
BRANCH  15  16
HETATM   16  C10 UNL     1      26.000   0.304  54.094  1.00  0.00     0.299 C 
BRANCH  16  17
HETATM   17  N1  UNL     1      27.017   0.281  53.069  1.00  0.00     0.096 N 
HETATM   18  C11 UNL     1      28.142  -0.526  53.444  1.00  0.00     0.299 C 
HETATM   19  C12 UNL     1      28.924   0.174  54.524  1.00  0.00     0.198 C 
HETATM   20  O1  UNL     1      29.386   1.373  54.031  1.00  0.00    -0.388 OA
HETATM   21  C13 UNL     1      28.369   2.244  53.656  1.00  0.00     0.198 C 
HETATM   22  C14 UNL     1      27.420   1.617  52.665  1.00  0.00     0.299 C 
ENDBRANCH  16  17
ENDBRANCH  15  16
ENDBRANCH  13  14
ENDBRANCH  12  13
ENDBRANCH   5  12
BRANCH   5  23
HETATM   23  O2  UNL     1      21.608   3.580  50.886  1.00  0.00    -0.354 OA
BRANCH  23  24
HETATM   24  C15 UNL     1      20.490   2.708  50.751  1.00  0.00     0.171 C 
HETATM   25  C16 UNL     1      19.333   3.125  51.636  1.00  0.00     0.034 C 
ENDBRANCH  23  24
ENDBRANCH   5  23
TORSDOF 7
ENDMDL
MODEL 8
REMARK VINA RESULT:      -6.6      2.898      6.811
REMARK  7 active torsions:
REMARK  status: ('A' for Active; 'I' for Inactive)
REMARK    1  A    between atoms: C5_5  and  C6_6 
REMARK    2  A    between atoms: C5_5  and  O2_17 
REMARK    3  A    between atoms: C6_6  and  C7_7 
REMARK    4  A    between atoms: C7_7  and  C8_8 
REMARK    5  A    between atoms: C9_9  and  C10_10 
REMARK    6  A    between atoms: C10_10  and  N1_11 
REMARK    7  A    between atoms: O2_17  and  C15_18 
ROOT
HETATM    1  C1  UNL     1      21.312  -1.015  53.864  1.00  0.00     0.021 C 
HETATM    2  C2  UNL     1      20.998  -0.230  52.846  1.00  0.00    -0.040 C 
HETATM    3  C3  UNL     1      22.159   0.398  52.165  1.00  0.00     0.099 C 
HETATM    4  C4  UNL     1      21.713   1.418  51.159  1.00  0.00     0.043 C 
HETATM    5  C5  UNL     1      22.608   2.182  50.551  1.00  0.00     0.069 C 
HETATM    6  N2  UNL     1      20.322   1.516  50.898  1.00  0.00    -0.365 N 
HETATM    7  C17 UNL     1      19.289   0.800  51.549  1.00  0.00     0.111 C 
HETATM    8  C18 UNL     1      19.598  -0.056  52.502  1.00  0.00     0.065 C 
HETATM    9  C19 UNL     1      18.581  -0.799  53.182  1.00  0.00     0.101 C 
HETATM   10  N3  UNL     1      17.747  -1.398  53.742  1.00  0.00    -0.191 NA
HETATM   11  H26 UNL     1      19.966   2.165  50.163  1.00  0.00     0.165 HD
ENDROOT
BRANCH   5  12
HETATM   12  C6  UNL     1      24.048   2.068  50.823  1.00  0.00     0.070 C 
BRANCH  12  13
HETATM   13  C7  UNL     1      24.633   3.262  51.548  1.00  0.00     0.033 C 
BRANCH  13  14
HETATM   14  C8  UNL     1      24.613   3.104  53.023  1.00  0.00    -0.029 C 
HETATM   15  C9  UNL     1      25.283   2.454  53.994  1.00  0.00    -0.001 C 
BRANCH  15  16
HETATM   16  C10 UNL     1      26.421   1.595  53.587  1.00  0.00     0.299 C 
BRANCH  16  17
HETATM   17  N1  UNL     1      26.528   0.447  54.457  1.00  0.00     0.096 N 
HETATM   18  C11 UNL     1      27.891   0.153  54.795  1.00  0.00     0.299 C 
HETATM   19  C12 UNL     1      28.597  -0.409  53.589  1.00  0.00     0.198 C 
HETATM   20  O1  UNL     1      27.974  -1.577  53.214  1.00  0.00    -0.388 OA
HETATM   21  C13 UNL     1      26.645  -1.399  52.843  1.00  0.00     0.198 C 
HETATM   22  C14 UNL     1      25.841  -0.715  53.920  1.00  0.00     0.299 C 
ENDBRANCH  16  17
ENDBRANCH  15  16
ENDBRANCH  13  14
ENDBRANCH  12  13
ENDBRANCH   5  12
BRANCH   5  23
HETATM   23  O2  UNL     1      22.057   3.098  49.633  1.00  0.00    -0.354 OA
BRANCH  23  24
HETATM   24  C15 UNL     1      22.631   3.310  48.347  1.00  0.00     0.171 C 
HETATM   25  C16 UNL     1      22.490   2.095  47.452  1.00  0.00     0.034 C 
ENDBRANCH  23  24
ENDBRANCH   5  23
TORSDOF 7
ENDMDL
MODEL 9
REMARK VINA RESULT:      -6.5      2.403      6.808
REMARK  7 active torsions:
REMARK  status: ('A' for Active; 'I' for Inactive)
REMARK    1  A    between atoms: C5_5  and  C6_6 
REMARK    2  A    between atoms: C5_5  and  O2_17 
REMARK    3  A    between atoms: C6_6  and  C7_7 
REMARK    4  A    between atoms: C7_7  and  C8_8 
REMARK    5  A    between atoms: C9_9  and  C10_10 
REMARK    6  A    between atoms: C10_10  and  N1_11 
REMARK    7  A    between atoms: O2_17  and  C15_18 
ROOT
HETATM    1  C1  UNL     1      26.613   6.242  48.753  1.00  0.00     0.021 C 
HETATM    2  C2  UNL     1      25.695   6.253  49.706  1.00  0.00    -0.040 C 
HETATM    3  C3  UNL     1      25.110   4.925  50.020  1.00  0.00     0.099 C 
HETATM    4  C4  UNL     1      23.948   5.051  50.961  1.00  0.00     0.043 C 
HETATM    5  C5  UNL     1      23.212   3.989  51.248  1.00  0.00     0.069 C 
HETATM    6  N2  UNL     1      23.690   6.332  51.515  1.00  0.00    -0.365 N 
HETATM    7  C17 UNL     1      24.370   7.535  51.211  1.00  0.00     0.111 C 
HETATM    8  C18 UNL     1      25.352   7.518  50.331  1.00  0.00     0.065 C 
HETATM    9  C19 UNL     1      26.063   8.715  49.999  1.00  0.00     0.101 C 
HETATM   10  N3  UNL     1      26.637   9.696  49.724  1.00  0.00    -0.191 NA
HETATM   11  H26 UNL     1      22.933   6.460  52.221  1.00  0.00     0.165 HD
ENDROOT
BRANCH   5  12
HETATM   12  C6  UNL     1      23.492   2.665  50.675  1.00  0.00     0.070 C 
BRANCH  12  13
HETATM   13  C7  UNL     1      24.382   1.797  51.538  1.00  0.00     0.033 C 
BRANCH  13  14
HETATM   14  C8  UNL     1      24.647   2.392  52.871  1.00  0.00    -0.029 C 
HETATM   15  C9  UNL     1      25.597   2.387  53.826  1.00  0.00    -0.001 C 
BRANCH  15  16
HETATM   16  C10 UNL     1      26.809   1.569  53.586  1.00  0.00     0.299 C 
BRANCH  16  17
HETATM   17  N1  UNL     1      26.835   0.426  54.468  1.00  0.00     0.096 N 
HETATM   18  C11 UNL     1      28.174   0.027  54.794  1.00  0.00     0.299 C 
HETATM   19  C12 UNL     1      28.818  -0.604  53.587  1.00  0.00     0.198 C 
HETATM   20  O1  UNL     1      28.097  -1.722  53.234  1.00  0.00    -0.388 OA
HETATM   21  C13 UNL     1      26.783  -1.443  52.876  1.00  0.00     0.198 C 
HETATM   22  C14 UNL     1      26.050  -0.684  53.954  1.00  0.00     0.299 C 
ENDBRANCH  16  17
ENDBRANCH  15  16
ENDBRANCH  13  14
ENDBRANCH  12  13
ENDBRANCH   5  12
BRANCH   5  23
HETATM   23  O2  UNL     1      22.152   4.245  52.141  1.00  0.00    -0.354 OA
BRANCH  23  24
HETATM   24  C15 UNL     1      20.901   3.573  52.035  1.00  0.00     0.171 C 
HETATM   25  C16 UNL     1      19.993   4.218  51.007  1.00  0.00     0.034 C 
ENDBRANCH  23  24
ENDBRANCH   5  23
TORSDOF 7
ENDMDL
