MODEL 1
REMARK VINA RESULT:      -7.8      0.000      0.000
REMARK  7 active torsions:
REMARK  status: ('A' for Active; 'I' for Inactive)
REMARK    1  A    between atoms: C7_7  and  N1_8 
REMARK    2  A    between atoms: N1_8  and  C8_9 
REMARK    3  A    between atoms: C12_14  and  N3_15 
REMARK    4  A    between atoms: N3_15  and  C14_17 
REMARK    5  A    between atoms: C14_17  and  C16_19 
REMARK    6  A    between atoms: C17_20  and  N4_21 
REMARK    7  A    between atoms: N4_21  and  C19_23 
ROOT
HETATM    1  C8  UNL     1      25.835   1.518  52.848  1.00  0.00     0.157 C 
HETATM    2  N2  UNL     1      26.291   2.450  52.048  1.00  0.00    -0.231 NA
HETATM    3  C9  UNL     1      25.408   2.830  50.960  1.00  0.00     0.066 A 
HETATM    4  C10 UNL     1      25.708   3.299  49.762  1.00  0.00     0.032 A 
HETATM    5  C11 UNL     1      24.408   3.477  49.123  1.00  0.00     0.029 A 
HETATM    6  C12 UNL     1      23.365   3.133  49.890  1.00  0.00     0.037 A 
HETATM    7  C20 UNL     1      23.962   2.729  51.170  1.00  0.00     0.192 A 
HETATM    8  N5  UNL     1      23.496   1.541  51.792  1.00  0.00    -0.321 N 
HETATM    9  C21 UNL     1      22.410   0.772  51.874  1.00  0.00     0.210 A 
HETATM   10  N6  UNL     1      22.637  -0.191  52.822  1.00  0.00    -0.254 NA
HETATM   11  C22 UNL     1      23.876  -0.002  53.317  1.00  0.00     0.151 A 
HETATM   12  C23 UNL     1      24.432   1.105  52.658  1.00  0.00     0.100 A 
ENDROOT
BRANCH   6  13
HETATM   13  N3  UNL     1      22.063   3.269  49.351  1.00  0.00    -0.379 N 
HETATM   14  C13 UNL     1      21.404   2.143  48.660  1.00  0.00     0.150 C 
BRANCH  13  15
HETATM   15  C14 UNL     1      21.271   4.507  49.405  1.00  0.00     0.104 C 
HETATM   16  C15 UNL     1      19.915   4.193  48.816  1.00  0.00     0.037 C 
BRANCH  15  17
HETATM   17  C16 UNL     1      21.087   4.969  50.797  1.00  0.00     0.015 C 
HETATM   18  C17 UNL     1      21.717   6.045  51.217  1.00  0.00     0.090 C 
BRANCH  18  19
HETATM   19  N4  UNL     1      22.616   6.990  50.651  1.00  0.00    -0.351 N 
HETATM   20  C18 UNL     1      22.311   8.159  49.879  1.00  0.00     0.156 C 
BRANCH  19  21
HETATM   21  C19 UNL     1      24.028   6.815  50.856  1.00  0.00     0.475 C 
HETATM   22  O1  UNL     1      25.268   6.698  50.719  1.00  0.00    -0.392 OA
ENDBRANCH  19  21
ENDBRANCH  18  19
ENDBRANCH  15  17
ENDBRANCH  13  15
ENDBRANCH   6  13
BRANCH   1  23
HETATM   23  N1  UNL     1      26.608   1.043  53.938  1.00  0.00    -0.339 N 
HETATM   24  H8  UNL     1      26.469   1.410  54.906  1.00  0.00     0.167 HD
BRANCH  23  25
HETATM   25  C7  UNL     1      27.589   0.037  53.668  1.00  0.00     0.039 A 
HETATM   26  C2  UNL     1      28.914   0.427  53.893  1.00  0.00    -0.035 A 
HETATM   27  C1  UNL     1      29.281   1.802  54.394  1.00  0.00     0.050 C 
HETATM   28  C3  UNL     1      30.007  -0.422  53.669  1.00  0.00     0.009 A 
HETATM   29  C4  UNL     1      29.724  -1.698  53.207  1.00  0.00     0.001 A 
HETATM   30  C5  UNL     1      28.408  -2.095  52.981  1.00  0.00     0.002 A 
HETATM   31  C6  UNL     1      27.369  -1.223  53.215  1.00  0.00     0.030 A 
ENDBRANCH  23  25
ENDBRANCH   1  23
TORSDOF 7
ENDMDL
MODEL 2
REMARK VINA RESULT:      -7.8      1.358      2.508
REMARK  7 active torsions:
REMARK  status: ('A' for Active; 'I' for Inactive)
REMARK    1  A    between atoms: C7_7  and  N1_8 
REMARK    2  A    between atoms: N1_8  and  C8_9 
REMARK    3  A    between atoms: C12_14  and  N3_15 
REMARK    4  A    between atoms: N3_15  and  C14_17 
REMARK    5  A    between atoms: C14_17  and  C16_19 
REMARK    6  A    between atoms: C17_20  and  N4_21 
REMARK    7  A    between atoms: N4_21  and  C19_23 
ROOT
HETATM    1  C8  UNL     1      25.546   1.127  53.482  1.00  0.00     0.157 C 
HETATM    2  N2  UNL     1      24.333   0.710  53.749  1.00  0.00    -0.231 NA
HETATM    3  C9  UNL     1      23.301   1.150  52.827  1.00  0.00     0.066 A 
HETATM    4  C10 UNL     1      22.015   1.357  53.043  1.00  0.00     0.032 A 
HETATM    5  C11 UNL     1      21.509   1.796  51.747  1.00  0.00     0.029 A 
HETATM    6  C12 UNL     1      22.438   1.855  50.784  1.00  0.00     0.037 A 
HETATM    7  C20 UNL     1      23.672   1.385  51.429  1.00  0.00     0.192 A 
HETATM    8  N5  UNL     1      24.873   2.110  51.208  1.00  0.00    -0.321 N 
HETATM    9  C21 UNL     1      25.457   2.897  50.304  1.00  0.00     0.210 A 
HETATM   10  N6  UNL     1      26.744   3.133  50.709  1.00  0.00    -0.254 NA
HETATM   11  C22 UNL     1      26.939   2.483  51.873  1.00  0.00     0.151 A 
HETATM   12  C23 UNL     1      25.742   1.828  52.199  1.00  0.00     0.100 A 
ENDROOT
BRANCH   6  13
HETATM   13  N3  UNL     1      22.040   2.274  49.493  1.00  0.00    -0.379 N 
HETATM   14  C13 UNL     1      21.324   1.358  48.582  1.00  0.00     0.150 C 
BRANCH  13  15
HETATM   15  C14 UNL     1      22.305   3.609  48.938  1.00  0.00     0.104 C 
HETATM   16  C15 UNL     1      22.046   3.533  47.451  1.00  0.00     0.037 C 
BRANCH  15  17
HETATM   17  C16 UNL     1      21.404   4.625  49.524  1.00  0.00     0.015 C 
HETATM   18  C17 UNL     1      21.855   5.444  50.449  1.00  0.00     0.090 C 
BRANCH  18  19
HETATM   19  N4  UNL     1      23.096   5.653  51.112  1.00  0.00    -0.351 N 
HETATM   20  C18 UNL     1      24.222   6.425  50.674  1.00  0.00     0.156 C 
BRANCH  19  21
HETATM   21  C19 UNL     1      23.304   5.051  52.400  1.00  0.00     0.475 C 
HETATM   22  O1  UNL     1      23.792   4.570  53.449  1.00  0.00    -0.392 OA
ENDBRANCH  19  21
ENDBRANCH  18  19
ENDBRANCH  15  17
ENDBRANCH  13  15
ENDBRANCH   6  13
BRANCH   1  23
HETATM   23  N1  UNL     1      26.640   0.786  54.317  1.00  0.00    -0.339 N 
HETATM   24  H8  UNL     1      26.808   1.278  55.224  1.00  0.00     0.167 HD
BRANCH  23  25
HETATM   25  C7  UNL     1      27.510  -0.261  53.878  1.00  0.00     0.039 A 
HETATM   26  C2  UNL     1      28.877   0.011  54.009  1.00  0.00    -0.035 A 
HETATM   27  C1  UNL     1      29.395   1.306  54.583  1.00  0.00     0.050 C 
HETATM   28  C3  UNL     1      29.874  -0.893  53.618  1.00  0.00     0.009 A 
HETATM   29  C4  UNL     1      29.451  -2.099  53.082  1.00  0.00     0.001 A 
HETATM   30  C5  UNL     1      28.093  -2.378  52.949  1.00  0.00     0.002 A 
HETATM   31  C6  UNL     1      27.151  -1.458  53.347  1.00  0.00     0.030 A 
ENDBRANCH  23  25
ENDBRANCH   1  23
TORSDOF 7
ENDMDL
MODEL 3
REMARK VINA RESULT:      -7.7      2.189      2.889
REMARK  7 active torsions:
REMARK  status: ('A' for Active; 'I' for Inactive)
REMARK    1  A    between atoms: C7_7  and  N1_8 
REMARK    2  A    between atoms: N1_8  and  C8_9 
REMARK    3  A    between atoms: C12_14  and  N3_15 
REMARK    4  A    between atoms: N3_15  and  C14_17 
REMARK    5  A    between atoms: C14_17  and  C16_19 
REMARK    6  A    between atoms: C17_20  and  N4_21 
REMARK    7  A    between atoms: N4_21  and  C19_23 
ROOT
HETATM    1  C8  UNL     1      25.901   1.518  52.985  1.00  0.00     0.157 C 
HETATM    2  N2  UNL     1      26.295   2.474  52.180  1.00  0.00    -0.231 NA
HETATM    3  C9  UNL     1      25.367   2.826  51.121  1.00  0.00     0.066 A 
HETATM    4  C10 UNL     1      25.612   3.316  49.919  1.00  0.00     0.032 A 
HETATM    5  C11 UNL     1      24.288   3.445  49.319  1.00  0.00     0.029 A 
HETATM    6  C12 UNL     1      23.282   3.055  50.113  1.00  0.00     0.037 A 
HETATM    7  C20 UNL     1      23.932   2.665  51.372  1.00  0.00     0.192 A 
HETATM    8  N5  UNL     1      23.533   1.455  51.997  1.00  0.00    -0.321 N 
HETATM    9  C21 UNL     1      22.481   0.643  52.104  1.00  0.00     0.210 A 
HETATM   10  N6  UNL     1      22.774  -0.318  53.037  1.00  0.00    -0.254 NA
HETATM   11  C22 UNL     1      24.018  -0.083  53.497  1.00  0.00     0.151 A 
HETATM   12  C23 UNL     1      24.510   1.050  52.832  1.00  0.00     0.100 A 
ENDROOT
BRANCH   6  13
HETATM   13  N3  UNL     1      21.962   3.142  49.613  1.00  0.00    -0.379 N 
HETATM   14  C13 UNL     1      20.925   3.911  50.332  1.00  0.00     0.150 C 
BRANCH  13  15
HETATM   15  C14 UNL     1      21.497   2.486  48.382  1.00  0.00     0.104 C 
HETATM   16  C15 UNL     1      21.304   1.022  48.704  1.00  0.00     0.037 C 
BRANCH  15  17
HETATM   17  C16 UNL     1      20.206   3.045  47.927  1.00  0.00     0.015 C 
HETATM   18  C17 UNL     1      20.175   3.867  46.901  1.00  0.00     0.090 C 
BRANCH  18  19
HETATM   19  N4  UNL     1      21.132   4.425  46.009  1.00  0.00    -0.351 N 
HETATM   20  C18 UNL     1      22.182   5.358  46.297  1.00  0.00     0.156 C 
BRANCH  19  21
HETATM   21  C19 UNL     1      21.104   4.032  44.627  1.00  0.00     0.475 C 
HETATM   22  O1  UNL     1      20.850   3.492  43.524  1.00  0.00    -0.392 OA
ENDBRANCH  19  21
ENDBRANCH  18  19
ENDBRANCH  15  17
ENDBRANCH  13  15
ENDBRANCH   6  13
BRANCH   1  23
HETATM   23  N1  UNL     1      26.723   1.067  54.048  1.00  0.00    -0.339 N 
HETATM   24  H8  UNL     1      26.613   1.437  55.018  1.00  0.00     0.167 HD
BRANCH  23  25
HETATM   25  C7  UNL     1      27.714   0.079  53.748  1.00  0.00     0.039 A 
HETATM   26  C2  UNL     1      29.036   0.478  53.977  1.00  0.00    -0.035 A 
HETATM   27  C1  UNL     1      29.390   1.842  54.513  1.00  0.00     0.050 C 
HETATM   28  C3  UNL     1      30.136  -0.354  53.727  1.00  0.00     0.009 A 
HETATM   29  C4  UNL     1      29.866  -1.620  53.232  1.00  0.00     0.001 A 
HETATM   30  C5  UNL     1      28.553  -2.025  53.002  1.00  0.00     0.002 A 
HETATM   31  C6  UNL     1      27.505  -1.171  53.263  1.00  0.00     0.030 A 
ENDBRANCH  23  25
ENDBRANCH   1  23
TORSDOF 7
ENDMDL
MODEL 4
REMARK VINA RESULT:      -7.7      2.058      3.145
REMARK  7 active torsions:
REMARK  status: ('A' for Active; 'I' for Inactive)
REMARK    1  A    between atoms: C7_7  and  N1_8 
REMARK    2  A    between atoms: N1_8  and  C8_9 
REMARK    3  A    between atoms: C12_14  and  N3_15 
REMARK    4  A    between atoms: N3_15  and  C14_17 
REMARK    5  A    between atoms: C14_17  and  C16_19 
REMARK    6  A    between atoms: C17_20  and  N4_21 
REMARK    7  A    between atoms: N4_21  and  C19_23 
ROOT
HETATM    1  C8  UNL     1      26.184   1.864  52.650  1.00  0.00     0.157 C 
HETATM    2  N2  UNL     1      26.983   2.523  51.846  1.00  0.00    -0.231 NA
HETATM    3  C9  UNL     1      26.331   3.260  50.779  1.00  0.00     0.066 A 
HETATM    4  C10 UNL     1      26.783   3.573  49.578  1.00  0.00     0.032 A 
HETATM    5  C11 UNL     1      25.675   4.300  48.967  1.00  0.00     0.029 A 
HETATM    6  C12 UNL     1      24.598   4.426  49.753  1.00  0.00     0.037 A 
HETATM    7  C20 UNL     1      24.984   3.786  51.019  1.00  0.00     0.192 A 
HETATM    8  N5  UNL     1      24.064   2.904  51.643  1.00  0.00    -0.321 N 
HETATM    9  C21 UNL     1      22.755   2.674  51.743  1.00  0.00     0.210 A 
HETATM   10  N6  UNL     1      22.562   1.693  52.680  1.00  0.00    -0.254 NA
HETATM   11  C22 UNL     1      23.770   1.325  53.150  1.00  0.00     0.151 A 
HETATM   12  C23 UNL     1      24.736   2.096  52.486  1.00  0.00     0.100 A 
ENDROOT
BRANCH   6  13
HETATM   13  N3  UNL     1      23.472   5.115  49.243  1.00  0.00    -0.379 N 
HETATM   14  C13 UNL     1      23.267   6.551  49.522  1.00  0.00     0.150 C 
BRANCH  13  15
HETATM   15  C14 UNL     1      22.420   4.491  48.428  1.00  0.00     0.104 C 
HETATM   16  C15 UNL     1      22.359   5.248  47.123  1.00  0.00     0.037 C 
BRANCH  15  17
HETATM   17  C16 UNL     1      22.730   3.074  48.141  1.00  0.00     0.015 C 
HETATM   18  C17 UNL     1      21.780   2.168  48.219  1.00  0.00     0.090 C 
BRANCH  18  19
HETATM   19  N4  UNL     1      20.392   2.165  48.531  1.00  0.00    -0.351 N 
HETATM   20  C18 UNL     1      19.330   2.871  47.877  1.00  0.00     0.156 C 
BRANCH  19  21
HETATM   21  C19 UNL     1      19.929   1.357  49.626  1.00  0.00     0.475 C 
HETATM   22  O1  UNL     1      19.832   0.665  50.666  1.00  0.00    -0.392 OA
ENDBRANCH  19  21
ENDBRANCH  18  19
ENDBRANCH  15  17
ENDBRANCH  13  15
ENDBRANCH   6  13
BRANCH   1  23
HETATM   23  N1  UNL     1      26.696   1.088  53.720  1.00  0.00    -0.339 N 
HETATM   24  H8  UNL     1      26.647   1.422  54.709  1.00  0.00     0.167 HD
BRANCH  23  25
HETATM   25  C7  UNL     1      27.283  -0.177  53.402  1.00  0.00     0.039 A 
HETATM   26  C2  UNL     1      28.651  -0.281  53.680  1.00  0.00    -0.035 A 
HETATM   27  C1  UNL     1      29.445   0.851  54.283  1.00  0.00     0.050 C 
HETATM   28  C3  UNL     1      29.395  -1.441  53.421  1.00  0.00     0.009 A 
HETATM   29  C4  UNL     1      28.712  -2.512  52.865  1.00  0.00     0.001 A 
HETATM   30  C5  UNL     1      27.351  -2.417  52.585  1.00  0.00     0.002 A 
HETATM   31  C6  UNL     1      26.664  -1.255  52.858  1.00  0.00     0.030 A 
ENDBRANCH  23  25
ENDBRANCH   1  23
TORSDOF 7
ENDMDL
MODEL 5
REMARK VINA RESULT:      -7.6      3.555      5.229
REMARK  7 active torsions:
REMARK  status: ('A' for Active; 'I' for Inactive)
REMARK    1  A    between atoms: C7_7  and  N1_8 
REMARK    2  A    between atoms: N1_8  and  C8_9 
REMARK    3  A    between atoms: C12_14  and  N3_15 
REMARK    4  A    between atoms: N3_15  and  C14_17 
REMARK    5  A    between atoms: C14_17  and  C16_19 
REMARK    6  A    between atoms: C17_20  and  N4_21 
REMARK    7  A    between atoms: N4_21  and  C19_23 
ROOT
HETATM    1  C8  UNL     1      25.020   0.720  53.434  1.00  0.00     0.157 C 
HETATM    2  N2  UNL     1      24.155  -0.156  53.885  1.00  0.00    -0.231 NA
HETATM    3  C9  UNL     1      22.807  -0.035  53.359  1.00  0.00     0.066 A 
HETATM    4  C10 UNL     1      21.656  -0.359  53.919  1.00  0.00     0.032 A 
HETATM    5  C11 UNL     1      20.664   0.006  52.913  1.00  0.00     0.029 A 
HETATM    6  C12 UNL     1      21.180   0.528  51.793  1.00  0.00     0.037 A 
HETATM    7  C20 UNL     1      22.635   0.489  52.002  1.00  0.00     0.192 A 
HETATM    8  N5  UNL     1      23.401   1.636  51.666  1.00  0.00    -0.321 N 
HETATM    9  C21 UNL     1      23.386   2.687  50.846  1.00  0.00     0.210 A 
HETATM   10  N6  UNL     1      24.582   3.345  50.972  1.00  0.00    -0.254 NA
HETATM   11  C22 UNL     1      25.326   2.684  51.879  1.00  0.00     0.151 A 
HETATM   12  C23 UNL     1      24.572   1.590  52.330  1.00  0.00     0.100 A 
ENDROOT
BRANCH   6  13
HETATM   13  N3  UNL     1      20.292   0.915  50.762  1.00  0.00    -0.379 N 
HETATM   14  C13 UNL     1      20.739   0.976  49.356  1.00  0.00     0.150 C 
BRANCH  13  15
HETATM   15  C14 UNL     1      18.890   1.299  50.979  1.00  0.00     0.104 C 
HETATM   16  C15 UNL     1      18.754   2.743  50.556  1.00  0.00     0.037 C 
BRANCH  15  17
HETATM   17  C16 UNL     1      17.973   0.477  50.162  1.00  0.00     0.015 C 
HETATM   18  C17 UNL     1      17.094  -0.304  50.751  1.00  0.00     0.090 C 
BRANCH  18  19
HETATM   19  N4  UNL     1      16.736  -0.611  52.093  1.00  0.00    -0.351 N 
HETATM   20  C18 UNL     1      17.340  -1.561  52.982  1.00  0.00     0.156 C 
BRANCH  19  21
HETATM   21  C19 UNL     1      15.644   0.099  52.700  1.00  0.00     0.475 C 
HETATM   22  O1  UNL     1      14.670   0.454  53.404  1.00  0.00    -0.392 OA
ENDBRANCH  19  21
ENDBRANCH  18  19
ENDBRANCH  15  17
ENDBRANCH  13  15
ENDBRANCH   6  13
BRANCH   1  23
HETATM   23  N1  UNL     1      26.364   0.723  53.884  1.00  0.00    -0.339 N 
HETATM   24  H8  UNL     1      26.748   1.512  54.451  1.00  0.00     0.167 HD
BRANCH  23  25
HETATM   25  C7  UNL     1      27.184  -0.397  53.537  1.00  0.00     0.039 A 
HETATM   26  C2  UNL     1      28.540  -0.260  53.858  1.00  0.00    -0.035 A 
HETATM   27  C1  UNL     1      29.094   0.971  54.532  1.00  0.00     0.050 C 
HETATM   28  C3  UNL     1      29.492  -1.250  53.580  1.00  0.00     0.009 A 
HETATM   29  C4  UNL     1      29.035  -2.402  52.960  1.00  0.00     0.001 A 
HETATM   30  C5  UNL     1      27.687  -2.547  52.637  1.00  0.00     0.002 A 
HETATM   31  C6  UNL     1      26.790  -1.546  52.931  1.00  0.00     0.030 A 
ENDBRANCH  23  25
ENDBRANCH   1  23
TORSDOF 7
ENDMDL
MODEL 6
REMARK VINA RESULT:      -7.5      1.623      2.461
REMARK  7 active torsions:
REMARK  status: ('A' for Active; 'I' for Inactive)
REMARK    1  A    between atoms: C7_7  and  N1_8 
REMARK    2  A    between atoms: N1_8  and  C8_9 
REMARK    3  A    between atoms: C12_14  and  N3_15 
REMARK    4  A    between atoms: N3_15  and  C14_17 
REMARK    5  A    between atoms: C14_17  and  C16_19 
REMARK    6  A    between atoms: C17_20  and  N4_21 
REMARK    7  A    between atoms: N4_21  and  C19_23 
ROOT
HETATM    1  C8  UNL     1      25.540   1.195  52.315  1.00  0.00     0.157 C 
HETATM    2  N2  UNL     1      26.464   1.960  51.786  1.00  0.00    -0.231 NA
HETATM    3  C9  UNL     1      25.990   2.958  50.845  1.00  0.00     0.066 A 
HETATM    4  C10 UNL     1      26.610   3.499  49.811  1.00  0.00     0.032 A 
HETATM    5  C11 UNL     1      25.622   4.417  49.254  1.00  0.00     0.029 A 
HETATM    6  C12 UNL     1      24.456   4.439  49.912  1.00  0.00     0.037 A 
HETATM    7  C20 UNL     1      24.645   3.509  51.034  1.00  0.00     0.192 A 
HETATM    8  N5  UNL     1      23.616   2.575  51.324  1.00  0.00    -0.321 N 
HETATM    9  C21 UNL     1      22.297   2.418  51.209  1.00  0.00     0.210 A 
HETATM   10  N6  UNL     1      21.943   1.269  51.866  1.00  0.00    -0.254 NA
HETATM   11  C22 UNL     1      23.062   0.725  52.382  1.00  0.00     0.151 A 
HETATM   12  C23 UNL     1      24.137   1.556  52.034  1.00  0.00     0.100 A 
ENDROOT
BRANCH   6  13
HETATM   13  N3  UNL     1      23.436   5.299  49.440  1.00  0.00    -0.379 N 
HETATM   14  C13 UNL     1      22.783   5.062  48.137  1.00  0.00     0.150 C 
BRANCH  13  15
HETATM   15  C14 UNL     1      22.953   6.484  50.164  1.00  0.00     0.104 C 
HETATM   16  C15 UNL     1      21.955   6.002  51.191  1.00  0.00     0.037 C 
BRANCH  15  17
HETATM   17  C16 UNL     1      24.057   7.175  50.863  1.00  0.00     0.015 C 
HETATM   18  C17 UNL     1      24.811   8.031  50.208  1.00  0.00     0.090 C 
BRANCH  18  19
HETATM   19  N4  UNL     1      24.869   8.536  48.880  1.00  0.00    -0.351 N 
HETATM   20  C18 UNL     1      24.027   9.519  48.262  1.00  0.00     0.156 C 
BRANCH  19  21
HETATM   21  C19 UNL     1      25.892   8.047  47.996  1.00  0.00     0.475 C 
HETATM   22  O1  UNL     1      26.861   7.444  47.479  1.00  0.00    -0.392 OA
ENDBRANCH  19  21
ENDBRANCH  18  19
ENDBRANCH  15  17
ENDBRANCH  13  15
ENDBRANCH   6  13
BRANCH   1  23
HETATM   23  N1  UNL     1      25.874   0.168  53.232  1.00  0.00    -0.339 N 
HETATM   24  H8  UNL     1      25.137  -0.385  53.724  1.00  0.00     0.167 HD
BRANCH  23  25
HETATM   25  C7  UNL     1      27.262  -0.092  53.463  1.00  0.00     0.039 A 
HETATM   26  C2  UNL     1      27.724  -1.319  52.971  1.00  0.00    -0.035 A 
HETATM   27  C1  UNL     1      26.830  -2.288  52.239  1.00  0.00     0.050 C 
HETATM   28  C3  UNL     1      29.050  -1.747  53.117  1.00  0.00     0.009 A 
HETATM   29  C4  UNL     1      29.915  -0.893  53.784  1.00  0.00     0.001 A 
HETATM   30  C5  UNL     1      29.463   0.330  54.277  1.00  0.00     0.002 A 
HETATM   31  C6  UNL     1      28.150   0.706  54.108  1.00  0.00     0.030 A 
ENDBRANCH  23  25
ENDBRANCH   1  23
TORSDOF 7
ENDMDL
MODEL 7
REMARK VINA RESULT:      -7.5      1.935      3.317
REMARK  7 active torsions:
REMARK  status: ('A' for Active; 'I' for Inactive)
REMARK    1  A    between atoms: C7_7  and  N1_8 
REMARK    2  A    between atoms: N1_8  and  C8_9 
REMARK    3  A    between atoms: C12_14  and  N3_15 
REMARK    4  A    between atoms: N3_15  and  C14_17 
REMARK    5  A    between atoms: C14_17  and  C16_19 
REMARK    6  A    between atoms: C17_20  and  N4_21 
REMARK    7  A    between atoms: N4_21  and  C19_23 
ROOT
HETATM    1  C8  UNL     1      25.648   1.310  51.987  1.00  0.00     0.157 C 
HETATM    2  N2  UNL     1      26.558   1.929  51.275  1.00  0.00    -0.231 NA
HETATM    3  C9  UNL     1      26.105   3.114  50.569  1.00  0.00     0.066 A 
HETATM    4  C10 UNL     1      26.550   3.641  49.443  1.00  0.00     0.032 A 
HETATM    5  C11 UNL     1      25.694   4.806  49.241  1.00  0.00     0.029 A 
HETATM    6  C12 UNL     1      24.771   4.984  50.196  1.00  0.00     0.037 A 
HETATM    7  C20 UNL     1      25.019   3.901  51.158  1.00  0.00     0.192 A 
HETATM    8  N5  UNL     1      23.909   3.170  51.659  1.00  0.00    -0.321 N 
HETATM    9  C21 UNL     1      22.605   3.305  51.903  1.00  0.00     0.210 A 
HETATM   10  N6  UNL     1      22.174   2.180  52.555  1.00  0.00    -0.254 NA
HETATM   11  C22 UNL     1      23.229   1.356  52.705  1.00  0.00     0.151 A 
HETATM   12  C23 UNL     1      24.343   1.985  52.129  1.00  0.00     0.100 A 
ENDROOT
BRANCH   6  13
HETATM   13  N3  UNL     1      23.894   6.088  50.082  1.00  0.00    -0.379 N 
HETATM   14  C13 UNL     1      24.352   7.459  50.387  1.00  0.00     0.150 C 
BRANCH  13  15
HETATM   15  C14 UNL     1      22.483   5.986  49.682  1.00  0.00     0.104 C 
HETATM   16  C15 UNL     1      21.774   7.200  50.235  1.00  0.00     0.037 C 
BRANCH  15  17
HETATM   17  C16 UNL     1      22.338   5.981  48.211  1.00  0.00     0.015 C 
HETATM   18  C17 UNL     1      22.073   4.856  47.583  1.00  0.00     0.090 C 
BRANCH  18  19
HETATM   19  N4  UNL     1      21.858   3.501  47.959  1.00  0.00    -0.351 N 
HETATM   20  C18 UNL     1      22.834   2.490  48.244  1.00  0.00     0.156 C 
BRANCH  19  21
HETATM   21  C19 UNL     1      20.509   3.026  48.103  1.00  0.00     0.475 C 
HETATM   22  O1  UNL     1      19.278   2.820  47.993  1.00  0.00    -0.392 OA
ENDBRANCH  19  21
ENDBRANCH  18  19
ENDBRANCH  15  17
ENDBRANCH  13  15
ENDBRANCH   6  13
BRANCH   1  23
HETATM   23  N1  UNL     1      25.956   0.129  52.707  1.00  0.00    -0.339 N 
HETATM   24  H8  UNL     1      25.218  -0.570  52.950  1.00  0.00     0.167 HD
BRANCH  23  25
HETATM   25  C7  UNL     1      27.318  -0.079  53.090  1.00  0.00     0.039 A 
HETATM   26  C2  UNL     1      27.805  -1.373  52.865  1.00  0.00    -0.035 A 
HETATM   27  C1  UNL     1      26.961  -2.462  52.252  1.00  0.00     0.050 C 
HETATM   28  C3  UNL     1      29.111  -1.762  53.191  1.00  0.00     0.009 A 
HETATM   29  C4  UNL     1      29.929  -0.798  53.759  1.00  0.00     0.001 A 
HETATM   30  C5  UNL     1      29.453   0.491  53.987  1.00  0.00     0.002 A 
HETATM   31  C6  UNL     1      28.162   0.825  53.649  1.00  0.00     0.030 A 
ENDBRANCH  23  25
ENDBRANCH   1  23
TORSDOF 7
ENDMDL
MODEL 8
REMARK VINA RESULT:      -7.3      2.833      4.201
REMARK  7 active torsions:
REMARK  status: ('A' for Active; 'I' for Inactive)
REMARK    1  A    between atoms: C7_7  and  N1_8 
REMARK    2  A    between atoms: N1_8  and  C8_9 
REMARK    3  A    between atoms: C12_14  and  N3_15 
REMARK    4  A    between atoms: N3_15  and  C14_17 
REMARK    5  A    between atoms: C14_17  and  C16_19 
REMARK    6  A    between atoms: C17_20  and  N4_21 
REMARK    7  A    between atoms: N4_21  and  C19_23 
ROOT
HETATM    1  C8  UNL     1      25.970   2.439  50.904  1.00  0.00     0.157 C 
HETATM    2  N2  UNL     1      27.028   3.072  50.461  1.00  0.00    -0.231 NA
HETATM    3  C9  UNL     1      26.764   4.271  49.686  1.00  0.00     0.066 A 
HETATM    4  C10 UNL     1      27.479   4.821  48.721  1.00  0.00     0.032 A 
HETATM    5  C11 UNL     1      26.696   5.989  48.330  1.00  0.00     0.029 A 
HETATM    6  C12 UNL     1      25.559   6.147  49.020  1.00  0.00     0.037 A 
HETATM    7  C20 UNL     1      25.558   5.045  49.993  1.00  0.00     0.192 A 
HETATM    8  N5  UNL     1      24.362   4.303  50.178  1.00  0.00    -0.321 N 
HETATM    9  C21 UNL     1      23.038   4.431  50.083  1.00  0.00     0.210 A 
HETATM   10  N6  UNL     1      22.461   3.293  50.581  1.00  0.00    -0.254 NA
HETATM   11  C22 UNL     1      23.448   2.467  50.980  1.00  0.00     0.151 A 
HETATM   12  C23 UNL     1      24.668   3.109  50.721  1.00  0.00     0.100 A 
ENDROOT
BRANCH   6  13
HETATM   13  N3  UNL     1      24.733   7.252  48.707  1.00  0.00    -0.379 N 
HETATM   14  C13 UNL     1      24.012   7.323  47.420  1.00  0.00     0.150 C 
BRANCH  13  15
HETATM   15  C14 UNL     1      24.530   8.410  49.590  1.00  0.00     0.104 C 
HETATM   16  C15 UNL     1      23.601   7.969  50.697  1.00  0.00     0.037 C 
BRANCH  15  17
HETATM   17  C16 UNL     1      25.804   8.859  50.191  1.00  0.00     0.015 C 
HETATM   18  C17 UNL     1      26.590   9.676  49.524  1.00  0.00     0.090 C 
BRANCH  18  19
HETATM   19  N4  UNL     1      26.555  10.321  48.256  1.00  0.00    -0.351 N 
HETATM   20  C18 UNL     1      27.098   9.866  47.010  1.00  0.00     0.156 C 
BRANCH  19  21
HETATM   21  C19 UNL     1      25.891  11.590  48.142  1.00  0.00     0.475 C 
HETATM   22  O1  UNL     1      25.606  12.798  47.969  1.00  0.00    -0.392 OA
ENDBRANCH  19  21
ENDBRANCH  18  19
ENDBRANCH  15  17
ENDBRANCH  13  15
ENDBRANCH   6  13
BRANCH   1  23
HETATM   23  N1  UNL     1      26.091   1.243  51.656  1.00  0.00    -0.339 N 
HETATM   24  H8  UNL     1      25.412   0.457  51.543  1.00  0.00     0.167 HD
BRANCH  23  25
HETATM   25  C7  UNL     1      27.181   1.145  52.578  1.00  0.00     0.039 A 
HETATM   26  C2  UNL     1      27.508  -0.158  52.971  1.00  0.00    -0.035 A 
HETATM   27  C1  UNL     1      26.776  -1.370  52.451  1.00  0.00     0.050 C 
HETATM   28  C3  UNL     1      28.537  -0.444  53.878  1.00  0.00     0.009 A 
HETATM   29  C4  UNL     1      29.242   0.635  54.387  1.00  0.00     0.001 A 
HETATM   30  C5  UNL     1      28.923   1.936  54.002  1.00  0.00     0.002 A 
HETATM   31  C6  UNL     1      27.902   2.165  53.108  1.00  0.00     0.030 A 
ENDBRANCH  23  25
ENDBRANCH   1  23
TORSDOF 7
ENDMDL
MODEL 9
REMARK VINA RESULT:      -7.1      4.348      7.895
REMARK  7 active torsions:
REMARK  status: ('A' for Active; 'I' for Inactive)
REMARK    1  A    between atoms: C7_7  and  N1_8 
REMARK    2  A    between atoms: N1_8  and  C8_9 
REMARK    3  A    between atoms: C12_14  and  N3_15 
REMARK    4  A    between atoms: N3_15  and  C14_17 
REMARK    5  A    between atoms: C14_17  and  C16_19 
REMARK    6  A    between atoms: C17_20  and  N4_21 
REMARK    7  A    between atoms: N4_21  and  C19_23 
ROOT
HETATM    1  C8  UNL     1      26.813   7.516  48.497  1.00  0.00     0.157 C 
HETATM    2  N2  UNL     1      27.342   6.375  48.129  1.00  0.00    -0.231 NA
HETATM    3  C9  UNL     1      26.830   5.198  48.806  1.00  0.00     0.066 A 
HETATM    4  C10 UNL     1      27.431   4.050  49.064  1.00  0.00     0.032 A 
HETATM    5  C11 UNL     1      26.416   3.276  49.771  1.00  0.00     0.029 A 
HETATM    6  C12 UNL     1      25.252   3.917  49.939  1.00  0.00     0.037 A 
HETATM    7  C20 UNL     1      25.440   5.211  49.268  1.00  0.00     0.192 A 
HETATM    8  N5  UNL     1      25.006   6.389  49.931  1.00  0.00    -0.321 N 
HETATM    9  C21 UNL     1      24.110   6.804  50.826  1.00  0.00     0.210 A 
HETATM   10  N6  UNL     1      24.167   8.172  50.888  1.00  0.00    -0.254 NA
HETATM   11  C22 UNL     1      25.110   8.587  50.020  1.00  0.00     0.151 A 
HETATM   12  C23 UNL     1      25.653   7.449  49.407  1.00  0.00     0.100 A 
ENDROOT
BRANCH   6  13
HETATM   13  N3  UNL     1      24.209   3.245  50.618  1.00  0.00    -0.379 N 
HETATM   14  C13 UNL     1      22.922   2.963  49.949  1.00  0.00     0.150 C 
BRANCH  13  15
HETATM   15  C14 UNL     1      24.288   2.791  52.014  1.00  0.00     0.104 C 
HETATM   16  C15 UNL     1      23.691   3.882  52.872  1.00  0.00     0.037 C 
BRANCH  15  17
HETATM   17  C16 UNL     1      23.514   1.548  52.222  1.00  0.00     0.015 C 
HETATM   18  C17 UNL     1      24.128   0.452  52.612  1.00  0.00     0.090 C 
BRANCH  18  19
HETATM   19  N4  UNL     1      25.466   0.087  52.928  1.00  0.00    -0.351 N 
HETATM   20  C18 UNL     1      26.593  -0.019  52.048  1.00  0.00     0.156 C 
BRANCH  19  21
HETATM   21  C19 UNL     1      25.799  -0.213  54.294  1.00  0.00     0.475 C 
HETATM   22  O1  UNL     1      26.383  -0.396  55.387  1.00  0.00    -0.392 OA
ENDBRANCH  19  21
ENDBRANCH  18  19
ENDBRANCH  15  17
ENDBRANCH  13  15
ENDBRANCH   6  13
BRANCH   1  23
HETATM   23  N1  UNL     1      27.240   8.742  47.928  1.00  0.00    -0.339 N 
HETATM   24  H8  UNL     1      26.594   9.334  47.359  1.00  0.00     0.167 HD
BRANCH  23  25
HETATM   25  C7  UNL     1      28.592   9.147  48.160  1.00  0.00     0.039 A 
HETATM   26  C2  UNL     1      29.418   9.128  47.029  1.00  0.00    -0.035 A 
HETATM   27  C1  UNL     1      28.917   8.723  45.665  1.00  0.00     0.050 C 
HETATM   28  C3  UNL     1      30.774   9.480  47.071  1.00  0.00     0.009 A 
HETATM   29  C4  UNL     1      31.286   9.859  48.302  1.00  0.00     0.001 A 
HETATM   30  C5  UNL     1      30.471   9.881  49.432  1.00  0.00     0.002 A 
HETATM   31  C6  UNL     1      29.145   9.526  49.340  1.00  0.00     0.030 A 
ENDBRANCH  23  25
ENDBRANCH   1  23
TORSDOF 7
ENDMDL
