MODEL 1
REMARK VINA RESULT:      -6.8      0.000      0.000
REMARK  4 active torsions:
REMARK  status: ('A' for Active; 'I' for Inactive)
REMARK    1  A    between atoms: N1_1  and  C1_2 
REMARK    2  A    between atoms: C1_2  and  C2_3 
REMARK    3  A    between atoms: C2_3  and  N2_4 
REMARK    4  A    between atoms: N2_4  and  C3_5 
ROOT
HETATM    1  C3  UNL     1      32.928   4.943  44.875  1.00  0.00     0.725 A 
HETATM    2  N3  UNL     1      32.911   3.815  45.660  1.00  0.00    -0.059 NA
HETATM    3  C4  UNL     1      32.494   3.879  46.959  1.00  0.00     0.130 A 
HETATM    4  C5  UNL     1      32.046   4.860  47.750  1.00  0.00     0.136 A 
HETATM    5  N4  UNL     1      31.660   5.126  48.973  1.00  0.00    -0.237 NA
HETATM    6  C6  UNL     1      31.449   6.452  49.011  1.00  0.00     0.212 A 
HETATM    7  N5  UNL     1      31.726   6.897  47.796  1.00  0.00    -0.324 N 
HETATM    8  C7  UNL     1      32.113   5.911  46.898  1.00  0.00     0.181 A 
HETATM    9  N6  UNL     1      32.503   5.936  45.628  1.00  0.00    -0.042 NA
HETATM   10  C8  UNL     1      31.953   8.197  47.142  1.00  0.00     0.132 C 
HETATM   11  C9  UNL     1      33.180   8.825  47.806  1.00  0.00     0.026 C 
HETATM   12  C10 UNL     1      34.156   7.790  48.206  1.00  0.00     0.027 C 
HETATM   13  C11 UNL     1      34.808   6.666  48.450  1.00  0.00    -0.001 C 
HETATM   14  C12 UNL     1      35.161   5.240  48.540  1.00  0.00    -0.026 C 
HETATM   15  C13 UNL     1      34.845   4.006  48.309  1.00  0.00    -0.002 C 
HETATM   16  C14 UNL     1      34.105   2.849  47.862  1.00  0.00     0.026 C 
HETATM   17  C15 UNL     1      32.955   2.527  47.208  1.00  0.00     0.066 C 
HETATM   18 CL1  UNL     1      32.323   0.998  46.812  1.00  0.00    -0.082 Cl
ENDROOT
BRANCH   1  19
HETATM   19  N2  UNL     1      33.212   5.507  43.618  1.00  0.00    -0.221 N 
HETATM   20  H7  UNL     1      32.357   5.512  42.978  1.00  0.00     0.177 HD
BRANCH  19  21
HETATM   21  C2  UNL     1      34.471   6.039  43.183  1.00  0.00     0.168 C 
BRANCH  21  22
HETATM   22  C1  UNL     1      34.536   7.550  43.188  1.00  0.00     0.286 C 
BRANCH  22  23
HETATM   23  N1  UNL     1      34.778   7.970  44.558  1.00  0.00     0.079 N 
HETATM   24  H1  UNL     1      34.247   8.864  44.716  1.00  0.00     0.312 HD
HETATM   25  H2  UNL     1      35.797   8.244  44.610  1.00  0.00     0.312 HD
ENDBRANCH  22  23
ENDBRANCH  21  22
ENDBRANCH  19  21
ENDBRANCH   1  19
TORSDOF 4
ENDMDL
MODEL 2
REMARK VINA RESULT:      -6.8      2.570      5.313
REMARK  4 active torsions:
REMARK  status: ('A' for Active; 'I' for Inactive)
REMARK    1  A    between atoms: N1_1  and  C1_2 
REMARK    2  A    between atoms: C1_2  and  C2_3 
REMARK    3  A    between atoms: C2_3  and  N2_4 
REMARK    4  A    between atoms: N2_4  and  C3_5 
ROOT
HETATM    1  C3  UNL     1      31.078   6.487  48.202  1.00  0.00     0.725 A 
HETATM    2  N3  UNL     1      31.977   7.481  47.897  1.00  0.00    -0.059 NA
HETATM    3  C4  UNL     1      32.958   7.270  46.970  1.00  0.00     0.130 A 
HETATM    4  C5  UNL     1      33.306   6.236  46.195  1.00  0.00     0.136 A 
HETATM    5  N4  UNL     1      34.195   5.835  45.321  1.00  0.00    -0.237 NA
HETATM    6  C6  UNL     1      33.903   4.549  45.066  1.00  0.00     0.212 A 
HETATM    7  N5  UNL     1      32.848   4.263  45.812  1.00  0.00    -0.324 N 
HETATM    8  C7  UNL     1      32.381   5.323  46.576  1.00  0.00     0.181 A 
HETATM    9  N6  UNL     1      31.399   5.445  47.463  1.00  0.00    -0.042 NA
HETATM   10  C8  UNL     1      32.121   3.057  46.246  1.00  0.00     0.132 C 
HETATM   11  C9  UNL     1      33.103   2.208  47.057  1.00  0.00     0.026 C 
HETATM   12  C10 UNL     1      34.046   3.060  47.810  1.00  0.00     0.027 C 
HETATM   13  C11 UNL     1      34.733   4.058  48.339  1.00  0.00    -0.001 C 
HETATM   14  C12 UNL     1      35.216   5.408  48.673  1.00  0.00    -0.026 C 
HETATM   15  C13 UNL     1      35.102   6.690  48.528  1.00  0.00    -0.002 C 
HETATM   16  C14 UNL     1      34.609   7.973  48.087  1.00  0.00     0.026 C 
HETATM   17  C15 UNL     1      33.613   8.512  47.331  1.00  0.00     0.066 C 
HETATM   18 CL1  UNL     1      33.277  10.142  46.980  1.00  0.00    -0.082 Cl
ENDROOT
BRANCH   1  19
HETATM   19  N2  UNL     1      29.967   6.089  48.968  1.00  0.00    -0.221 N 
HETATM   20  H7  UNL     1      30.099   6.301  50.006  1.00  0.00     0.177 HD
BRANCH  19  21
HETATM   21  C2  UNL     1      28.766   5.475  48.479  1.00  0.00     0.168 C 
BRANCH  21  22
HETATM   22  C1  UNL     1      27.605   6.431  48.327  1.00  0.00     0.286 C 
BRANCH  22  23
HETATM   23  N1  UNL     1      27.752   7.460  49.344  1.00  0.00     0.079 N 
HETATM   24  H1  UNL     1      28.371   8.213  48.948  1.00  0.00     0.312 HD
HETATM   25  H2  UNL     1      28.315   7.027  50.126  1.00  0.00     0.312 HD
ENDBRANCH  22  23
ENDBRANCH  21  22
ENDBRANCH  19  21
ENDBRANCH   1  19
TORSDOF 4
ENDMDL
MODEL 3
REMARK VINA RESULT:      -6.7     10.112     12.628
REMARK  4 active torsions:
REMARK  status: ('A' for Active; 'I' for Inactive)
REMARK    1  A    between atoms: N1_1  and  C1_2 
REMARK    2  A    between atoms: C1_2  and  C2_3 
REMARK    3  A    between atoms: C2_3  and  N2_4 
REMARK    4  A    between atoms: N2_4  and  C3_5 
ROOT
HETATM    1  C3  UNL     1      24.951   1.375  51.962  1.00  0.00     0.725 A 
HETATM    2  N3  UNL     1      25.000   2.501  51.175  1.00  0.00    -0.059 NA
HETATM    3  C4  UNL     1      23.910   3.317  51.062  1.00  0.00     0.130 A 
HETATM    4  C5  UNL     1      22.675   3.305  51.578  1.00  0.00     0.136 A 
HETATM    5  N4  UNL     1      21.526   3.933  51.559  1.00  0.00    -0.237 NA
HETATM    6  C6  UNL     1      20.694   3.199  52.316  1.00  0.00     0.212 A 
HETATM    7  N5  UNL     1      21.408   2.169  52.742  1.00  0.00    -0.324 N 
HETATM    8  C7  UNL     1      22.729   2.169  52.314  1.00  0.00     0.181 A 
HETATM    9  N6  UNL     1      23.741   1.324  52.478  1.00  0.00    -0.042 NA
HETATM   10  C8  UNL     1      21.158   0.869  53.388  1.00  0.00     0.132 C 
HETATM   11  C9  UNL     1      20.287   0.052  52.430  1.00  0.00     0.026 C 
HETATM   12  C10 UNL     1      20.617   0.355  51.022  1.00  0.00     0.027 C 
HETATM   13  C11 UNL     1      21.116   0.832  49.894  1.00  0.00    -0.001 C 
HETATM   14  C12 UNL     1      21.909   1.611  48.929  1.00  0.00    -0.026 C 
HETATM   15  C13 UNL     1      22.824   2.501  48.713  1.00  0.00    -0.002 C 
HETATM   16  C14 UNL     1      23.853   3.485  48.956  1.00  0.00     0.026 C 
HETATM   17  C15 UNL     1      24.534   4.059  49.985  1.00  0.00     0.066 C 
HETATM   18 CL1  UNL     1      25.749   5.250  49.953  1.00  0.00    -0.082 Cl
ENDROOT
BRANCH   1  19
HETATM   19  N2  UNL     1      25.627   0.242  52.451  1.00  0.00    -0.221 N 
HETATM   20  H7  UNL     1      26.323  -0.148  51.741  1.00  0.00     0.177 HD
BRANCH  19  21
HETATM   21  C2  UNL     1      25.459  -0.364  53.739  1.00  0.00     0.168 C 
BRANCH  21  22
HETATM   22  C1  UNL     1      26.360   0.206  54.811  1.00  0.00     0.286 C 
BRANCH  22  23
HETATM   23  N1  UNL     1      27.674  -0.391  54.636  1.00  0.00     0.079 N 
HETATM   24  H1  UNL     1      27.664  -1.329  55.112  1.00  0.00     0.312 HD
HETATM   25  H2  UNL     1      28.346   0.195  55.203  1.00  0.00     0.312 HD
ENDBRANCH  22  23
ENDBRANCH  21  22
ENDBRANCH  19  21
ENDBRANCH   1  19
TORSDOF 4
ENDMDL
MODEL 4
REMARK VINA RESULT:      -6.6      8.945     11.378
REMARK  4 active torsions:
REMARK  status: ('A' for Active; 'I' for Inactive)
REMARK    1  A    between atoms: N1_1  and  C1_2 
REMARK    2  A    between atoms: C1_2  and  C2_3 
REMARK    3  A    between atoms: C2_3  and  N2_4 
REMARK    4  A    between atoms: N2_4  and  C3_5 
ROOT
HETATM    1  C3  UNL     1      25.047   2.144  53.065  1.00  0.00     0.725 A 
HETATM    2  N3  UNL     1      23.801   1.574  52.964  1.00  0.00    -0.059 NA
HETATM    3  C4  UNL     1      23.088   1.665  51.802  1.00  0.00     0.130 A 
HETATM    4  C5  UNL     1      23.314   2.222  50.607  1.00  0.00     0.136 A 
HETATM    5  N4  UNL     1      22.770   2.451  49.438  1.00  0.00    -0.237 NA
HETATM    6  C6  UNL     1      23.651   3.209  48.766  1.00  0.00     0.212 A 
HETATM    7  N5  UNL     1      24.675   3.386  49.585  1.00  0.00    -0.324 N 
HETATM    8  C7  UNL     1      24.542   2.756  50.815  1.00  0.00     0.181 A 
HETATM    9  N6  UNL     1      25.300   2.714  51.906  1.00  0.00    -0.042 NA
HETATM   10  C8  UNL     1      25.865   4.251  49.664  1.00  0.00     0.132 C 
HETATM   11  C9  UNL     1      25.365   5.696  49.748  1.00  0.00     0.026 C 
HETATM   12  C10 UNL     1      24.092   5.775  50.495  1.00  0.00     0.027 C 
HETATM   13  C11 UNL     1      22.987   5.531  51.177  1.00  0.00    -0.001 C 
HETATM   14  C12 UNL     1      21.904   4.836  51.892  1.00  0.00    -0.026 C 
HETATM   15  C13 UNL     1      21.401   3.724  52.326  1.00  0.00    -0.002 C 
HETATM   16  C14 UNL     1      21.246   2.317  52.609  1.00  0.00     0.026 C 
HETATM   17  C15 UNL     1      21.904   1.135  52.449  1.00  0.00     0.066 C 
HETATM   18 CL1  UNL     1      21.441  -0.436  52.909  1.00  0.00    -0.082 Cl
ENDROOT
BRANCH   1  19
HETATM   19  N2  UNL     1      26.173   2.396  53.872  1.00  0.00    -0.221 N 
HETATM   20  H7  UNL     1      26.036   3.250  54.497  1.00  0.00     0.177 HD
BRANCH  19  21
HETATM   21  C2  UNL     1      27.388   1.634  53.908  1.00  0.00     0.168 C 
BRANCH  21  22
HETATM   22  C1  UNL     1      28.627   2.437  53.585  1.00  0.00     0.286 C 
BRANCH  22  23
HETATM   23  N1  UNL     1      29.610   2.154  54.618  1.00  0.00     0.079 N 
HETATM   24  H1  UNL     1      30.441   1.707  54.154  1.00  0.00     0.312 HD
HETATM   25  H2  UNL     1      29.195   1.395  55.224  1.00  0.00     0.312 HD
ENDBRANCH  22  23
ENDBRANCH  21  22
ENDBRANCH  19  21
ENDBRANCH   1  19
TORSDOF 4
ENDMDL
MODEL 5
REMARK VINA RESULT:      -6.5     10.527     12.647
REMARK  4 active torsions:
REMARK  status: ('A' for Active; 'I' for Inactive)
REMARK    1  A    between atoms: N1_1  and  C1_2 
REMARK    2  A    between atoms: C1_2  and  C2_3 
REMARK    3  A    between atoms: C2_3  and  N2_4 
REMARK    4  A    between atoms: N2_4  and  C3_5 
ROOT
HETATM    1  C3  UNL     1      24.432   1.810  52.970  1.00  0.00     0.725 A 
HETATM    2  N3  UNL     1      23.419   0.915  53.217  1.00  0.00    -0.059 NA
HETATM    3  C4  UNL     1      22.507   0.613  52.247  1.00  0.00     0.130 A 
HETATM    4  C5  UNL     1      22.326   1.002  50.979  1.00  0.00     0.136 A 
HETATM    5  N4  UNL     1      21.529   0.875  49.948  1.00  0.00    -0.237 NA
HETATM    6  C6  UNL     1      21.999   1.719  49.015  1.00  0.00     0.212 A 
HETATM    7  N5  UNL     1      23.057   2.302  49.555  1.00  0.00    -0.324 N 
HETATM    8  C7  UNL     1      23.353   1.876  50.843  1.00  0.00     0.181 A 
HETATM    9  N6  UNL     1      24.279   2.224  51.730  1.00  0.00    -0.042 NA
HETATM   10  C8  UNL     1      23.925   3.457  49.268  1.00  0.00     0.132 C 
HETATM   11  C9  UNL     1      23.039   4.705  49.309  1.00  0.00     0.026 C 
HETATM   12  C10 UNL     1      21.965   4.562  50.314  1.00  0.00     0.027 C 
HETATM   13  C11 UNL     1      21.133   4.145  51.254  1.00  0.00    -0.001 C 
HETATM   14  C12 UNL     1      20.463   3.313  52.266  1.00  0.00    -0.026 C 
HETATM   15  C13 UNL     1      20.409   2.197  52.920  1.00  0.00    -0.002 C 
HETATM   16  C14 UNL     1      20.739   0.868  53.379  1.00  0.00     0.026 C 
HETATM   17  C15 UNL     1      21.679  -0.100  53.199  1.00  0.00     0.066 C 
HETATM   18 CL1  UNL     1      21.805  -1.637  53.918  1.00  0.00    -0.082 Cl
ENDROOT
BRANCH   1  19
HETATM   19  N2  UNL     1      25.560   2.489  53.466  1.00  0.00    -0.221 N 
HETATM   20  H7  UNL     1      25.391   3.540  53.552  1.00  0.00     0.177 HD
BRANCH  19  21
HETATM   21  C2  UNL     1      26.815   1.904  53.840  1.00  0.00     0.168 C 
BRANCH  21  22
HETATM   22  C1  UNL     1      26.866   0.401  53.679  1.00  0.00     0.286 C 
BRANCH  22  23
HETATM   23  N1  UNL     1      27.382  -0.152  54.920  1.00  0.00     0.079 N 
HETATM   24  H1  UNL     1      28.223  -0.736  54.684  1.00  0.00     0.312 HD
HETATM   25  H2  UNL     1      26.659  -0.841  55.263  1.00  0.00     0.312 HD
ENDBRANCH  22  23
ENDBRANCH  21  22
ENDBRANCH  19  21
ENDBRANCH   1  19
TORSDOF 4
ENDMDL
MODEL 6
REMARK VINA RESULT:      -6.5     10.018     12.146
REMARK  4 active torsions:
REMARK  status: ('A' for Active; 'I' for Inactive)
REMARK    1  A    between atoms: N1_1  and  C1_2 
REMARK    2  A    between atoms: C1_2  and  C2_3 
REMARK    3  A    between atoms: C2_3  and  N2_4 
REMARK    4  A    between atoms: N2_4  and  C3_5 
ROOT
HETATM    1  C3  UNL     1      23.807   4.449  51.746  1.00  0.00     0.725 A 
HETATM    2  N3  UNL     1      24.327   3.182  51.861  1.00  0.00    -0.059 NA
HETATM    3  C4  UNL     1      23.749   2.132  51.206  1.00  0.00     0.130 A 
HETATM    4  C5  UNL     1      22.696   2.003  50.391  1.00  0.00     0.136 A 
HETATM    5  N4  UNL     1      21.984   1.125  49.730  1.00  0.00    -0.237 NA
HETATM    6  C6  UNL     1      20.960   1.811  49.195  1.00  0.00     0.212 A 
HETATM    7  N5  UNL     1      21.129   3.067  49.576  1.00  0.00    -0.324 N 
HETATM    8  C7  UNL     1      22.258   3.285  50.354  1.00  0.00     0.181 A 
HETATM    9  N6  UNL     1      22.758   4.359  50.956  1.00  0.00    -0.042 NA
HETATM   10  C8  UNL     1      20.340   4.311  49.593  1.00  0.00     0.132 C 
HETATM   11  C9  UNL     1      19.120   4.056  50.482  1.00  0.00     0.026 C 
HETATM   12  C10 UNL     1      19.452   3.137  51.590  1.00  0.00     0.027 C 
HETATM   13  C11 UNL     1      20.036   2.311  52.442  1.00  0.00    -0.001 C 
HETATM   14  C12 UNL     1      21.032   1.460  53.112  1.00  0.00    -0.026 C 
HETATM   15  C13 UNL     1      22.242   1.001  53.159  1.00  0.00    -0.002 C 
HETATM   16  C14 UNL     1      23.628   0.775  52.824  1.00  0.00     0.026 C 
HETATM   17  C15 UNL     1      24.572   1.184  51.931  1.00  0.00     0.066 C 
HETATM   18 CL1  UNL     1      26.200   0.712  51.781  1.00  0.00    -0.082 Cl
ENDROOT
BRANCH   1  19
HETATM   19  N2  UNL     1      23.899   5.805  52.111  1.00  0.00    -0.221 N 
HETATM   20  H7  UNL     1      23.831   5.941  53.168  1.00  0.00     0.177 HD
BRANCH  19  21
HETATM   21  C2  UNL     1      24.072   6.920  51.226  1.00  0.00     0.168 C 
BRANCH  21  22
HETATM   22  C1  UNL     1      25.275   6.804  50.317  1.00  0.00     0.286 C 
BRANCH  22  23
HETATM   23  N1  UNL     1      26.284   7.726  50.812  1.00  0.00     0.079 N 
HETATM   24  H1  UNL     1      26.391   7.557  51.844  1.00  0.00     0.312 HD
HETATM   25  H2  UNL     1      25.867   8.693  50.736  1.00  0.00     0.312 HD
ENDBRANCH  22  23
ENDBRANCH  21  22
ENDBRANCH  19  21
ENDBRANCH   1  19
TORSDOF 4
ENDMDL
MODEL 7
REMARK VINA RESULT:      -6.4      7.860      9.847
REMARK  4 active torsions:
REMARK  status: ('A' for Active; 'I' for Inactive)
REMARK    1  A    between atoms: N1_1  and  C1_2 
REMARK    2  A    between atoms: C1_2  and  C2_3 
REMARK    3  A    between atoms: C2_3  and  N2_4 
REMARK    4  A    between atoms: N2_4  and  C3_5 
ROOT
HETATM    1  C3  UNL     1      26.459   4.290  49.783  1.00  0.00     0.725 A 
HETATM    2  N3  UNL     1      26.315   3.184  50.586  1.00  0.00    -0.059 NA
HETATM    3  C4  UNL     1      25.112   2.541  50.673  1.00  0.00     0.130 A 
HETATM    4  C5  UNL     1      23.910   2.727  50.116  1.00  0.00     0.136 A 
HETATM    5  N4  UNL     1      22.680   2.276  50.103  1.00  0.00    -0.237 NA
HETATM    6  C6  UNL     1      21.992   3.112  49.308  1.00  0.00     0.212 A 
HETATM    7  N5  UNL     1      22.864   4.016  48.893  1.00  0.00    -0.324 N 
HETATM    8  C7  UNL     1      24.156   3.828  49.366  1.00  0.00     0.181 A 
HETATM    9  N6  UNL     1      25.288   4.510  49.225  1.00  0.00    -0.042 NA
HETATM   10  C8  UNL     1      22.831   5.327  48.222  1.00  0.00     0.132 C 
HETATM   11  C9  UNL     1      22.062   6.282  49.138  1.00  0.00     0.026 C 
HETATM   12  C10 UNL     1      22.298   5.959  50.561  1.00  0.00     0.027 C 
HETATM   13  C11 UNL     1      22.684   5.434  51.711  1.00  0.00    -0.001 C 
HETATM   14  C12 UNL     1      23.321   4.564  52.713  1.00  0.00    -0.026 C 
HETATM   15  C13 UNL     1      24.087   3.553  52.972  1.00  0.00    -0.002 C 
HETATM   16  C14 UNL     1      24.965   2.423  52.779  1.00  0.00     0.026 C 
HETATM   17  C15 UNL     1      25.585   1.735  51.781  1.00  0.00     0.066 C 
HETATM   18 CL1  UNL     1      26.607   0.378  51.871  1.00  0.00    -0.082 Cl
ENDROOT
BRANCH   1  19
HETATM   19  N2  UNL     1      27.312   5.301  49.302  1.00  0.00    -0.221 N 
HETATM   20  H7  UNL     1      28.337   5.101  49.525  1.00  0.00     0.177 HD
BRANCH  19  21
HETATM   21  C2  UNL     1      26.921   6.479  48.583  1.00  0.00     0.168 C 
BRANCH  21  22
HETATM   22  C1  UNL     1      26.931   7.740  49.417  1.00  0.00     0.286 C 
BRANCH  22  23
HETATM   23  N1  UNL     1      26.155   7.474  50.617  1.00  0.00     0.079 N 
HETATM   24  H1  UNL     1      25.259   8.019  50.545  1.00  0.00     0.312 HD
HETATM   25  H2  UNL     1      26.682   7.918  51.417  1.00  0.00     0.312 HD
ENDBRANCH  22  23
ENDBRANCH  21  22
ENDBRANCH  19  21
ENDBRANCH   1  19
TORSDOF 4
ENDMDL
MODEL 8
REMARK VINA RESULT:      -6.4     10.201     12.733
REMARK  4 active torsions:
REMARK  status: ('A' for Active; 'I' for Inactive)
REMARK    1  A    between atoms: N1_1  and  C1_2 
REMARK    2  A    between atoms: C1_2  and  C2_3 
REMARK    3  A    between atoms: C2_3  and  N2_4 
REMARK    4  A    between atoms: N2_4  and  C3_5 
ROOT
HETATM    1  C3  UNL     1      23.330   0.629  52.644  1.00  0.00     0.725 A 
HETATM    2  N3  UNL     1      24.559   1.243  52.592  1.00  0.00    -0.059 NA
HETATM    3  C4  UNL     1      24.652   2.601  52.480  1.00  0.00     0.130 A 
HETATM    4  C5  UNL     1      23.762   3.597  52.405  1.00  0.00     0.136 A 
HETATM    5  N4  UNL     1      23.650   4.893  52.254  1.00  0.00    -0.237 NA
HETATM    6  C6  UNL     1      22.333   5.141  52.173  1.00  0.00     0.212 A 
HETATM    7  N5  UNL     1      21.737   3.964  52.282  1.00  0.00    -0.324 N 
HETATM    8  C7  UNL     1      22.605   2.894  52.453  1.00  0.00     0.181 A 
HETATM    9  N6  UNL     1      22.425   1.582  52.560  1.00  0.00    -0.042 NA
HETATM   10  C8  UNL     1      20.392   3.405  52.062  1.00  0.00     0.132 C 
HETATM   11  C9  UNL     1      20.064   3.594  50.578  1.00  0.00     0.026 C 
HETATM   12  C10 UNL     1      21.280   3.477  49.746  1.00  0.00     0.027 C 
HETATM   13  C11 UNL     1      22.510   3.334  49.284  1.00  0.00    -0.001 C 
HETATM   14  C12 UNL     1      23.967   3.138  49.208  1.00  0.00    -0.026 C 
HETATM   15  C13 UNL     1      25.087   2.929  49.822  1.00  0.00    -0.002 C 
HETATM   16  C14 UNL     1      26.036   2.696  50.885  1.00  0.00     0.026 C 
HETATM   17  C15 UNL     1      26.078   2.516  52.234  1.00  0.00     0.066 C 
HETATM   18 CL1  UNL     1      27.415   2.251  53.253  1.00  0.00    -0.082 Cl
ENDROOT
BRANCH   1  19
HETATM   19  N2  UNL     1      22.611  -0.577  52.738  1.00  0.00    -0.221 N 
HETATM   20  H7  UNL     1      22.292  -0.929  51.782  1.00  0.00     0.177 HD
BRANCH  19  21
HETATM   21  C2  UNL     1      22.315  -1.305  53.937  1.00  0.00     0.168 C 
BRANCH  21  22
HETATM   22  C1  UNL     1      20.855  -1.272  54.332  1.00  0.00     0.286 C 
BRANCH  22  23
HETATM   23  N1  UNL     1      20.554   0.081  54.769  1.00  0.00     0.079 N 
HETATM   24  H1  UNL     1      20.490   0.071  55.819  1.00  0.00     0.312 HD
HETATM   25  H2  UNL     1      19.573   0.290  54.438  1.00  0.00     0.312 HD
ENDBRANCH  22  23
ENDBRANCH  21  22
ENDBRANCH  19  21
ENDBRANCH   1  19
TORSDOF 4
ENDMDL
MODEL 9
REMARK VINA RESULT:      -6.0      9.664     11.393
REMARK  4 active torsions:
REMARK  status: ('A' for Active; 'I' for Inactive)
REMARK    1  A    between atoms: N1_1  and  C1_2 
REMARK    2  A    between atoms: C1_2  and  C2_3 
REMARK    3  A    between atoms: C2_3  and  N2_4 
REMARK    4  A    between atoms: N2_4  and  C3_5 
ROOT
HETATM    1  C3  UNL     1      22.074   1.508  50.018  1.00  0.00     0.725 A 
HETATM    2  N3  UNL     1      22.413   0.982  51.242  1.00  0.00    -0.059 NA
HETATM    3  C4  UNL     1      22.948   1.778  52.215  1.00  0.00     0.130 A 
HETATM    4  C5  UNL     1      23.257   3.077  52.297  1.00  0.00     0.136 A 
HETATM    5  N4  UNL     1      23.792   3.979  53.081  1.00  0.00    -0.237 NA
HETATM    6  C6  UNL     1      23.840   5.110  52.359  1.00  0.00     0.212 A 
HETATM    7  N5  UNL     1      23.324   4.807  51.178  1.00  0.00    -0.324 N 
HETATM    8  C7  UNL     1      22.900   3.491  51.057  1.00  0.00     0.181 A 
HETATM    9  N6  UNL     1      22.377   2.789  50.058  1.00  0.00    -0.042 NA
HETATM   10  C8  UNL     1      23.251   5.415  49.838  1.00  0.00     0.132 C 
HETATM   11  C9  UNL     1      24.688   5.561  49.332  1.00  0.00     0.026 C 
HETATM   12  C10 UNL     1      25.538   4.453  49.818  1.00  0.00     0.027 C 
HETATM   13  C11 UNL     1      26.031   3.374  50.402  1.00  0.00    -0.001 C 
HETATM   14  C12 UNL     1      26.159   2.149  51.208  1.00  0.00    -0.026 C 
HETATM   15  C13 UNL     1      25.602   1.269  51.977  1.00  0.00    -0.002 C 
HETATM   16  C14 UNL     1      24.599   0.568  52.744  1.00  0.00     0.026 C 
HETATM   17  C15 UNL     1      23.269   0.622  53.029  1.00  0.00     0.066 C 
HETATM   18 CL1  UNL     1      22.329  -0.395  54.018  1.00  0.00    -0.082 Cl
ENDROOT
BRANCH   1  19
HETATM   19  N2  UNL     1      21.553   1.276  48.732  1.00  0.00    -0.221 N 
HETATM   20  H7  UNL     1      21.254   0.259  48.598  1.00  0.00     0.177 HD
BRANCH  19  21
HETATM   21  C2  UNL     1      21.405   2.240  47.681  1.00  0.00     0.168 C 
BRANCH  21  22
HETATM   22  C1  UNL     1      20.027   2.857  47.602  1.00  0.00     0.286 C 
BRANCH  22  23
HETATM   23  N1  UNL     1      20.051   4.076  48.393  1.00  0.00     0.079 N 
HETATM   24  H1  UNL     1      20.781   3.957  49.141  1.00  0.00     0.312 HD
HETATM   25  H2  UNL     1      19.132   4.112  48.913  1.00  0.00     0.312 HD
ENDBRANCH  22  23
ENDBRANCH  21  22
ENDBRANCH  19  21
ENDBRANCH   1  19
TORSDOF 4
ENDMDL
