MODEL 1
REMARK VINA RESULT:      -8.3      0.000      0.000
REMARK  5 active torsions:
REMARK  status: ('A' for Active; 'I' for Inactive)
REMARK    1  A    between atoms: N1_5  and  C5_6 
REMARK    2  A    between atoms: C6_7  and  N2_8 
REMARK    3  A    between atoms: N2_8  and  C7_9 
REMARK    4  A    between atoms: C13_17  and  N5_18 
REMARK    5  A    between atoms: N5_18  and  C14_19 
ROOT
HETATM    1  C1  UNL     1      22.281  -1.128  55.076  1.00  0.00     0.037 C 
HETATM    2  C2  UNL     1      22.646  -0.291  53.914  1.00  0.00    -0.013 C 
HETATM    3  C3  UNL     1      22.075   0.225  52.843  1.00  0.00     0.036 A 
HETATM    4  C4  UNL     1      20.665   0.009  52.559  1.00  0.00     0.161 A 
HETATM    5  N1  UNL     1      19.887  -0.672  53.290  1.00  0.00    -0.239 NA
HETATM    6  N3  UNL     1      20.145   0.608  51.387  1.00  0.00    -0.239 NA
HETATM    7  C10 UNL     1      20.901   1.310  50.614  1.00  0.00     0.144 A 
HETATM    8  C11 UNL     1      22.307   1.529  50.892  1.00  0.00     0.089 A 
HETATM    9  C12 UNL     1      23.023   2.329  49.942  1.00  0.00     0.103 C 
HETATM   10  N4  UNL     1      23.616   2.974  49.188  1.00  0.00    -0.191 NA
HETATM   11  C13 UNL     1      22.900   1.019  51.955  1.00  0.00     0.069 A 
ENDROOT
BRANCH  11  12
HETATM   12  N5  UNL     1      24.257   1.318  52.090  1.00  0.00    -0.354 N 
HETATM   13  H16 UNL     1      24.643   2.268  51.874  1.00  0.00     0.166 HD
BRANCH  12  14
HETATM   14  C14 UNL     1      25.510   0.816  52.437  1.00  0.00     0.034 A 
HETATM   15  C15 UNL     1      25.913  -0.525  52.429  1.00  0.00     0.032 A 
HETATM   16  C16 UNL     1      27.169  -0.958  52.791  1.00  0.00     0.046 A 
HETATM   17  C17 UNL     1      28.038   0.041  53.176  1.00  0.00     0.138 A 
HETATM   18  F1  UNL     1      29.310  -0.292  53.552  1.00  0.00    -0.204 F 
HETATM   19  C18 UNL     1      27.766   1.390  53.226  1.00  0.00     0.074 A 
HETATM   20 CL1  UNL     1      28.945   2.581  53.730  1.00  0.00    -0.081 Cl
HETATM   21  C19 UNL     1      26.471   1.746  52.844  1.00  0.00     0.056 A 
ENDBRANCH  12  14
ENDBRANCH  11  12
BRANCH   5  22
HETATM   22  C5  UNL     1      18.510  -0.905  53.047  1.00  0.00     0.135 C 
HETATM   23  C6  UNL     1      17.800  -1.910  53.538  1.00  0.00     0.102 C 
BRANCH  23  24
HETATM   24  N2  UNL     1      16.485  -1.780  53.061  1.00  0.00    -0.394 N 
HETATM   25  H7  UNL     1      15.746  -2.496  53.266  1.00  0.00     0.159 HD
BRANCH  24  26
HETATM   26  C7  UNL     1      16.111  -0.651  52.272  1.00  0.00     0.072 C 
HETATM   27  C8  UNL     1      15.616  -1.074  50.901  1.00  0.00     0.031 C 
HETATM   28  C9  UNL     1      15.029   0.183  52.899  1.00  0.00     0.031 C 
ENDBRANCH  24  26
ENDBRANCH  23  24
ENDBRANCH   5  22
TORSDOF 5
ENDMDL
MODEL 2
REMARK VINA RESULT:      -8.2      2.509      4.167
REMARK  5 active torsions:
REMARK  status: ('A' for Active; 'I' for Inactive)
REMARK    1  A    between atoms: N1_5  and  C5_6 
REMARK    2  A    between atoms: C6_7  and  N2_8 
REMARK    3  A    between atoms: N2_8  and  C7_9 
REMARK    4  A    between atoms: C13_17  and  N5_18 
REMARK    5  A    between atoms: N5_18  and  C14_19 
ROOT
HETATM    1  C1  UNL     1      23.605   2.902  50.028  1.00  0.00     0.037 C 
HETATM    2  C2  UNL     1      23.511   1.929  51.136  1.00  0.00    -0.013 C 
HETATM    3  C3  UNL     1      22.624   1.509  52.016  1.00  0.00     0.036 A 
HETATM    4  C4  UNL     1      21.277   2.058  52.054  1.00  0.00     0.161 A 
HETATM    5  N1  UNL     1      20.852   2.958  51.273  1.00  0.00    -0.239 NA
HETATM    6  N3  UNL     1      20.398   1.538  53.034  1.00  0.00    -0.239 NA
HETATM    7  C10 UNL     1      20.789   0.620  53.850  1.00  0.00     0.144 A 
HETATM    8  C11 UNL     1      22.129   0.069  53.816  1.00  0.00     0.089 A 
HETATM    9  C12 UNL     1      22.421  -0.946  54.787  1.00  0.00     0.103 C 
HETATM   10  N4  UNL     1      22.674  -1.766  55.561  1.00  0.00    -0.191 NA
HETATM   11  C13 UNL     1      23.034   0.476  52.947  1.00  0.00     0.069 A 
ENDROOT
BRANCH  11  12
HETATM   12  N5  UNL     1      24.280  -0.149  53.035  1.00  0.00    -0.354 N 
HETATM   13  H16 UNL     1      24.385  -1.190  52.997  1.00  0.00     0.166 HD
BRANCH  12  14
HETATM   14  C14 UNL     1      25.652   0.051  53.178  1.00  0.00     0.034 A 
HETATM   15  C15 UNL     1      26.307   1.264  53.425  1.00  0.00     0.032 A 
HETATM   16  C16 UNL     1      27.672   1.395  53.550  1.00  0.00     0.046 A 
HETATM   17  C17 UNL     1      28.382   0.221  53.412  1.00  0.00     0.138 A 
HETATM   18  F1  UNL     1      29.744   0.250  53.522  1.00  0.00    -0.204 F 
HETATM   19  C18 UNL     1      27.860  -1.030  53.169  1.00  0.00     0.074 A 
HETATM   20 CL1  UNL     1      28.852  -2.462  53.011  1.00  0.00    -0.081 Cl
HETATM   21  C19 UNL     1      26.469  -1.078  53.056  1.00  0.00     0.056 A 
ENDBRANCH  12  14
ENDBRANCH  11  12
BRANCH   5  22
HETATM   22  C5  UNL     1      19.550   3.517  51.279  1.00  0.00     0.135 C 
HETATM   23  C6  UNL     1      19.037   4.287  50.331  1.00  0.00     0.102 C 
BRANCH  23  24
HETATM   24  N2  UNL     1      17.730   4.630  50.716  1.00  0.00    -0.394 N 
HETATM   25  H7  UNL     1      17.364   5.610  50.632  1.00  0.00     0.159 HD
BRANCH  24  26
HETATM   26  C7  UNL     1      16.848   3.638  51.240  1.00  0.00     0.072 C 
HETATM   27  C8  UNL     1      15.931   4.217  52.302  1.00  0.00     0.031 C 
HETATM   28  C9  UNL     1      15.974   3.005  50.194  1.00  0.00     0.031 C 
ENDBRANCH  24  26
ENDBRANCH  23  24
ENDBRANCH   5  22
TORSDOF 5
ENDMDL
MODEL 3
REMARK VINA RESULT:      -8.2      4.143      8.382
REMARK  5 active torsions:
REMARK  status: ('A' for Active; 'I' for Inactive)
REMARK    1  A    between atoms: N1_5  and  C5_6 
REMARK    2  A    between atoms: C6_7  and  N2_8 
REMARK    3  A    between atoms: N2_8  and  C7_9 
REMARK    4  A    between atoms: C13_17  and  N5_18 
REMARK    5  A    between atoms: N5_18  and  C14_19 
ROOT
HETATM    1  C1  UNL     1      21.797  -1.245  54.907  1.00  0.00     0.037 C 
HETATM    2  C2  UNL     1      21.680  -0.283  53.792  1.00  0.00    -0.013 C 
HETATM    3  C3  UNL     1      22.467   0.412  52.993  1.00  0.00     0.036 A 
HETATM    4  C4  UNL     1      23.916   0.330  53.099  1.00  0.00     0.161 A 
HETATM    5  N1  UNL     1      24.529  -0.391  53.939  1.00  0.00    -0.239 NA
HETATM    6  N3  UNL     1      24.672   1.112  52.193  1.00  0.00    -0.239 NA
HETATM    7  C10 UNL     1      24.089   1.859  51.321  1.00  0.00     0.144 A 
HETATM    8  C11 UNL     1      22.646   1.945  51.211  1.00  0.00     0.089 A 
HETATM    9  C12 UNL     1      22.139   2.820  50.194  1.00  0.00     0.103 C 
HETATM   10  N4  UNL     1      21.713   3.519  49.378  1.00  0.00    -0.191 NA
HETATM   11  C13 UNL     1      21.840   1.262  52.001  1.00  0.00     0.069 A 
ENDROOT
BRANCH  11  12
HETATM   12  N5  UNL     1      20.474   1.446  51.774  1.00  0.00    -0.354 N 
HETATM   13  H16 UNL     1      19.999   2.363  51.948  1.00  0.00     0.166 HD
BRANCH  12  14
HETATM   14  C14 UNL     1      19.292   0.837  51.356  1.00  0.00     0.034 A 
HETATM   15  C15 UNL     1      18.576   1.102  50.182  1.00  0.00     0.032 A 
HETATM   16  C16 UNL     1      17.406   0.467  49.830  1.00  0.00     0.046 A 
HETATM   17  C17 UNL     1      16.964  -0.478  50.732  1.00  0.00     0.138 A 
HETATM   18  F1  UNL     1      15.811  -1.162  50.467  1.00  0.00    -0.204 F 
HETATM   19  C18 UNL     1      17.573  -0.829  51.915  1.00  0.00     0.074 A 
HETATM   20 CL1  UNL     1      16.929  -2.047  52.993  1.00  0.00    -0.081 Cl
HETATM   21  C19 UNL     1      18.754  -0.140  52.200  1.00  0.00     0.056 A 
ENDBRANCH  12  14
ENDBRANCH  11  12
BRANCH   5  22
HETATM   22  C5  UNL     1      25.936  -0.497  54.073  1.00  0.00     0.135 C 
HETATM   23  C6  UNL     1      26.676   0.138  54.970  1.00  0.00     0.102 C 
BRANCH  23  24
HETATM   24  N2  UNL     1      28.014  -0.238  54.768  1.00  0.00    -0.394 N 
HETATM   25  H7  UNL     1      28.485  -0.960  55.367  1.00  0.00     0.159 HD
BRANCH  24  26
HETATM   26  C7  UNL     1      28.782   0.358  53.723  1.00  0.00     0.072 C 
HETATM   27  C8  UNL     1      29.038   1.829  53.996  1.00  0.00     0.031 C 
HETATM   28  C9  UNL     1      30.120  -0.297  53.518  1.00  0.00     0.031 C 
ENDBRANCH  24  26
ENDBRANCH  23  24
ENDBRANCH   5  22
TORSDOF 5
ENDMDL
MODEL 4
REMARK VINA RESULT:      -8.1      4.522      8.993
REMARK  5 active torsions:
REMARK  status: ('A' for Active; 'I' for Inactive)
REMARK    1  A    between atoms: N1_5  and  C5_6 
REMARK    2  A    between atoms: C6_7  and  N2_8 
REMARK    3  A    between atoms: N2_8  and  C7_9 
REMARK    4  A    between atoms: C13_17  and  N5_18 
REMARK    5  A    between atoms: N5_18  and  C14_19 
ROOT
HETATM    1  C1  UNL     1      22.777   3.784  50.334  1.00  0.00     0.037 C 
HETATM    2  C2  UNL     1      23.395   2.926  51.367  1.00  0.00    -0.013 C 
HETATM    3  C3  UNL     1      24.593   2.506  51.722  1.00  0.00     0.036 A 
HETATM    4  C4  UNL     1      25.784   2.906  50.988  1.00  0.00     0.161 A 
HETATM    5  N1  UNL     1      25.776   3.667  49.977  1.00  0.00    -0.239 NA
HETATM    6  N3  UNL     1      27.024   2.403  51.450  1.00  0.00    -0.239 NA
HETATM    7  C10 UNL     1      27.078   1.625  52.476  1.00  0.00     0.144 A 
HETATM    8  C11 UNL     1      25.896   1.223  53.211  1.00  0.00     0.089 A 
HETATM    9  C12 UNL     1      26.111   0.352  54.330  1.00  0.00     0.103 C 
HETATM   10  N4  UNL     1      26.266  -0.348  55.236  1.00  0.00    -0.191 NA
HETATM   11  C13 UNL     1      24.687   1.629  52.872  1.00  0.00     0.069 A 
ENDROOT
BRANCH  11  12
HETATM   12  N5  UNL     1      23.646   1.160  53.676  1.00  0.00    -0.354 N 
HETATM   13  H16 UNL     1      23.494   1.509  54.652  1.00  0.00     0.166 HD
BRANCH  12  14
HETATM   14  C14 UNL     1      22.559   0.290  53.749  1.00  0.00     0.034 A 
HETATM   15  C15 UNL     1      22.477  -0.897  54.487  1.00  0.00     0.032 A 
HETATM   16  C16 UNL     1      21.371  -1.718  54.511  1.00  0.00     0.046 A 
HETATM   17  C17 UNL     1      20.313  -1.288  53.738  1.00  0.00     0.138 A 
HETATM   18  F1  UNL     1      19.170  -2.038  53.699  1.00  0.00    -0.204 F 
HETATM   19  C18 UNL     1      20.268  -0.146  52.971  1.00  0.00     0.074 A 
HETATM   20 CL1  UNL     1      18.871   0.311  52.023  1.00  0.00    -0.081 Cl
HETATM   21  C19 UNL     1      21.428   0.632  53.000  1.00  0.00     0.056 A 
ENDBRANCH  12  14
ENDBRANCH  11  12
BRANCH   5  22
HETATM   22  C5  UNL     1      26.911   4.079  49.237  1.00  0.00     0.135 C 
HETATM   23  C6  UNL     1      27.147   5.309  48.806  1.00  0.00     0.102 C 
BRANCH  23  24
HETATM   24  N2  UNL     1      28.372   5.297  48.118  1.00  0.00    -0.394 N 
HETATM   25  H7  UNL     1      28.704   4.454  47.589  1.00  0.00     0.159 HD
BRANCH  24  26
HETATM   26  C7  UNL     1      29.212   6.451  48.119  1.00  0.00     0.072 C 
HETATM   27  C8  UNL     1      30.674   6.071  47.969  1.00  0.00     0.031 C 
HETATM   28  C9  UNL     1      28.890   7.424  47.019  1.00  0.00     0.031 C 
ENDBRANCH  24  26
ENDBRANCH  23  24
ENDBRANCH   5  22
TORSDOF 5
ENDMDL
MODEL 5
REMARK VINA RESULT:      -8.1      1.876      2.558
REMARK  5 active torsions:
REMARK  status: ('A' for Active; 'I' for Inactive)
REMARK    1  A    between atoms: N1_5  and  C5_6 
REMARK    2  A    between atoms: C6_7  and  N2_8 
REMARK    3  A    between atoms: N2_8  and  C7_9 
REMARK    4  A    between atoms: C13_17  and  N5_18 
REMARK    5  A    between atoms: N5_18  and  C14_19 
ROOT
HETATM    1  C1  UNL     1      22.999  -0.732  54.243  1.00  0.00     0.037 C 
HETATM    2  C2  UNL     1      23.791   0.221  53.439  1.00  0.00    -0.013 C 
HETATM    3  C3  UNL     1      23.650   0.968  52.362  1.00  0.00     0.036 A 
HETATM    4  C4  UNL     1      22.406   0.984  51.609  1.00  0.00     0.161 A 
HETATM    5  N1  UNL     1      21.382   0.304  51.910  1.00  0.00    -0.239 NA
HETATM    6  N3  UNL     1      22.353   1.821  50.469  1.00  0.00    -0.239 NA
HETATM    7  C10 UNL     1      23.373   2.532  50.125  1.00  0.00     0.144 A 
HETATM    8  C11 UNL     1      24.615   2.521  50.872  1.00  0.00     0.089 A 
HETATM    9  C12 UNL     1      25.663   3.361  50.369  1.00  0.00     0.103 C 
HETATM   10  N4  UNL     1      26.518   4.034  49.980  1.00  0.00    -0.191 NA
HETATM   11  C13 UNL     1      24.779   1.779  51.950  1.00  0.00     0.069 A 
ENDROOT
BRANCH  11  12
HETATM   12  N5  UNL     1      26.030   1.875  52.564  1.00  0.00    -0.354 N 
HETATM   13  H16 UNL     1      26.415   2.787  52.905  1.00  0.00     0.166 HD
BRANCH  12  14
HETATM   14  C14 UNL     1      27.160   1.169  52.975  1.00  0.00     0.034 A 
HETATM   15  C15 UNL     1      28.304   1.694  53.590  1.00  0.00     0.032 A 
HETATM   16  C16 UNL     1      29.393   0.940  53.968  1.00  0.00     0.046 A 
HETATM   17  C17 UNL     1      29.288  -0.408  53.696  1.00  0.00     0.138 A 
HETATM   18  F1  UNL     1      30.320  -1.237  54.036  1.00  0.00    -0.204 F 
HETATM   19  C18 UNL     1      28.223  -1.043  53.098  1.00  0.00     0.074 A 
HETATM   20 CL1  UNL     1      28.189  -2.766  52.797  1.00  0.00    -0.081 Cl
HETATM   21  C19 UNL     1      27.159  -0.210  52.746  1.00  0.00     0.056 A 
ENDBRANCH  12  14
ENDBRANCH  11  12
BRANCH   5  22
HETATM   22  C5  UNL     1      20.154   0.292  51.203  1.00  0.00     0.135 C 
HETATM   23  C6  UNL     1      18.956   0.112  51.740  1.00  0.00     0.102 C 
BRANCH  23  24
HETATM   24  N2  UNL     1      18.008   0.169  50.706  1.00  0.00    -0.394 N 
HETATM   25  H7  UNL     1      18.266   0.459  49.730  1.00  0.00     0.159 HD
BRANCH  24  26
HETATM   26  C7  UNL     1      16.645  -0.172  50.956  1.00  0.00     0.072 C 
HETATM   27  C8  UNL     1      15.979  -0.736  49.714  1.00  0.00     0.031 C 
HETATM   28  C9  UNL     1      16.476  -1.187  52.052  1.00  0.00     0.031 C 
ENDBRANCH  24  26
ENDBRANCH  23  24
ENDBRANCH   5  22
TORSDOF 5
ENDMDL
MODEL 6
REMARK VINA RESULT:      -8.0      2.697      4.506
REMARK  5 active torsions:
REMARK  status: ('A' for Active; 'I' for Inactive)
REMARK    1  A    between atoms: N1_5  and  C5_6 
REMARK    2  A    between atoms: C6_7  and  N2_8 
REMARK    3  A    between atoms: N2_8  and  C7_9 
REMARK    4  A    between atoms: C13_17  and  N5_18 
REMARK    5  A    between atoms: N5_18  and  C14_19 
ROOT
HETATM    1  C1  UNL     1      24.748   2.950  50.186  1.00  0.00     0.037 C 
HETATM    2  C2  UNL     1      24.435   2.023  51.293  1.00  0.00    -0.013 C 
HETATM    3  C3  UNL     1      23.406   1.344  51.759  1.00  0.00     0.036 A 
HETATM    4  C4  UNL     1      22.103   1.406  51.114  1.00  0.00     0.161 A 
HETATM    5  N1  UNL     1      21.851   2.095  50.083  1.00  0.00    -0.239 NA
HETATM    6  N3  UNL     1      21.063   0.638  51.689  1.00  0.00    -0.239 NA
HETATM    7  C10 UNL     1      21.276  -0.079  52.739  1.00  0.00     0.144 A 
HETATM    8  C11 UNL     1      22.571  -0.145  53.386  1.00  0.00     0.089 A 
HETATM    9  C12 UNL     1      22.657  -0.984  54.546  1.00  0.00     0.103 C 
HETATM   10  N4  UNL     1      22.746  -1.656  55.482  1.00  0.00    -0.191 NA
HETATM   11  C13 UNL     1      23.613   0.528  52.939  1.00  0.00     0.069 A 
ENDROOT
BRANCH  11  12
HETATM   12  N5  UNL     1      24.795   0.362  53.665  1.00  0.00    -0.354 N 
HETATM   13  H16 UNL     1      24.836   0.501  54.703  1.00  0.00     0.166 HD
BRANCH  12  14
HETATM   14  C14 UNL     1      26.151   0.048  53.588  1.00  0.00     0.034 A 
HETATM   15  C15 UNL     1      26.716  -1.137  53.100  1.00  0.00     0.032 A 
HETATM   16  C16 UNL     1      28.069  -1.388  53.057  1.00  0.00     0.046 A 
HETATM   17  C17 UNL     1      28.864  -0.370  53.540  1.00  0.00     0.138 A 
HETATM   18  F1  UNL     1      30.221  -0.527  53.536  1.00  0.00    -0.204 F 
HETATM   19  C18 UNL     1      28.434   0.837  54.044  1.00  0.00     0.074 A 
HETATM   20 CL1  UNL     1      29.529   2.068  54.634  1.00  0.00    -0.081 Cl
HETATM   21  C19 UNL     1      27.049   1.014  54.053  1.00  0.00     0.056 A 
ENDBRANCH  12  14
ENDBRANCH  11  12
BRANCH   5  22
HETATM   22  C5  UNL     1      20.598   2.182  49.427  1.00  0.00     0.135 C 
HETATM   23  C6  UNL     1      20.417   2.432  48.138  1.00  0.00     0.102 C 
BRANCH  23  24
HETATM   24  N2  UNL     1      19.035   2.433  47.890  1.00  0.00    -0.394 N 
HETATM   25  H7  UNL     1      18.419   1.632  48.171  1.00  0.00     0.159 HD
BRANCH  24  26
HETATM   26  C7  UNL     1      18.419   3.545  47.239  1.00  0.00     0.072 C 
HETATM   27  C8  UNL     1      19.455   4.489  46.659  1.00  0.00     0.031 C 
HETATM   28  C9  UNL     1      17.502   3.145  46.118  1.00  0.00     0.031 C 
ENDBRANCH  24  26
ENDBRANCH  23  24
ENDBRANCH   5  22
TORSDOF 5
ENDMDL
MODEL 7
REMARK VINA RESULT:      -7.9      3.481      5.933
REMARK  5 active torsions:
REMARK  status: ('A' for Active; 'I' for Inactive)
REMARK    1  A    between atoms: N1_5  and  C5_6 
REMARK    2  A    between atoms: C6_7  and  N2_8 
REMARK    3  A    between atoms: N2_8  and  C7_9 
REMARK    4  A    between atoms: C13_17  and  N5_18 
REMARK    5  A    between atoms: N5_18  and  C14_19 
ROOT
HETATM    1  C1  UNL     1      26.357   3.938  49.884  1.00  0.00     0.037 C 
HETATM    2  C2  UNL     1      25.755   2.980  50.835  1.00  0.00    -0.013 C 
HETATM    3  C3  UNL     1      24.608   2.358  51.025  1.00  0.00     0.036 A 
HETATM    4  C4  UNL     1      23.482   2.553  50.125  1.00  0.00     0.161 A 
HETATM    5  N1  UNL     1      23.503   3.313  49.113  1.00  0.00    -0.239 NA
HETATM    6  N3  UNL     1      22.296   1.837  50.413  1.00  0.00    -0.239 NA
HETATM    7  C10 UNL     1      22.231   1.052  51.433  1.00  0.00     0.144 A 
HETATM    8  C11 UNL     1      23.349   0.853  52.334  1.00  0.00     0.089 A 
HETATM    9  C12 UNL     1      23.129  -0.049  53.426  1.00  0.00     0.103 C 
HETATM   10  N4  UNL     1      22.971  -0.775  54.312  1.00  0.00    -0.191 NA
HETATM   11  C13 UNL     1      24.504   1.467  52.164  1.00  0.00     0.069 A 
ENDROOT
BRANCH  11  12
HETATM   12  N5  UNL     1      25.488   1.174  53.112  1.00  0.00    -0.354 N 
HETATM   13  H16 UNL     1      25.310   1.251  54.141  1.00  0.00     0.166 HD
BRANCH  12  14
HETATM   14  C14 UNL     1      26.806   0.766  53.302  1.00  0.00     0.034 A 
HETATM   15  C15 UNL     1      27.892   1.568  53.676  1.00  0.00     0.032 A 
HETATM   16  C16 UNL     1      29.177   1.102  53.842  1.00  0.00     0.046 A 
HETATM   17  C17 UNL     1      29.339  -0.247  53.611  1.00  0.00     0.138 A 
HETATM   18  F1  UNL     1      30.580  -0.802  53.752  1.00  0.00    -0.204 F 
HETATM   19  C18 UNL     1      28.358  -1.139  53.240  1.00  0.00     0.074 A 
HETATM   20 CL1  UNL     1      28.669  -2.840  52.970  1.00  0.00    -0.081 Cl
HETATM   21  C19 UNL     1      27.083  -0.588  53.093  1.00  0.00     0.056 A 
ENDBRANCH  12  14
ENDBRANCH  11  12
BRANCH   5  22
HETATM   22  C5  UNL     1      22.429   3.530  48.214  1.00  0.00     0.135 C 
HETATM   23  C6  UNL     1      21.966   4.712  47.835  1.00  0.00     0.102 C 
BRANCH  23  24
HETATM   24  N2  UNL     1      20.904   4.492  46.943  1.00  0.00    -0.394 N 
HETATM   25  H7  UNL     1      20.031   3.988  47.231  1.00  0.00     0.159 HD
BRANCH  24  26
HETATM   26  C7  UNL     1      20.985   4.959  45.596  1.00  0.00     0.072 C 
HETATM   27  C8  UNL     1      22.149   5.915  45.410  1.00  0.00     0.031 C 
HETATM   28  C9  UNL     1      21.151   3.854  44.591  1.00  0.00     0.031 C 
ENDBRANCH  24  26
ENDBRANCH  23  24
ENDBRANCH   5  22
TORSDOF 5
ENDMDL
MODEL 8
REMARK VINA RESULT:      -7.9      3.824      6.537
REMARK  5 active torsions:
REMARK  status: ('A' for Active; 'I' for Inactive)
REMARK    1  A    between atoms: N1_5  and  C5_6 
REMARK    2  A    between atoms: C6_7  and  N2_8 
REMARK    3  A    between atoms: N2_8  and  C7_9 
REMARK    4  A    between atoms: C13_17  and  N5_18 
REMARK    5  A    between atoms: N5_18  and  C14_19 
ROOT
HETATM    1  C1  UNL     1      26.486   4.231  49.423  1.00  0.00     0.037 C 
HETATM    2  C2  UNL     1      25.875   3.233  50.325  1.00  0.00    -0.013 C 
HETATM    3  C3  UNL     1      24.736   3.032  50.958  1.00  0.00     0.036 A 
HETATM    4  C4  UNL     1      23.635   3.977  50.853  1.00  0.00     0.161 A 
HETATM    5  N1  UNL     1      23.671   5.040  50.167  1.00  0.00    -0.239 NA
HETATM    6  N3  UNL     1      22.453   3.669  51.568  1.00  0.00    -0.239 NA
HETATM    7  C10 UNL     1      22.372   2.597  52.279  1.00  0.00     0.144 A 
HETATM    8  C11 UNL     1      23.466   1.652  52.387  1.00  0.00     0.089 A 
HETATM    9  C12 UNL     1      23.232   0.505  53.215  1.00  0.00     0.103 C 
HETATM   10  N4  UNL     1      23.061  -0.427  53.877  1.00  0.00    -0.191 NA
HETATM   11  C13 UNL     1      24.615   1.834  51.765  1.00  0.00     0.069 A 
ENDROOT
BRANCH  11  12
HETATM   12  N5  UNL     1      25.573   0.838  51.964  1.00  0.00    -0.354 N 
HETATM   13  H16 UNL     1      25.443  -0.139  51.610  1.00  0.00     0.166 HD
BRANCH  12  14
HETATM   14  C14 UNL     1      26.816   0.541  52.520  1.00  0.00     0.034 A 
HETATM   15  C15 UNL     1      27.754   1.451  53.023  1.00  0.00     0.032 A 
HETATM   16  C16 UNL     1      28.972   1.091  53.556  1.00  0.00     0.046 A 
HETATM   17  C17 UNL     1      29.224  -0.265  53.564  1.00  0.00     0.138 A 
HETATM   18  F1  UNL     1      30.408  -0.718  54.075  1.00  0.00    -0.204 F 
HETATM   19  C18 UNL     1      28.389  -1.257  53.101  1.00  0.00     0.074 A 
HETATM   20 CL1  UNL     1      28.805  -2.955  53.158  1.00  0.00    -0.081 Cl
HETATM   21  C19 UNL     1      27.174  -0.810  52.577  1.00  0.00     0.056 A 
ENDBRANCH  12  14
ENDBRANCH  11  12
BRANCH   5  22
HETATM   22  C5  UNL     1      22.621   5.983  50.040  1.00  0.00     0.135 C 
HETATM   23  C6  UNL     1      22.686   7.261  50.383  1.00  0.00     0.102 C 
BRANCH  23  24
HETATM   24  N2  UNL     1      21.442   7.847  50.099  1.00  0.00    -0.394 N 
HETATM   25  H7  UNL     1      20.585   7.637  50.668  1.00  0.00     0.159 HD
BRANCH  24  26
HETATM   26  C7  UNL     1      21.305   8.760  49.010  1.00  0.00     0.072 C 
HETATM   27  C8  UNL     1      20.371   9.903  49.361  1.00  0.00     0.031 C 
HETATM   28  C9  UNL     1      22.609   9.368  48.575  1.00  0.00     0.031 C 
ENDBRANCH  24  26
ENDBRANCH  23  24
ENDBRANCH   5  22
TORSDOF 5
ENDMDL
MODEL 9
REMARK VINA RESULT:      -7.8      4.298      8.911
REMARK  5 active torsions:
REMARK  status: ('A' for Active; 'I' for Inactive)
REMARK    1  A    between atoms: N1_5  and  C5_6 
REMARK    2  A    between atoms: C6_7  and  N2_8 
REMARK    3  A    between atoms: N2_8  and  C7_9 
REMARK    4  A    between atoms: C13_17  and  N5_18 
REMARK    5  A    between atoms: N5_18  and  C14_19 
ROOT
HETATM    1  C1  UNL     1      23.798   2.868  49.890  1.00  0.00     0.037 C 
HETATM    2  C2  UNL     1      23.145   1.918  50.814  1.00  0.00    -0.013 C 
HETATM    3  C3  UNL     1      23.470   1.128  51.819  1.00  0.00     0.036 A 
HETATM    4  C4  UNL     1      24.840   1.037  52.299  1.00  0.00     0.161 A 
HETATM    5  N1  UNL     1      25.811   1.685  51.810  1.00  0.00    -0.239 NA
HETATM    6  N3  UNL     1      25.085   0.163  53.385  1.00  0.00    -0.239 NA
HETATM    7  C10 UNL     1      24.126  -0.516  53.914  1.00  0.00     0.144 A 
HETATM    8  C11 UNL     1      22.758  -0.429  53.441  1.00  0.00     0.089 A 
HETATM    9  C12 UNL     1      21.798  -1.245  54.125  1.00  0.00     0.103 C 
HETATM   10  N4  UNL     1      21.010  -1.895  54.667  1.00  0.00    -0.191 NA
HETATM   11  C13 UNL     1      22.412   0.351  52.435  1.00  0.00     0.069 A 
ENDROOT
BRANCH  11  12
HETATM   12  N5  UNL     1      21.058   0.331  52.094  1.00  0.00    -0.354 N 
HETATM   13  H16 UNL     1      20.508  -0.559  52.050  1.00  0.00     0.166 HD
BRANCH  12  14
HETATM   14  C14 UNL     1      19.959   1.105  51.726  1.00  0.00     0.034 A 
HETATM   15  C15 UNL     1      19.724   2.446  52.056  1.00  0.00     0.032 A 
HETATM   16  C16 UNL     1      18.611   3.155  51.664  1.00  0.00     0.046 A 
HETATM   17  C17 UNL     1      17.707   2.443  50.903  1.00  0.00     0.138 A 
HETATM   18  F1  UNL     1      16.570   3.064  50.467  1.00  0.00    -0.204 F 
HETATM   19  C18 UNL     1      17.821   1.128  50.514  1.00  0.00     0.074 A 
HETATM   20 CL1  UNL     1      16.614   0.314  49.543  1.00  0.00    -0.081 Cl
HETATM   21  C19 UNL     1      18.978   0.480  50.951  1.00  0.00     0.056 A 
ENDBRANCH  12  14
ENDBRANCH  11  12
BRANCH   5  22
HETATM   22  C5  UNL     1      27.156   1.624  52.248  1.00  0.00     0.135 C 
HETATM   23  C6  UNL     1      27.639   2.196  53.342  1.00  0.00     0.102 C 
BRANCH  23  24
HETATM   24  N2  UNL     1      29.009   1.896  53.415  1.00  0.00    -0.394 N 
HETATM   25  H7  UNL     1      29.729   2.456  52.895  1.00  0.00     0.159 HD
BRANCH  24  26
HETATM   26  C7  UNL     1      29.469   0.806  54.213  1.00  0.00     0.072 C 
HETATM   27  C8  UNL     1      28.340   0.203  55.029  1.00  0.00     0.031 C 
HETATM   28  C9  UNL     1      30.080  -0.307  53.408  1.00  0.00     0.031 C 
ENDBRANCH  24  26
ENDBRANCH  23  24
ENDBRANCH   5  22
TORSDOF 5
ENDMDL
