MODEL 1
REMARK VINA RESULT:      -8.8      0.000      0.000
REMARK  3 active torsions:
REMARK  status: ('A' for Active; 'I' for Inactive)
REMARK    1  A    between atoms: C5_7  and  C6_8 
REMARK    2  A    between atoms: C10_15  and  N6_16 
REMARK    3  A    between atoms: N6_16  and  C11_17 
ROOT
HETATM    1  C6  UNL     1      23.501   2.813  50.216  1.00  0.00     0.039 A 
HETATM    2  C7  UNL     1      22.933   2.824  48.936  1.00  0.00     0.033 A 
HETATM    3  C8  UNL     1      21.861   1.959  48.865  1.00  0.00     0.119 A 
HETATM    4  N3  UNL     1      21.764   1.415  50.090  1.00  0.00    -0.240 N 
HETATM    5  N4  UNL     1      20.969   0.538  50.662  1.00  0.00    -0.161 NA
HETATM    6  C9  UNL     1      21.071   0.149  51.916  1.00  0.00     0.258 A 
HETATM    7  N5  UNL     1      22.039   0.642  52.731  1.00  0.00    -0.220 NA
HETATM    8  C10 UNL     1      22.883   1.543  52.203  1.00  0.00     0.159 A 
HETATM    9  C19 UNL     1      22.719   1.906  50.891  1.00  0.00     0.114 A 
ENDROOT
BRANCH   8  10
HETATM   10  N6  UNL     1      23.901   2.029  53.058  1.00  0.00    -0.339 N 
HETATM   11  H15 UNL     1      24.325   2.688  53.718  1.00  0.00     0.167 HD
BRANCH  10  12
HETATM   12  C11 UNL     1      25.096   1.216  53.138  1.00  0.00     0.034 A 
HETATM   13  C12 UNL     1      25.355  -0.154  52.950  1.00  0.00     0.032 A 
HETATM   14  C13 UNL     1      26.598  -0.714  53.064  1.00  0.00     0.034 A 
HETATM   15  C14 UNL     1      27.671   0.079  53.379  1.00  0.00     0.064 A 
HETATM   16  C15 UNL     1      27.480   1.427  53.575  1.00  0.00     0.013 A 
HETATM   17  N8  UNL     1      28.952  -0.313  53.528  1.00  0.00    -0.274 N 
HETATM   18  C16 UNL     1      28.768   1.862  53.867  1.00  0.00     0.152 A 
HETATM   19  C18 UNL     1      26.229   1.985  53.459  1.00  0.00     0.044 A 
HETATM   20  N7  UNL     1      29.624   0.800  53.831  1.00  0.00    -0.184 NA
HETATM   21  C17 UNL     1      29.486  -1.657  53.390  1.00  0.00     0.180 C 
ENDBRANCH  10  12
ENDBRANCH   8  10
BRANCH   1  22
HETATM   22  C5  UNL     1      24.649   3.708  50.506  1.00  0.00     0.489 C 
HETATM   23  N1  UNL     1      25.419   4.107  49.393  1.00  0.00     0.122 N 
HETATM   24  C1  UNL     1      26.866   3.915  49.566  1.00  0.00     0.313 C 
HETATM   25  C2  UNL     1      25.261   5.474  48.956  1.00  0.00     0.277 C 
HETATM   26  C3  UNL     1      25.368   6.412  50.174  1.00  0.00     0.060 C 
HETATM   27  C4  UNL     1      24.129   6.048  50.972  1.00  0.00     0.274 C 
HETATM   28  N2  UNL     1      24.228   4.728  51.432  1.00  0.00     0.122 N 
HETATM   29  H10 UNL     1      23.371   4.388  51.919  1.00  0.00     0.319 HD
ENDBRANCH   1  22
TORSDOF 3
ENDMDL
MODEL 2
REMARK VINA RESULT:      -8.6      2.659      3.673
REMARK  3 active torsions:
REMARK  status: ('A' for Active; 'I' for Inactive)
REMARK    1  A    between atoms: C5_7  and  C6_8 
REMARK    2  A    between atoms: C10_15  and  N6_16 
REMARK    3  A    between atoms: N6_16  and  C11_17 
ROOT
HETATM    1  C6  UNL     1      20.792   0.567  52.009  1.00  0.00     0.039 A 
HETATM    2  C7  UNL     1      19.456   0.182  52.175  1.00  0.00     0.033 A 
HETATM    3  C8  UNL     1      19.318  -0.671  53.249  1.00  0.00     0.119 A 
HETATM    4  N3  UNL     1      20.558  -0.816  53.747  1.00  0.00    -0.240 N 
HETATM    5  N4  UNL     1      21.091  -1.483  54.747  1.00  0.00    -0.161 NA
HETATM    6  C9  UNL     1      22.373  -1.470  55.049  1.00  0.00     0.258 A 
HETATM    7  N5  UNL     1      23.261  -0.744  54.324  1.00  0.00    -0.220 NA
HETATM    8  C10 UNL     1      22.776  -0.040  53.287  1.00  0.00     0.159 A 
HETATM    9  C19 UNL     1      21.431  -0.097  53.029  1.00  0.00     0.114 A 
ENDROOT
BRANCH   8  10
HETATM   10  N6  UNL     1      23.718   0.691  52.526  1.00  0.00    -0.339 N 
HETATM   11  H15 UNL     1      24.017   1.386  51.834  1.00  0.00     0.167 HD
BRANCH  10  12
HETATM   12  C11 UNL     1      25.109   0.369  52.769  1.00  0.00     0.034 A 
HETATM   13  C12 UNL     1      25.859  -0.819  52.700  1.00  0.00     0.032 A 
HETATM   14  C13 UNL     1      27.199  -0.886  52.963  1.00  0.00     0.034 A 
HETATM   15  C14 UNL     1      27.878   0.252  53.316  1.00  0.00     0.064 A 
HETATM   16  C15 UNL     1      27.198   1.445  53.400  1.00  0.00     0.013 A 
HETATM   17  N8  UNL     1      29.190   0.355  53.605  1.00  0.00    -0.274 N 
HETATM   18  C16 UNL     1      28.206   2.326  53.774  1.00  0.00     0.152 A 
HETATM   19  C18 UNL     1      25.850   1.507  53.135  1.00  0.00     0.044 A 
HETATM   20  N7  UNL     1      29.384   1.646  53.888  1.00  0.00    -0.184 NA
HETATM   21  C17 UNL     1      30.180  -0.707  53.609  1.00  0.00     0.180 C 
ENDBRANCH  10  12
ENDBRANCH   8  10
BRANCH   1  22
HETATM   22  C5  UNL     1      21.142   1.517  50.923  1.00  0.00     0.489 C 
HETATM   23  N1  UNL     1      20.567   1.254  49.662  1.00  0.00     0.122 N 
HETATM   24  C1  UNL     1      21.532   1.253  48.553  1.00  0.00     0.313 C 
HETATM   25  C2  UNL     1      19.500   2.132  49.244  1.00  0.00     0.277 C 
HETATM   26  C3  UNL     1      19.935   3.595  49.453  1.00  0.00     0.060 C 
HETATM   27  C4  UNL     1      20.030   3.691  50.964  1.00  0.00     0.274 C 
HETATM   28  N2  UNL     1      21.060   2.862  51.432  1.00  0.00     0.122 N 
HETATM   29  H10 UNL     1      21.125   2.819  52.471  1.00  0.00     0.319 HD
ENDBRANCH   1  22
TORSDOF 3
ENDMDL
MODEL 3
REMARK VINA RESULT:      -8.6      1.722      6.222
REMARK  3 active torsions:
REMARK  status: ('A' for Active; 'I' for Inactive)
REMARK    1  A    between atoms: C5_7  and  C6_8 
REMARK    2  A    between atoms: C10_15  and  N6_16 
REMARK    3  A    between atoms: N6_16  and  C11_17 
ROOT
HETATM    1  C6  UNL     1      25.462  -0.088  53.778  1.00  0.00     0.039 A 
HETATM    2  C7  UNL     1      25.339  -0.826  54.962  1.00  0.00     0.033 A 
HETATM    3  C8  UNL     1      24.015  -1.084  55.246  1.00  0.00     0.119 A 
HETATM    4  N3  UNL     1      23.320  -0.512  54.248  1.00  0.00    -0.240 N 
HETATM    5  N4  UNL     1      22.047  -0.402  53.939  1.00  0.00    -0.161 NA
HETATM    6  C9  UNL     1      21.592   0.226  52.875  1.00  0.00     0.258 A 
HETATM    7  N5  UNL     1      22.436   0.825  51.996  1.00  0.00    -0.220 NA
HETATM    8  C10 UNL     1      23.750   0.748  52.258  1.00  0.00     0.159 A 
HETATM    9  C19 UNL     1      24.156   0.076  53.382  1.00  0.00     0.114 A 
ENDROOT
BRANCH   8  10
HETATM   10  N6  UNL     1      24.614   1.398  51.345  1.00  0.00    -0.339 N 
HETATM   11  H15 UNL     1      25.366   1.448  50.650  1.00  0.00     0.167 HD
BRANCH  10  12
HETATM   12  C11 UNL     1      24.441   2.831  51.228  1.00  0.00     0.034 A 
HETATM   13  C12 UNL     1      23.694   3.783  51.945  1.00  0.00     0.032 A 
HETATM   14  C13 UNL     1      23.697   5.120  51.660  1.00  0.00     0.034 A 
HETATM   15  C14 UNL     1      24.460   5.591  50.623  1.00  0.00     0.064 A 
HETATM   16  C15 UNL     1      25.213   4.707  49.885  1.00  0.00     0.013 A 
HETATM   17  N8  UNL     1      24.573   6.870  50.215  1.00  0.00    -0.274 N 
HETATM   18  C16 UNL     1      25.821   5.548  48.960  1.00  0.00     0.152 A 
HETATM   19  C18 UNL     1      25.208   3.363  50.175  1.00  0.00     0.044 A 
HETATM   20  N7  UNL     1      25.418   6.834  49.183  1.00  0.00    -0.184 NA
HETATM   21  C17 UNL     1      23.915   8.037  50.776  1.00  0.00     0.180 C 
ENDBRANCH  10  12
ENDBRANCH   8  10
BRANCH   1  22
HETATM   22  C5  UNL     1      26.817   0.262  53.281  1.00  0.00     0.489 C 
HETATM   23  N1  UNL     1      27.637   0.983  54.174  1.00  0.00     0.122 N 
HETATM   24  C1  UNL     1      28.249   2.184  53.587  1.00  0.00     0.313 C 
HETATM   25  C2  UNL     1      28.723   0.255  54.784  1.00  0.00     0.277 C 
HETATM   26  C3  UNL     1      29.493  -0.515  53.693  1.00  0.00     0.060 C 
HETATM   27  C4  UNL     1      28.468  -1.536  53.235  1.00  0.00     0.274 C 
HETATM   28  N2  UNL     1      27.386  -0.887  52.624  1.00  0.00     0.122 N 
HETATM   29  H10 UNL     1      26.608  -1.527  52.359  1.00  0.00     0.319 HD
ENDBRANCH   1  22
TORSDOF 3
ENDMDL
MODEL 4
REMARK VINA RESULT:      -8.2      1.598      4.692
REMARK  3 active torsions:
REMARK  status: ('A' for Active; 'I' for Inactive)
REMARK    1  A    between atoms: C5_7  and  C6_8 
REMARK    2  A    between atoms: C10_15  and  N6_16 
REMARK    3  A    between atoms: N6_16  and  C11_17 
ROOT
HETATM    1  C6  UNL     1      22.056   1.006  51.622  1.00  0.00     0.039 A 
HETATM    2  C7  UNL     1      21.101   0.623  50.672  1.00  0.00     0.033 A 
HETATM    3  C8  UNL     1      21.372   1.188  49.445  1.00  0.00     0.119 A 
HETATM    4  N3  UNL     1      22.486   1.918  49.628  1.00  0.00    -0.240 N 
HETATM    5  N4  UNL     1      23.239   2.680  48.867  1.00  0.00    -0.161 NA
HETATM    6  C9  UNL     1      24.316   3.313  49.284  1.00  0.00     0.258 A 
HETATM    7  N5  UNL     1      24.736   3.218  50.572  1.00  0.00    -0.220 NA
HETATM    8  C10 UNL     1      24.006   2.453  51.399  1.00  0.00     0.159 A 
HETATM    9  C19 UNL     1      22.897   1.820  50.900  1.00  0.00     0.114 A 
ENDROOT
BRANCH   8  10
HETATM   10  N6  UNL     1      24.442   2.385  52.744  1.00  0.00    -0.339 N 
HETATM   11  H15 UNL     1      24.378   2.559  53.752  1.00  0.00     0.167 HD
BRANCH  10  12
HETATM   12  C11 UNL     1      25.694   1.694  52.965  1.00  0.00     0.034 A 
HETATM   13  C12 UNL     1      26.967   2.102  53.403  1.00  0.00     0.032 A 
HETATM   14  C13 UNL     1      28.026   1.250  53.557  1.00  0.00     0.034 A 
HETATM   15  C14 UNL     1      27.869  -0.083  53.278  1.00  0.00     0.064 A 
HETATM   16  C15 UNL     1      26.646  -0.542  52.846  1.00  0.00     0.013 A 
HETATM   17  N8  UNL     1      28.805  -1.047  53.377  1.00  0.00    -0.274 N 
HETATM   18  C16 UNL     1      26.891  -1.901  52.677  1.00  0.00     0.152 A 
HETATM   19  C18 UNL     1      25.585   0.318  52.692  1.00  0.00     0.044 A 
HETATM   20  N7  UNL     1      28.189  -2.171  53.002  1.00  0.00    -0.184 NA
HETATM   21  C17 UNL     1      30.185  -0.897  53.801  1.00  0.00     0.180 C 
ENDBRANCH  10  12
ENDBRANCH   8  10
BRANCH   1  22
HETATM   22  C5  UNL     1      21.959   0.471  53.003  1.00  0.00     0.489 C 
HETATM   23  N1  UNL     1      20.662   0.411  53.554  1.00  0.00     0.122 N 
HETATM   24  C1  UNL     1      20.553   1.008  54.893  1.00  0.00     0.313 C 
HETATM   25  C2  UNL     1      20.069  -0.899  53.666  1.00  0.00     0.277 C 
HETATM   26  C3  UNL     1      21.081  -1.861  54.317  1.00  0.00     0.060 C 
HETATM   27  C4  UNL     1      22.168  -1.949  53.261  1.00  0.00     0.274 C 
HETATM   28  N2  UNL     1      22.790  -0.701  53.111  1.00  0.00     0.122 N 
HETATM   29  H10 UNL     1      23.493  -0.672  52.342  1.00  0.00     0.319 HD
ENDBRANCH   1  22
TORSDOF 3
ENDMDL
MODEL 5
REMARK VINA RESULT:      -8.0      2.428      6.193
REMARK  3 active torsions:
REMARK  status: ('A' for Active; 'I' for Inactive)
REMARK    1  A    between atoms: C5_7  and  C6_8 
REMARK    2  A    between atoms: C10_15  and  N6_16 
REMARK    3  A    between atoms: N6_16  and  C11_17 
ROOT
HETATM    1  C6  UNL     1      23.607   2.521  50.964  1.00  0.00     0.039 A 
HETATM    2  C7  UNL     1      22.808   2.062  52.018  1.00  0.00     0.033 A 
HETATM    3  C8  UNL     1      23.581   1.700  53.101  1.00  0.00     0.119 A 
HETATM    4  N3  UNL     1      24.850   1.930  52.723  1.00  0.00    -0.240 N 
HETATM    5  N4  UNL     1      26.031   1.795  53.285  1.00  0.00    -0.161 NA
HETATM    6  C9  UNL     1      27.171   2.096  52.699  1.00  0.00     0.258 A 
HETATM    7  N5  UNL     1      27.206   2.582  51.432  1.00  0.00    -0.220 NA
HETATM    8  C10 UNL     1      26.030   2.742  50.804  1.00  0.00     0.159 A 
HETATM    9  C19 UNL     1      24.880   2.411  51.473  1.00  0.00     0.114 A 
ENDROOT
BRANCH   8  10
HETATM   10  N6  UNL     1      26.085   3.225  49.475  1.00  0.00    -0.339 N 
HETATM   11  H15 UNL     1      26.041   3.146  48.454  1.00  0.00     0.167 HD
BRANCH  10  12
HETATM   12  C11 UNL     1      26.353   4.640  49.332  1.00  0.00     0.034 A 
HETATM   13  C12 UNL     1      25.691   5.805  49.760  1.00  0.00     0.032 A 
HETATM   14  C13 UNL     1      26.149   7.071  49.518  1.00  0.00     0.034 A 
HETATM   15  C14 UNL     1      27.317   7.247  48.821  1.00  0.00     0.064 A 
HETATM   16  C15 UNL     1      28.009   6.144  48.376  1.00  0.00     0.013 A 
HETATM   17  N8  UNL     1      27.900   8.419  48.501  1.00  0.00    -0.274 N 
HETATM   18  C16 UNL     1      29.098   6.727  47.736  1.00  0.00     0.152 A 
HETATM   19  C18 UNL     1      27.545   4.874  48.622  1.00  0.00     0.044 A 
HETATM   20  N7  UNL     1      29.004   8.086  47.828  1.00  0.00    -0.184 NA
HETATM   21  C17 UNL     1      27.430   9.755  48.819  1.00  0.00     0.180 C 
ENDBRANCH  10  12
ENDBRANCH   8  10
BRANCH   1  22
HETATM   22  C5  UNL     1      22.958   2.994  49.716  1.00  0.00     0.489 C 
HETATM   23  N1  UNL     1      22.175   2.044  49.026  1.00  0.00     0.122 N 
HETATM   24  C1  UNL     1      22.484   1.942  47.593  1.00  0.00     0.313 C 
HETATM   25  C2  UNL     1      20.744   2.210  49.102  1.00  0.00     0.277 C 
HETATM   26  C3  UNL     1      20.385   3.676  48.791  1.00  0.00     0.060 C 
HETATM   27  C4  UNL     1      20.986   4.413  49.973  1.00  0.00     0.274 C 
HETATM   28  N2  UNL     1      22.383   4.295  49.950  1.00  0.00     0.122 N 
HETATM   29  H10 UNL     1      22.854   4.711  50.782  1.00  0.00     0.319 HD
ENDBRANCH   1  22
TORSDOF 3
ENDMDL
MODEL 6
REMARK VINA RESULT:      -8.0      1.994      6.155
REMARK  3 active torsions:
REMARK  status: ('A' for Active; 'I' for Inactive)
REMARK    1  A    between atoms: C5_7  and  C6_8 
REMARK    2  A    between atoms: C10_15  and  N6_16 
REMARK    3  A    between atoms: N6_16  and  C11_17 
ROOT
HETATM    1  C6  UNL     1      25.724   2.483  51.560  1.00  0.00     0.039 A 
HETATM    2  C7  UNL     1      26.751   2.559  50.611  1.00  0.00     0.033 A 
HETATM    3  C8  UNL     1      26.346   3.275  49.505  1.00  0.00     0.119 A 
HETATM    4  N3  UNL     1      25.079   3.640  49.762  1.00  0.00    -0.240 N 
HETATM    5  N4  UNL     1      24.155   4.323  49.123  1.00  0.00    -0.161 NA
HETATM    6  C9  UNL     1      22.947   4.558  49.593  1.00  0.00     0.258 A 
HETATM    7  N5  UNL     1      22.560   4.094  50.808  1.00  0.00    -0.220 NA
HETATM    8  C10 UNL     1      23.461   3.388  51.510  1.00  0.00     0.159 A 
HETATM    9  C19 UNL     1      24.701   3.181  50.964  1.00  0.00     0.114 A 
ENDROOT
BRANCH   8  10
HETATM   10  N6  UNL     1      23.034   2.890  52.764  1.00  0.00    -0.339 N 
HETATM   11  H15 UNL     1      23.081   2.765  53.780  1.00  0.00     0.167 HD
BRANCH  10  12
HETATM   12  C11 UNL     1      21.851   2.056  52.739  1.00  0.00     0.034 A 
HETATM   13  C12 UNL     1      20.581   2.185  52.148  1.00  0.00     0.032 A 
HETATM   14  C13 UNL     1      19.599   1.239  52.245  1.00  0.00     0.034 A 
HETATM   15  C14 UNL     1      19.835   0.088  52.952  1.00  0.00     0.064 A 
HETATM   16  C15 UNL     1      21.059  -0.096  53.552  1.00  0.00     0.013 A 
HETATM   17  N8  UNL     1      18.979  -0.936  53.142  1.00  0.00    -0.274 N 
HETATM   18  C16 UNL     1      20.904  -1.342  54.149  1.00  0.00     0.152 A 
HETATM   19  C18 UNL     1      22.043   0.858  53.452  1.00  0.00     0.044 A 
HETATM   20  N7  UNL     1      19.651  -1.818  53.887  1.00  0.00    -0.184 NA
HETATM   21  C17 UNL     1      17.620  -1.055  52.646  1.00  0.00     0.180 C 
ENDBRANCH  10  12
ENDBRANCH   8  10
BRANCH   1  22
HETATM   22  C5  UNL     1      25.976   1.780  52.844  1.00  0.00     0.489 C 
HETATM   23  N1  UNL     1      26.251   0.400  52.751  1.00  0.00     0.122 N 
HETATM   24  C1  UNL     1      25.444  -0.433  53.654  1.00  0.00     0.313 C 
HETATM   25  C2  UNL     1      27.619  -0.001  52.975  1.00  0.00     0.277 C 
HETATM   26  C3  UNL     1      28.140   0.666  54.263  1.00  0.00     0.060 C 
HETATM   27  C4  UNL     1      28.159   2.135  53.880  1.00  0.00     0.274 C 
HETATM   28  N2  UNL     1      26.851   2.587  53.656  1.00  0.00     0.122 N 
HETATM   29  H10 UNL     1      26.800   3.569  53.309  1.00  0.00     0.319 HD
ENDBRANCH   1  22
TORSDOF 3
ENDMDL
MODEL 7
REMARK VINA RESULT:      -8.0      2.020      6.590
REMARK  3 active torsions:
REMARK  status: ('A' for Active; 'I' for Inactive)
REMARK    1  A    between atoms: C5_7  and  C6_8 
REMARK    2  A    between atoms: C10_15  and  N6_16 
REMARK    3  A    between atoms: N6_16  and  C11_17 
ROOT
HETATM    1  C6  UNL     1      24.513   0.063  53.572  1.00  0.00     0.039 A 
HETATM    2  C7  UNL     1      24.342  -0.927  54.547  1.00  0.00     0.033 A 
HETATM    3  C8  UNL     1      23.013  -1.059  54.888  1.00  0.00     0.119 A 
HETATM    4  N3  UNL     1      22.362  -0.158  54.132  1.00  0.00    -0.240 N 
HETATM    5  N4  UNL     1      21.108   0.207  53.985  1.00  0.00    -0.161 NA
HETATM    6  C9  UNL     1      20.699   1.144  53.155  1.00  0.00     0.258 A 
HETATM    7  N5  UNL     1      21.574   1.822  52.369  1.00  0.00    -0.220 NA
HETATM    8  C10 UNL     1      22.872   1.494  52.475  1.00  0.00     0.159 A 
HETATM    9  C19 UNL     1      23.230   0.507  53.357  1.00  0.00     0.114 A 
ENDROOT
BRANCH   8  10
HETATM   10  N6  UNL     1      23.775   2.226  51.668  1.00  0.00    -0.339 N 
HETATM   11  H15 UNL     1      24.659   2.699  51.455  1.00  0.00     0.167 HD
BRANCH  10  12
HETATM   12  C11 UNL     1      23.295   2.578  50.348  1.00  0.00     0.034 A 
HETATM   13  C12 UNL     1      22.643   1.863  49.327  1.00  0.00     0.032 A 
HETATM   14  C13 UNL     1      22.258   2.419  48.138  1.00  0.00     0.034 A 
HETATM   15  C14 UNL     1      22.508   3.745  47.898  1.00  0.00     0.064 A 
HETATM   16  C15 UNL     1      23.143   4.496  48.860  1.00  0.00     0.013 A 
HETATM   17  N8  UNL     1      22.196   4.440  46.786  1.00  0.00    -0.274 N 
HETATM   18  C16 UNL     1      23.209   5.746  48.253  1.00  0.00     0.152 A 
HETATM   19  C18 UNL     1      23.528   3.933  50.053  1.00  0.00     0.044 A 
HETATM   20  N7  UNL     1      22.635   5.680  47.016  1.00  0.00    -0.184 NA
HETATM   21  C17 UNL     1      21.527   3.947  45.596  1.00  0.00     0.180 C 
ENDBRANCH  10  12
ENDBRANCH   8  10
BRANCH   1  22
HETATM   22  C5  UNL     1      25.874   0.332  53.045  1.00  0.00     0.489 C 
HETATM   23  N1  UNL     1      26.774   0.949  53.939  1.00  0.00     0.122 N 
HETATM   24  C1  UNL     1      27.458   2.126  53.382  1.00  0.00     0.313 C 
HETATM   25  C2  UNL     1      27.820   0.116  54.480  1.00  0.00     0.277 C 
HETATM   26  C3  UNL     1      28.495  -0.661  53.334  1.00  0.00     0.060 C 
HETATM   27  C4  UNL     1      27.381  -1.581  52.868  1.00  0.00     0.274 C 
HETATM   28  N2  UNL     1      26.334  -0.826  52.322  1.00  0.00     0.122 N 
HETATM   29  H10 UNL     1      25.501  -1.393  52.056  1.00  0.00     0.319 HD
ENDBRANCH   1  22
TORSDOF 3
ENDMDL
MODEL 8
REMARK VINA RESULT:      -8.0      1.854      4.670
REMARK  3 active torsions:
REMARK  status: ('A' for Active; 'I' for Inactive)
REMARK    1  A    between atoms: C5_7  and  C6_8 
REMARK    2  A    between atoms: C10_15  and  N6_16 
REMARK    3  A    between atoms: N6_16  and  C11_17 
ROOT
HETATM    1  C6  UNL     1      21.981   3.962  50.961  1.00  0.00     0.039 A 
HETATM    2  C7  UNL     1      21.043   4.948  51.289  1.00  0.00     0.033 A 
HETATM    3  C8  UNL     1      21.604   6.206  51.221  1.00  0.00     0.119 A 
HETATM    4  N3  UNL     1      22.881   6.004  50.854  1.00  0.00    -0.240 N 
HETATM    5  N4  UNL     1      23.919   6.776  50.620  1.00  0.00    -0.161 NA
HETATM    6  C9  UNL     1      25.107   6.335  50.261  1.00  0.00     0.258 A 
HETATM    7  N5  UNL     1      25.350   5.008  50.105  1.00  0.00    -0.220 NA
HETATM    8  C10 UNL     1      24.327   4.168  50.331  1.00  0.00     0.159 A 
HETATM    9  C19 UNL     1      23.115   4.693  50.699  1.00  0.00     0.114 A 
ENDROOT
BRANCH   8  10
HETATM   10  N6  UNL     1      24.602   2.787  50.188  1.00  0.00    -0.339 N 
HETATM   11  H15 UNL     1      24.540   1.868  49.740  1.00  0.00     0.167 HD
BRANCH  10  12
HETATM   12  C11 UNL     1      25.460   2.209  51.201  1.00  0.00     0.034 A 
HETATM   13  C12 UNL     1      26.805   2.407  51.565  1.00  0.00     0.032 A 
HETATM   14  C13 UNL     1      27.417   1.744  52.593  1.00  0.00     0.034 A 
HETATM   15  C14 UNL     1      26.707   0.830  53.329  1.00  0.00     0.064 A 
HETATM   16  C15 UNL     1      25.387   0.595  53.019  1.00  0.00     0.013 A 
HETATM   17  N8  UNL     1      27.159   0.098  54.366  1.00  0.00    -0.274 N 
HETATM   18  C16 UNL     1      25.037  -0.365  53.963  1.00  0.00     0.152 A 
HETATM   19  C18 UNL     1      24.776   1.263  51.985  1.00  0.00     0.044 A 
HETATM   20  N7  UNL     1      26.116  -0.640  54.752  1.00  0.00    -0.184 NA
HETATM   21  C17 UNL     1      28.493   0.109  54.939  1.00  0.00     0.180 C 
ENDBRANCH  10  12
ENDBRANCH   8  10
BRANCH   1  22
HETATM   22  C5  UNL     1      21.559   2.540  50.942  1.00  0.00     0.489 C 
HETATM   23  N1  UNL     1      20.729   2.125  52.005  1.00  0.00     0.122 N 
HETATM   24  C1  UNL     1      21.184   0.899  52.676  1.00  0.00     0.313 C 
HETATM   25  C2  UNL     1      19.339   1.900  51.689  1.00  0.00     0.277 C 
HETATM   26  C3  UNL     1      19.242   1.021  50.426  1.00  0.00     0.060 C 
HETATM   27  C4  UNL     1      19.805   1.935  49.353  1.00  0.00     0.274 C 
HETATM   28  N2  UNL     1      21.162   2.186  49.603  1.00  0.00     0.122 N 
HETATM   29  H10 UNL     1      21.589   2.874  48.947  1.00  0.00     0.319 HD
ENDBRANCH   1  22
TORSDOF 3
ENDMDL
MODEL 9
REMARK VINA RESULT:      -8.0      2.199      6.334
REMARK  3 active torsions:
REMARK  status: ('A' for Active; 'I' for Inactive)
REMARK    1  A    between atoms: C5_7  and  C6_8 
REMARK    2  A    between atoms: C10_15  and  N6_16 
REMARK    3  A    between atoms: N6_16  and  C11_17 
ROOT
HETATM    1  C6  UNL     1      23.615   1.322  51.929  1.00  0.00     0.039 A 
HETATM    2  C7  UNL     1      23.403   0.379  52.942  1.00  0.00     0.033 A 
HETATM    3  C8  UNL     1      24.577   0.096  53.606  1.00  0.00     0.119 A 
HETATM    4  N3  UNL     1      25.512   0.857  53.010  1.00  0.00    -0.240 N 
HETATM    5  N4  UNL     1      26.803   1.045  53.171  1.00  0.00    -0.161 NA
HETATM    6  C9  UNL     1      27.530   1.868  52.443  1.00  0.00     0.258 A 
HETATM    7  N5  UNL     1      26.976   2.601  51.443  1.00  0.00    -0.220 NA
HETATM    8  C10 UNL     1      25.659   2.451  51.230  1.00  0.00     0.159 A 
HETATM    9  C19 UNL     1      24.962   1.579  52.026  1.00  0.00     0.114 A 
ENDROOT
BRANCH   8  10
HETATM   10  N6  UNL     1      25.103   3.203  50.168  1.00  0.00    -0.339 N 
HETATM   11  H15 UNL     1      24.386   3.447  49.477  1.00  0.00     0.167 HD
BRANCH  10  12
HETATM   12  C11 UNL     1      25.917   4.293  49.675  1.00  0.00     0.034 A 
HETATM   13  C12 UNL     1      27.092   4.358  48.904  1.00  0.00     0.032 A 
HETATM   14  C13 UNL     1      27.692   5.530  48.534  1.00  0.00     0.034 A 
HETATM   15  C14 UNL     1      27.142   6.725  48.920  1.00  0.00     0.064 A 
HETATM   16  C15 UNL     1      25.992   6.724  49.676  1.00  0.00     0.013 A 
HETATM   17  N8  UNL     1      27.606   7.959  48.641  1.00  0.00    -0.274 N 
HETATM   18  C16 UNL     1      25.764   8.085  49.855  1.00  0.00     0.152 A 
HETATM   19  C18 UNL     1      25.392   5.544  50.046  1.00  0.00     0.044 A 
HETATM   20  N7  UNL     1      26.745   8.796  49.225  1.00  0.00    -0.184 NA
HETATM   21  C17 UNL     1      28.787   8.305  47.871  1.00  0.00     0.180 C 
ENDBRANCH  10  12
ENDBRANCH   8  10
BRANCH   1  22
HETATM   22  C5  UNL     1      22.460   1.787  51.119  1.00  0.00     0.489 C 
HETATM   23  N1  UNL     1      21.691   0.779  50.502  1.00  0.00     0.122 N 
HETATM   24  C1  UNL     1      21.452   1.002  49.069  1.00  0.00     0.313 C 
HETATM   25  C2  UNL     1      20.393   0.516  51.074  1.00  0.00     0.277 C 
HETATM   26  C3  UNL     1      19.648   1.849  51.277  1.00  0.00     0.060 C 
HETATM   27  C4  UNL     1      20.483   2.525  52.348  1.00  0.00     0.274 C 
HETATM   28  N2  UNL     1      21.760   2.815  51.847  1.00  0.00     0.122 N 
HETATM   29  H10 UNL     1      22.412   3.207  52.560  1.00  0.00     0.319 HD
ENDBRANCH   1  22
TORSDOF 3
ENDMDL
