MODEL 1
REMARK VINA RESULT:      -6.3      0.000      0.000
REMARK  9 active torsions:
REMARK  status: ('A' for Active; 'I' for Inactive)
REMARK    1  A    between atoms: C2_2  and  C3_3 
REMARK    2  A    between atoms: C3_3  and  N1_4 
REMARK    3  A    between atoms: N1_4  and  C4_5 
REMARK       I    between atoms: N1_4  and  C6_7 
REMARK    4  A    between atoms: C6_7  and  C7_9 
REMARK    5  A    between atoms: C10_12  and  N2_13 
REMARK    6  A    between atoms: N2_13  and  C11_14 
REMARK    7  A    between atoms: N2_13  and  C13_17 
REMARK    8  A    between atoms: C11_14  and  C12_15 
REMARK    9  A    between atoms: C13_17  and  C14_18 
ROOT
HETATM    1  C7  UNL     1      23.977  -0.116  53.608  1.00  0.00     0.032 A 
HETATM    2  C8  UNL     1      23.049  -0.779  54.453  1.00  0.00     0.019 A 
HETATM    3  C9  UNL     1      21.673  -0.811  54.172  1.00  0.00     0.030 A 
HETATM    4  C10 UNL     1      21.210  -0.186  53.053  1.00  0.00     0.030 A 
HETATM    5  C15 UNL     1      22.008   0.530  52.088  1.00  0.00     0.030 A 
HETATM    6  C16 UNL     1      23.271   0.394  52.611  1.00  0.00     0.019 A 
ENDROOT
BRANCH   1   7
HETATM    7  C6  UNL     1      25.293  -0.241  54.156  1.00  0.00     0.253 C 
HETATM    8  N1  UNL     1      26.506   0.470  53.958  1.00  0.00    -0.348 N 
HETATM    9  O1  UNL     1      25.618  -1.094  54.983  1.00  0.00    -0.267 OA
BRANCH   8  10
HETATM   10  C3  UNL     1      27.630  -0.018  54.727  1.00  0.00     0.125 C 
BRANCH  10  11
HETATM   11  C2  UNL     1      28.966   0.195  54.088  1.00  0.00     0.015 C 
HETATM   12  C1  UNL     1      29.601  -1.010  53.468  1.00  0.00     0.006 C 
ENDBRANCH  10  11
ENDBRANCH   8  10
BRANCH   8  13
HETATM   13  C4  UNL     1      26.877   1.615  53.165  1.00  0.00     0.121 C 
HETATM   14  C5  UNL     1      26.674   1.373  51.688  1.00  0.00     0.026 C 
ENDBRANCH   8  13
ENDBRANCH   1   7
BRANCH   4  15
HETATM   15  N2  UNL     1      19.803  -0.142  52.669  1.00  0.00    -0.379 N 
BRANCH  15  16
HETATM   16  C11 UNL     1      19.205   0.340  51.479  1.00  0.00     0.138 C 
BRANCH  16  17
HETATM   17  C12 UNL     1      18.452   1.607  51.496  1.00  0.00     0.134 C 
HETATM   18 CL1  UNL     1      19.427   3.041  51.881  1.00  0.00    -0.129 Cl
ENDBRANCH  16  17
ENDBRANCH  15  16
BRANCH  15  19
HETATM   19  C13 UNL     1      18.660  -0.593  53.387  1.00  0.00     0.138 C 
BRANCH  19  20
HETATM   20  C14 UNL     1      17.767  -1.571  52.696  1.00  0.00     0.134 C 
HETATM   21 CL2  UNL     1      17.673  -3.029  53.747  1.00  0.00    -0.129 Cl
ENDBRANCH  19  20
ENDBRANCH  15  19
ENDBRANCH   4  15
TORSDOF 9
ENDMDL
MODEL 2
REMARK VINA RESULT:      -6.2      1.428      2.798
REMARK  9 active torsions:
REMARK  status: ('A' for Active; 'I' for Inactive)
REMARK    1  A    between atoms: C2_2  and  C3_3 
REMARK    2  A    between atoms: C3_3  and  N1_4 
REMARK    3  A    between atoms: N1_4  and  C4_5 
REMARK       I    between atoms: N1_4  and  C6_7 
REMARK    4  A    between atoms: C6_7  and  C7_9 
REMARK    5  A    between atoms: C10_12  and  N2_13 
REMARK    6  A    between atoms: N2_13  and  C11_14 
REMARK    7  A    between atoms: N2_13  and  C13_17 
REMARK    8  A    between atoms: C11_14  and  C12_15 
REMARK    9  A    between atoms: C13_17  and  C14_18 
ROOT
HETATM    1  C7  UNL     1      24.769   0.373  53.105  1.00  0.00     0.032 A 
HETATM    2  C8  UNL     1      23.699  -0.150  53.877  1.00  0.00     0.019 A 
HETATM    3  C9  UNL     1      22.354   0.077  53.541  1.00  0.00     0.030 A 
HETATM    4  C10 UNL     1      22.064   0.824  52.439  1.00  0.00     0.030 A 
HETATM    5  C15 UNL     1      23.021   1.427  51.544  1.00  0.00     0.030 A 
HETATM    6  C16 UNL     1      24.213   1.045  52.109  1.00  0.00     0.019 A 
ENDROOT
BRANCH   1   7
HETATM    7  C6  UNL     1      26.014  -0.010  53.697  1.00  0.00     0.253 C 
HETATM    8  N1  UNL     1      27.348   0.462  53.562  1.00  0.00    -0.348 N 
HETATM    9  O1  UNL     1      26.139  -0.924  54.513  1.00  0.00    -0.267 OA
BRANCH   8  10
HETATM   10  C3  UNL     1      28.327  -0.245  54.358  1.00  0.00     0.125 C 
BRANCH  10  11
HETATM   11  C2  UNL     1      29.401  -0.927  53.571  1.00  0.00     0.015 C 
HETATM   12  C1  UNL     1      29.147  -2.356  53.207  1.00  0.00     0.006 C 
ENDBRANCH  10  11
ENDBRANCH   8  10
BRANCH   8  13
HETATM   13  C4  UNL     1      27.960   1.530  52.813  1.00  0.00     0.121 C 
HETATM   14  C5  UNL     1      28.683   2.510  53.708  1.00  0.00     0.026 C 
ENDBRANCH   8  13
ENDBRANCH   1   7
BRANCH   4  15
HETATM   15  N2  UNL     1      20.706   1.135  52.003  1.00  0.00    -0.379 N 
BRANCH  15  16
HETATM   16  C11 UNL     1      19.839   0.402  51.157  1.00  0.00     0.138 C 
BRANCH  16  17
HETATM   17  C12 UNL     1      18.562  -0.115  51.684  1.00  0.00     0.134 C 
HETATM   18 CL1  UNL     1      18.705  -1.029  53.200  1.00  0.00    -0.129 Cl
ENDBRANCH  16  17
ENDBRANCH  15  16
BRANCH  15  19
HETATM   19  C13 UNL     1      19.891   2.254  52.331  1.00  0.00     0.138 C 
BRANCH  19  20
HETATM   20  C14 UNL     1      20.458   3.609  52.061  1.00  0.00     0.134 C 
HETATM   21 CL2  UNL     1      20.553   3.792  50.273  1.00  0.00    -0.129 Cl
ENDBRANCH  19  20
ENDBRANCH  15  19
ENDBRANCH   4  15
TORSDOF 9
ENDMDL
MODEL 3
REMARK VINA RESULT:      -6.1      1.628      3.150
REMARK  9 active torsions:
REMARK  status: ('A' for Active; 'I' for Inactive)
REMARK    1  A    between atoms: C2_2  and  C3_3 
REMARK    2  A    between atoms: C3_3  and  N1_4 
REMARK    3  A    between atoms: N1_4  and  C4_5 
REMARK       I    between atoms: N1_4  and  C6_7 
REMARK    4  A    between atoms: C6_7  and  C7_9 
REMARK    5  A    between atoms: C10_12  and  N2_13 
REMARK    6  A    between atoms: N2_13  and  C11_14 
REMARK    7  A    between atoms: N2_13  and  C13_17 
REMARK    8  A    between atoms: C11_14  and  C12_15 
REMARK    9  A    between atoms: C13_17  and  C14_18 
ROOT
HETATM    1  C7  UNL     1      24.570   0.348  53.806  1.00  0.00     0.032 A 
HETATM    2  C8  UNL     1      24.320   1.562  53.115  1.00  0.00     0.019 A 
HETATM    3  C9  UNL     1      23.068   1.857  52.551  1.00  0.00     0.030 A 
HETATM    4  C10 UNL     1      22.057   0.951  52.670  1.00  0.00     0.030 A 
HETATM    5  C15 UNL     1      22.134  -0.324  53.339  1.00  0.00     0.030 A 
HETATM    6  C16 UNL     1      23.436  -0.335  53.776  1.00  0.00     0.019 A 
ENDROOT
BRANCH   1   7
HETATM    7  C6  UNL     1      25.929   0.325  54.252  1.00  0.00     0.253 C 
HETATM    8  N1  UNL     1      27.132  -0.190  53.698  1.00  0.00    -0.348 N 
HETATM    9  O1  UNL     1      26.314   0.804  55.319  1.00  0.00    -0.267 OA
BRANCH   8  10
HETATM   10  C3  UNL     1      28.308  -0.002  54.519  1.00  0.00     0.125 C 
BRANCH  10  11
HETATM   11  C2  UNL     1      29.354   0.884  53.920  1.00  0.00     0.015 C 
HETATM   12  C1  UNL     1      28.992   2.329  53.775  1.00  0.00     0.006 C 
ENDBRANCH  10  11
ENDBRANCH   8  10
BRANCH   8  13
HETATM   13  C4  UNL     1      27.461  -0.850  52.460  1.00  0.00     0.121 C 
HETATM   14  C5  UNL     1      26.877  -2.242  52.386  1.00  0.00     0.026 C 
ENDBRANCH   8  13
ENDBRANCH   1   7
BRANCH   4  15
HETATM   15  N2  UNL     1      20.722   1.145  52.114  1.00  0.00    -0.379 N 
BRANCH  15  16
HETATM   16  C11 UNL     1      19.922   0.257  51.355  1.00  0.00     0.138 C 
BRANCH  16  17
HETATM   17  C12 UNL     1      18.575  -0.108  51.831  1.00  0.00     0.134 C 
HETATM   18 CL1  UNL     1      18.557  -1.139  53.277  1.00  0.00    -0.129 Cl
ENDBRANCH  16  17
ENDBRANCH  15  16
BRANCH  15  19
HETATM   19  C13 UNL     1      19.864   2.276  52.208  1.00  0.00     0.138 C 
BRANCH  19  20
HETATM   20  C14 UNL     1      19.877   3.234  51.061  1.00  0.00     0.134 C 
HETATM   21 CL2  UNL     1      20.982   4.580  51.514  1.00  0.00    -0.129 Cl
ENDBRANCH  19  20
ENDBRANCH  15  19
ENDBRANCH   4  15
TORSDOF 9
ENDMDL
MODEL 4
REMARK VINA RESULT:      -6.0      2.332      2.980
REMARK  9 active torsions:
REMARK  status: ('A' for Active; 'I' for Inactive)
REMARK    1  A    between atoms: C2_2  and  C3_3 
REMARK    2  A    between atoms: C3_3  and  N1_4 
REMARK    3  A    between atoms: N1_4  and  C4_5 
REMARK       I    between atoms: N1_4  and  C6_7 
REMARK    4  A    between atoms: C6_7  and  C7_9 
REMARK    5  A    between atoms: C10_12  and  N2_13 
REMARK    6  A    between atoms: N2_13  and  C11_14 
REMARK    7  A    between atoms: N2_13  and  C13_17 
REMARK    8  A    between atoms: C11_14  and  C12_15 
REMARK    9  A    between atoms: C13_17  and  C14_18 
ROOT
HETATM    1  C7  UNL     1      24.796   0.324  53.524  1.00  0.00     0.032 A 
HETATM    2  C8  UNL     1      24.719   1.699  53.184  1.00  0.00     0.019 A 
HETATM    3  C9  UNL     1      23.574   2.261  52.596  1.00  0.00     0.030 A 
HETATM    4  C10 UNL     1      22.500   1.463  52.342  1.00  0.00     0.030 A 
HETATM    5  C15 UNL     1      22.405   0.051  52.623  1.00  0.00     0.030 A 
HETATM    6  C16 UNL     1      23.634  -0.209  53.177  1.00  0.00     0.019 A 
ENDROOT
BRANCH   1   7
HETATM    7  C6  UNL     1      26.080   0.043  54.089  1.00  0.00     0.253 C 
HETATM    8  N1  UNL     1      27.395   0.499  53.805  1.00  0.00    -0.348 N 
HETATM    9  O1  UNL     1      26.267  -0.736  55.025  1.00  0.00    -0.267 OA
BRANCH   8  10
HETATM   10  C3  UNL     1      28.431  -0.072  54.637  1.00  0.00     0.125 C 
BRANCH  10  11
HETATM   11  C2  UNL     1      29.554  -0.716  53.887  1.00  0.00     0.015 C 
HETATM   12  C1  UNL     1      29.272  -2.067  53.308  1.00  0.00     0.006 C 
ENDBRANCH  10  11
ENDBRANCH   8  10
BRANCH   8  13
HETATM   13  C4  UNL     1      27.944   1.446  52.868  1.00  0.00     0.121 C 
HETATM   14  C5  UNL     1      28.622   2.605  53.563  1.00  0.00     0.026 C 
ENDBRANCH   8  13
ENDBRANCH   1   7
BRANCH   4  15
HETATM   15  N2  UNL     1      21.265   1.934  51.723  1.00  0.00    -0.379 N 
BRANCH  15  16
HETATM   16  C11 UNL     1      20.871   1.914  50.363  1.00  0.00     0.138 C 
BRANCH  16  17
HETATM   17  C12 UNL     1      21.620   2.707  49.370  1.00  0.00     0.134 C 
HETATM   18 CL1  UNL     1      22.316   1.757  48.040  1.00  0.00    -0.129 Cl
ENDBRANCH  16  17
ENDBRANCH  15  16
BRANCH  15  19
HETATM   19  C13 UNL     1      20.121   2.521  52.332  1.00  0.00     0.138 C 
BRANCH  19  20
HETATM   20  C14 UNL     1      18.806   2.301  51.657  1.00  0.00     0.134 C 
HETATM   21 CL2  UNL     1      18.022   3.914  51.499  1.00  0.00    -0.129 Cl
ENDBRANCH  19  20
ENDBRANCH  15  19
ENDBRANCH   4  15
TORSDOF 9
ENDMDL
MODEL 5
REMARK VINA RESULT:      -6.0      4.106      5.273
REMARK  9 active torsions:
REMARK  status: ('A' for Active; 'I' for Inactive)
REMARK    1  A    between atoms: C2_2  and  C3_3 
REMARK    2  A    between atoms: C3_3  and  N1_4 
REMARK    3  A    between atoms: N1_4  and  C4_5 
REMARK       I    between atoms: N1_4  and  C6_7 
REMARK    4  A    between atoms: C6_7  and  C7_9 
REMARK    5  A    between atoms: C10_12  and  N2_13 
REMARK    6  A    between atoms: N2_13  and  C11_14 
REMARK    7  A    between atoms: N2_13  and  C13_17 
REMARK    8  A    between atoms: C11_14  and  C12_15 
REMARK    9  A    between atoms: C13_17  and  C14_18 
ROOT
HETATM    1  C7  UNL     1      26.036   2.563  51.844  1.00  0.00     0.032 A 
HETATM    2  C8  UNL     1      26.474   2.862  50.528  1.00  0.00     0.019 A 
HETATM    3  C9  UNL     1      25.595   3.320  49.533  1.00  0.00     0.030 A 
HETATM    4  C10 UNL     1      24.277   3.483  49.837  1.00  0.00     0.030 A 
HETATM    5  C15 UNL     1      23.663   3.230  51.118  1.00  0.00     0.030 A 
HETATM    6  C16 UNL     1      24.735   2.807  51.865  1.00  0.00     0.019 A 
ENDROOT
BRANCH   1   7
HETATM    7  C6  UNL     1      27.145   2.108  52.624  1.00  0.00     0.253 C 
HETATM    8  N1  UNL     1      27.277   1.179  53.690  1.00  0.00    -0.348 N 
HETATM    9  O1  UNL     1      28.302   2.505  52.476  1.00  0.00    -0.267 OA
BRANCH   8  10
HETATM   10  C3  UNL     1      28.619   1.033  54.209  1.00  0.00     0.125 C 
BRANCH  10  11
HETATM   11  C2  UNL     1      29.054  -0.381  54.433  1.00  0.00     0.015 C 
HETATM   12  C1  UNL     1      29.787  -1.034  53.303  1.00  0.00     0.006 C 
ENDBRANCH  10  11
ENDBRANCH   8  10
BRANCH   8  13
HETATM   13  C4  UNL     1      26.357   0.304  54.374  1.00  0.00     0.121 C 
HETATM   14  C5  UNL     1      25.604  -0.588  53.415  1.00  0.00     0.026 C 
ENDBRANCH   8  13
ENDBRANCH   1   7
BRANCH   4  15
HETATM   15  N2  UNL     1      23.273   3.939  48.882  1.00  0.00    -0.379 N 
BRANCH  15  16
HETATM   16  C11 UNL     1      23.223   5.135  48.125  1.00  0.00     0.138 C 
BRANCH  16  17
HETATM   17  C12 UNL     1      23.709   6.397  48.712  1.00  0.00     0.134 C 
HETATM   18 CL1  UNL     1      25.397   6.791  48.321  1.00  0.00    -0.129 Cl
ENDBRANCH  16  17
ENDBRANCH  15  16
BRANCH  15  19
HETATM   19  C13 UNL     1      22.085   3.288  48.446  1.00  0.00     0.138 C 
BRANCH  19  20
HETATM   20  C14 UNL     1      22.219   1.877  47.976  1.00  0.00     0.134 C 
HETATM   21 CL2  UNL     1      21.508   0.828  49.254  1.00  0.00    -0.129 Cl
ENDBRANCH  19  20
ENDBRANCH  15  19
ENDBRANCH   4  15
TORSDOF 9
ENDMDL
MODEL 6
REMARK VINA RESULT:      -5.9      4.110      5.759
REMARK  9 active torsions:
REMARK  status: ('A' for Active; 'I' for Inactive)
REMARK    1  A    between atoms: C2_2  and  C3_3 
REMARK    2  A    between atoms: C3_3  and  N1_4 
REMARK    3  A    between atoms: N1_4  and  C4_5 
REMARK       I    between atoms: N1_4  and  C6_7 
REMARK    4  A    between atoms: C6_7  and  C7_9 
REMARK    5  A    between atoms: C10_12  and  N2_13 
REMARK    6  A    between atoms: N2_13  and  C11_14 
REMARK    7  A    between atoms: N2_13  and  C13_17 
REMARK    8  A    between atoms: C11_14  and  C12_15 
REMARK    9  A    between atoms: C13_17  and  C14_18 
ROOT
HETATM    1  C7  UNL     1      26.056   2.542  51.877  1.00  0.00     0.032 A 
HETATM    2  C8  UNL     1      26.505   2.794  50.555  1.00  0.00     0.019 A 
HETATM    3  C9  UNL     1      25.642   3.257  49.547  1.00  0.00     0.030 A 
HETATM    4  C10 UNL     1      24.330   3.472  49.845  1.00  0.00     0.030 A 
HETATM    5  C15 UNL     1      23.707   3.272  51.131  1.00  0.00     0.030 A 
HETATM    6  C16 UNL     1      24.764   2.831  51.890  1.00  0.00     0.019 A 
ENDROOT
BRANCH   1   7
HETATM    7  C6  UNL     1      27.149   2.070  52.669  1.00  0.00     0.253 C 
HETATM    8  N1  UNL     1      27.260   1.107  53.708  1.00  0.00    -0.348 N 
HETATM    9  O1  UNL     1      28.306   2.479  52.564  1.00  0.00    -0.267 OA
BRANCH   8  10
HETATM   10  C3  UNL     1      28.590   0.953  54.256  1.00  0.00     0.125 C 
BRANCH  10  11
HETATM   11  C2  UNL     1      29.037  -0.464  54.427  1.00  0.00     0.015 C 
HETATM   12  C1  UNL     1      29.758  -1.074  53.266  1.00  0.00     0.006 C 
ENDBRANCH  10  11
ENDBRANCH   8  10
BRANCH   8  13
HETATM   13  C4  UNL     1      26.331   0.204  54.339  1.00  0.00     0.121 C 
HETATM   14  C5  UNL     1      25.610  -0.663  53.334  1.00  0.00     0.026 C 
ENDBRANCH   8  13
ENDBRANCH   1   7
BRANCH   4  15
HETATM   15  N2  UNL     1      23.343   3.938  48.878  1.00  0.00    -0.379 N 
BRANCH  15  16
HETATM   16  C11 UNL     1      22.190   3.285  48.377  1.00  0.00     0.138 C 
BRANCH  16  17
HETATM   17  C12 UNL     1      22.241   1.845  48.060  1.00  0.00     0.134 C 
HETATM   18 CL1  UNL     1      21.501   0.793  49.285  1.00  0.00    -0.129 Cl
ENDBRANCH  16  17
ENDBRANCH  15  16
BRANCH  15  19
HETATM   19  C13 UNL     1      23.270   5.185  48.196  1.00  0.00     0.138 C 
BRANCH  19  20
HETATM   20  C14 UNL     1      23.479   6.418  49.014  1.00  0.00     0.134 C 
HETATM   21 CL2  UNL     1      25.222   6.845  48.882  1.00  0.00    -0.129 Cl
ENDBRANCH  19  20
ENDBRANCH  15  19
ENDBRANCH   4  15
TORSDOF 9
ENDMDL
MODEL 7
REMARK VINA RESULT:      -5.9      2.905      4.474
REMARK  9 active torsions:
REMARK  status: ('A' for Active; 'I' for Inactive)
REMARK    1  A    between atoms: C2_2  and  C3_3 
REMARK    2  A    between atoms: C3_3  and  N1_4 
REMARK    3  A    between atoms: N1_4  and  C4_5 
REMARK       I    between atoms: N1_4  and  C6_7 
REMARK    4  A    between atoms: C6_7  and  C7_9 
REMARK    5  A    between atoms: C10_12  and  N2_13 
REMARK    6  A    between atoms: N2_13  and  C11_14 
REMARK    7  A    between atoms: N2_13  and  C13_17 
REMARK    8  A    between atoms: C11_14  and  C12_15 
REMARK    9  A    between atoms: C13_17  and  C14_18 
ROOT
HETATM    1  C7  UNL     1      25.301   2.217  52.128  1.00  0.00     0.032 A 
HETATM    2  C8  UNL     1      24.644   3.102  53.022  1.00  0.00     0.019 A 
HETATM    3  C9  UNL     1      23.349   3.587  52.778  1.00  0.00     0.030 A 
HETATM    4  C10 UNL     1      22.698   3.197  51.646  1.00  0.00     0.030 A 
HETATM    5  C15 UNL     1      23.211   2.306  50.635  1.00  0.00     0.030 A 
HETATM    6  C16 UNL     1      24.456   2.005  51.131  1.00  0.00     0.019 A 
ENDROOT
BRANCH   1   7
HETATM    7  C6  UNL     1      26.604   1.910  52.632  1.00  0.00     0.253 C 
HETATM    8  N1  UNL     1      27.072   1.129  53.722  1.00  0.00    -0.348 N 
HETATM    9  O1  UNL     1      27.651   2.331  52.140  1.00  0.00    -0.267 OA
BRANCH   8  10
HETATM   10  C3  UNL     1      28.510   1.104  53.880  1.00  0.00     0.125 C 
BRANCH  10  11
HETATM   11  C2  UNL     1      29.060  -0.185  54.403  1.00  0.00     0.015 C 
HETATM   12  C1  UNL     1      29.588  -1.141  53.381  1.00  0.00     0.006 C 
ENDBRANCH  10  11
ENDBRANCH   8  10
BRANCH   8  13
HETATM   13  C4  UNL     1      26.426   0.312  54.718  1.00  0.00     0.121 C 
HETATM   14  C5  UNL     1      25.444  -0.660  54.105  1.00  0.00     0.026 C 
ENDBRANCH   8  13
ENDBRANCH   1   7
BRANCH   4  15
HETATM   15  N2  UNL     1      21.358   3.647  51.283  1.00  0.00    -0.379 N 
BRANCH  15  16
HETATM   16  C11 UNL     1      20.153   2.909  51.184  1.00  0.00     0.138 C 
BRANCH  16  17
HETATM   17  C12 UNL     1      19.840   1.875  52.187  1.00  0.00     0.134 C 
HETATM   18 CL1  UNL     1      20.273   0.221  51.703  1.00  0.00    -0.129 Cl
ENDBRANCH  16  17
ENDBRANCH  15  16
BRANCH  15  19
HETATM   19  C13 UNL     1      20.907   4.955  50.952  1.00  0.00     0.138 C 
BRANCH  19  20
HETATM   20  C14 UNL     1      21.712   5.715  49.948  1.00  0.00     0.134 C 
HETATM   21 CL2  UNL     1      22.831   6.779  50.872  1.00  0.00    -0.129 Cl
ENDBRANCH  19  20
ENDBRANCH  15  19
ENDBRANCH   4  15
TORSDOF 9
ENDMDL
MODEL 8
REMARK VINA RESULT:      -5.6      6.190      9.486
REMARK  9 active torsions:
REMARK  status: ('A' for Active; 'I' for Inactive)
REMARK    1  A    between atoms: C2_2  and  C3_3 
REMARK    2  A    between atoms: C3_3  and  N1_4 
REMARK    3  A    between atoms: N1_4  and  C4_5 
REMARK       I    between atoms: N1_4  and  C6_7 
REMARK    4  A    between atoms: C6_7  and  C7_9 
REMARK    5  A    between atoms: C10_12  and  N2_13 
REMARK    6  A    between atoms: N2_13  and  C11_14 
REMARK    7  A    between atoms: N2_13  and  C13_17 
REMARK    8  A    between atoms: C11_14  and  C12_15 
REMARK    9  A    between atoms: C13_17  and  C14_18 
ROOT
HETATM    1  C7  UNL     1      25.590   4.067  49.516  1.00  0.00     0.032 A 
HETATM    2  C8  UNL     1      25.002   5.343  49.314  1.00  0.00     0.019 A 
HETATM    3  C9  UNL     1      25.731   6.430  48.805  1.00  0.00     0.030 A 
HETATM    4  C10 UNL     1      27.046   6.258  48.493  1.00  0.00     0.030 A 
HETATM    5  C15 UNL     1      27.800   5.036  48.631  1.00  0.00     0.030 A 
HETATM    6  C16 UNL     1      26.854   4.178  49.135  1.00  0.00     0.019 A 
ENDROOT
BRANCH   1   7
HETATM    7  C6  UNL     1      24.613   3.172  50.054  1.00  0.00     0.253 C 
HETATM    8  N1  UNL     1      24.593   2.309  51.183  1.00  0.00    -0.348 N 
HETATM    9  O1  UNL     1      23.501   2.984  49.559  1.00  0.00    -0.267 OA
BRANCH   8  10
HETATM   10  C3  UNL     1      23.371   1.552  51.349  1.00  0.00     0.125 C 
BRANCH  10  11
HETATM   11  C2  UNL     1      23.074   1.142  52.757  1.00  0.00     0.015 C 
HETATM   12  C1  UNL     1      22.632  -0.273  52.953  1.00  0.00     0.006 C 
ENDBRANCH  10  11
ENDBRANCH   8  10
BRANCH   8  13
HETATM   13  C4  UNL     1      25.526   2.030  52.245  1.00  0.00     0.121 C 
HETATM   14  C5  UNL     1      26.706   1.217  51.766  1.00  0.00     0.026 C 
ENDBRANCH   8  13
ENDBRANCH   1   7
BRANCH   4  15
HETATM   15  N2  UNL     1      27.903   7.318  47.971  1.00  0.00    -0.379 N 
BRANCH  15  16
HETATM   16  C11 UNL     1      29.085   7.876  48.516  1.00  0.00     0.138 C 
BRANCH  16  17
HETATM   17  C12 UNL     1      29.013   9.118  49.308  1.00  0.00     0.134 C 
HETATM   18 CL1  UNL     1      27.516   9.312  50.244  1.00  0.00    -0.129 Cl
ENDBRANCH  16  17
ENDBRANCH  15  16
BRANCH  15  19
HETATM   19  C13 UNL     1      27.784   8.056  46.761  1.00  0.00     0.138 C 
BRANCH  19  20
HETATM   20  C14 UNL     1      26.660   9.037  46.673  1.00  0.00     0.134 C 
HETATM   21 CL2  UNL     1      25.396   8.293  45.630  1.00  0.00    -0.129 Cl
ENDBRANCH  19  20
ENDBRANCH  15  19
ENDBRANCH   4  15
TORSDOF 9
ENDMDL
MODEL 9
REMARK VINA RESULT:      -5.6      6.262      7.927
REMARK  9 active torsions:
REMARK  status: ('A' for Active; 'I' for Inactive)
REMARK    1  A    between atoms: C2_2  and  C3_3 
REMARK    2  A    between atoms: C3_3  and  N1_4 
REMARK    3  A    between atoms: N1_4  and  C4_5 
REMARK       I    between atoms: N1_4  and  C6_7 
REMARK    4  A    between atoms: C6_7  and  C7_9 
REMARK    5  A    between atoms: C10_12  and  N2_13 
REMARK    6  A    between atoms: N2_13  and  C11_14 
REMARK    7  A    between atoms: N2_13  and  C13_17 
REMARK    8  A    between atoms: C11_14  and  C12_15 
REMARK    9  A    between atoms: C13_17  and  C14_18 
ROOT
HETATM    1  C7  UNL     1      27.186   5.536  48.636  1.00  0.00     0.032 A 
HETATM    2  C8  UNL     1      27.119   4.206  49.125  1.00  0.00     0.019 A 
HETATM    3  C9  UNL     1      25.924   3.646  49.607  1.00  0.00     0.030 A 
HETATM    4  C10 UNL     1      24.791   4.401  49.606  1.00  0.00     0.030 A 
HETATM    5  C15 UNL     1      24.678   5.763  49.145  1.00  0.00     0.030 A 
HETATM    6  C16 UNL     1      25.963   6.032  48.746  1.00  0.00     0.019 A 
ENDROOT
BRANCH   1   7
HETATM    7  C6  UNL     1      28.527   5.827  48.230  1.00  0.00     0.253 C 
HETATM    8  N1  UNL     1      29.200   7.023  47.864  1.00  0.00    -0.348 N 
HETATM    9  O1  UNL     1      29.414   4.980  48.119  1.00  0.00    -0.267 OA
BRANCH   8  10
HETATM   10  C3  UNL     1      30.590   6.853  47.501  1.00  0.00     0.125 C 
BRANCH  10  11
HETATM   11  C2  UNL     1      31.540   7.765  48.211  1.00  0.00     0.015 C 
HETATM   12  C1  UNL     1      31.837   7.427  49.638  1.00  0.00     0.006 C 
ENDBRANCH  10  11
ENDBRANCH   8  10
BRANCH   8  13
HETATM   13  C4  UNL     1      28.812   8.410  47.797  1.00  0.00     0.121 C 
HETATM   14  C5  UNL     1      28.316   8.926  49.128  1.00  0.00     0.026 C 
ENDBRANCH   8  13
ENDBRANCH   1   7
BRANCH   4  15
HETATM   15  N2  UNL     1      23.499   3.929  50.094  1.00  0.00    -0.379 N 
BRANCH  15  16
HETATM   16  C11 UNL     1      23.026   3.804  51.423  1.00  0.00     0.138 C 
BRANCH  16  17
HETATM   17  C12 UNL     1      22.729   2.470  51.975  1.00  0.00     0.134 C 
HETATM   18 CL1  UNL     1      24.047   1.291  51.807  1.00  0.00    -0.129 Cl
ENDBRANCH  16  17
ENDBRANCH  15  16
BRANCH  15  19
HETATM   19  C13 UNL     1      22.365   3.488  49.356  1.00  0.00     0.138 C 
BRANCH  19  20
HETATM   20  C14 UNL     1      22.606   2.472  48.287  1.00  0.00     0.134 C 
HETATM   21 CL2  UNL     1      21.563   1.055  48.666  1.00  0.00    -0.129 Cl
ENDBRANCH  19  20
ENDBRANCH  15  19
ENDBRANCH   4  15
TORSDOF 9
ENDMDL
