MODEL 1
REMARK VINA RESULT:      -8.1      0.000      0.000
REMARK  6 active torsions:
REMARK  status: ('A' for Active; 'I' for Inactive)
REMARK    1  A    between atoms: C1_2  and  N1_3 
REMARK    2  A    between atoms: N2_8  and  C5_9 
REMARK    3  A    between atoms: C5_9  and  C6_10 
REMARK    4  A    between atoms: C10_14  and  N3_15 
REMARK       I    between atoms: N3_15  and  C11_16 
REMARK    5  A    between atoms: C11_16  and  C12_18 
REMARK    6  A    between atoms: C12_18  and  C13_19 
ROOT
HETATM    1  C6  UNL     1      23.779  -0.236  53.742  1.00  0.00    -0.036 A 
HETATM    2  C7  UNL     1      22.522  -0.784  53.993  1.00  0.00     0.009 A 
HETATM    3  C8  UNL     1      21.446  -0.573  53.154  1.00  0.00     0.003 A 
HETATM    4  C9  UNL     1      21.646   0.209  52.039  1.00  0.00     0.029 A 
HETATM    5  C10 UNL     1      22.885   0.782  51.742  1.00  0.00     0.035 A 
HETATM    6  C19 UNL     1      23.929   0.543  52.610  1.00  0.00     0.038 A 
ENDROOT
BRANCH   5   7
HETATM    7  N3  UNL     1      23.016   1.589  50.557  1.00  0.00    -0.327 N 
HETATM    8  C11 UNL     1      23.026   2.990  50.800  1.00  0.00     0.226 C 
HETATM    9  O2  UNL     1      22.934   3.571  51.914  1.00  0.00    -0.273 OA
HETATM   10  H9  UNL     1      23.100   1.225  49.582  1.00  0.00     0.169 HD
BRANCH   8  11
HETATM   11  C12 UNL     1      23.159   3.880  49.624  1.00  0.00     0.141 C 
BRANCH  11  12
HETATM   12  C13 UNL     1      24.552   4.287  49.370  1.00  0.00    -0.050 A 
HETATM   13  C14 UNL     1      25.623   3.421  49.586  1.00  0.00     0.007 A 
HETATM   14  C15 UNL     1      26.921   3.836  49.338  1.00  0.00     0.001 A 
HETATM   15  C16 UNL     1      27.211   5.094  48.875  1.00  0.00     0.000 A 
HETATM   16  C17 UNL     1      26.125   5.924  48.673  1.00  0.00     0.001 A 
HETATM   17  C18 UNL     1      24.805   5.576  48.901  1.00  0.00     0.007 A 
ENDBRANCH  11  12
ENDBRANCH   8  11
ENDBRANCH   5   7
BRANCH   1  18
HETATM   18  C5  UNL     1      24.883  -0.500  54.678  1.00  0.00     0.190 C 
BRANCH  18  19
HETATM   19  N2  UNL     1      26.034  -1.134  54.066  1.00  0.00    -0.261 NA
HETATM   20  C4  UNL     1      27.138  -0.596  53.883  1.00  0.00     0.174 A 
HETATM   21  N1  UNL     1      28.416  -0.918  53.338  1.00  0.00    -0.278 N 
HETATM   22  S1  UNL     1      27.364   1.198  54.439  1.00  0.00    -0.062 SA
HETATM   23  C2  UNL     1      29.346  -0.005  53.346  1.00  0.00     0.108 A 
HETATM   24  C3  UNL     1      29.144   1.290  53.870  1.00  0.00     0.071 A 
BRANCH  21  25
HETATM   25  C1  UNL     1      28.560  -2.222  52.829  1.00  0.00     0.361 C 
HETATM   26  O1  UNL     1      28.766  -3.221  53.543  1.00  0.00    -0.283 OA
ENDBRANCH  21  25
ENDBRANCH  18  19
ENDBRANCH   1  18
TORSDOF 6
ENDMDL
MODEL 2
REMARK VINA RESULT:      -8.1      1.551      2.080
REMARK  6 active torsions:
REMARK  status: ('A' for Active; 'I' for Inactive)
REMARK    1  A    between atoms: C1_2  and  N1_3 
REMARK    2  A    between atoms: N2_8  and  C5_9 
REMARK    3  A    between atoms: C5_9  and  C6_10 
REMARK    4  A    between atoms: C10_14  and  N3_15 
REMARK       I    between atoms: N3_15  and  C11_16 
REMARK    5  A    between atoms: C11_16  and  C12_18 
REMARK    6  A    between atoms: C12_18  and  C13_19 
ROOT
HETATM    1  C6  UNL     1      24.152  -0.020  53.445  1.00  0.00    -0.036 A 
HETATM    2  C7  UNL     1      22.867  -0.362  53.866  1.00  0.00     0.009 A 
HETATM    3  C8  UNL     1      21.736   0.084  53.212  1.00  0.00     0.003 A 
HETATM    4  C9  UNL     1      21.907   0.893  52.111  1.00  0.00     0.029 A 
HETATM    5  C10 UNL     1      23.172   1.265  51.649  1.00  0.00     0.035 A 
HETATM    6  C19 UNL     1      24.271   0.795  52.334  1.00  0.00     0.038 A 
ENDROOT
BRANCH   5   7
HETATM    7  N3  UNL     1      23.271   2.114  50.491  1.00  0.00    -0.327 N 
HETATM    8  C11 UNL     1      23.484   3.488  50.788  1.00  0.00     0.226 C 
HETATM    9  O2  UNL     1      23.590   4.014  51.928  1.00  0.00    -0.273 OA
HETATM   10  H9  UNL     1      23.200   1.797  49.498  1.00  0.00     0.169 HD
BRANCH   8  11
HETATM   11  C12 UNL     1      23.596   4.419  49.641  1.00  0.00     0.141 C 
BRANCH  11  12
HETATM   12  C13 UNL     1      24.993   4.730  49.292  1.00  0.00    -0.050 A 
HETATM   13  C14 UNL     1      25.372   5.987  48.822  1.00  0.00     0.007 A 
HETATM   14  C15 UNL     1      26.695   6.246  48.503  1.00  0.00     0.001 A 
HETATM   15  C16 UNL     1      27.678   5.298  48.632  1.00  0.00     0.000 A 
HETATM   16  C17 UNL     1      27.264   4.065  49.100  1.00  0.00     0.001 A 
HETATM   17  C18 UNL     1      25.963   3.738  49.436  1.00  0.00     0.007 A 
ENDBRANCH  11  12
ENDBRANCH   8  11
ENDBRANCH   5   7
BRANCH   1  18
HETATM   18  C5  UNL     1      25.316  -0.529  54.186  1.00  0.00     0.190 C 
BRANCH  18  19
HETATM   19  N2  UNL     1      26.467   0.349  54.150  1.00  0.00    -0.261 NA
HETATM   20  C4  UNL     1      27.620   0.010  53.839  1.00  0.00     0.174 A 
HETATM   21  N1  UNL     1      28.917   0.591  53.707  1.00  0.00    -0.278 N 
HETATM   22  S1  UNL     1      27.927  -1.797  53.371  1.00  0.00    -0.062 SA
HETATM   23  C2  UNL     1      29.907  -0.169  53.335  1.00  0.00     0.108 A 
HETATM   24  C3  UNL     1      29.754  -1.545  53.057  1.00  0.00     0.071 A 
BRANCH  21  25
HETATM   25  C1  UNL     1      29.009   1.965  53.998  1.00  0.00     0.361 C 
HETATM   26  O1  UNL     1      29.448   2.414  55.072  1.00  0.00    -0.283 OA
ENDBRANCH  21  25
ENDBRANCH  18  19
ENDBRANCH   1  18
TORSDOF 6
ENDMDL
MODEL 3
REMARK VINA RESULT:      -8.0      4.732      7.278
REMARK  6 active torsions:
REMARK  status: ('A' for Active; 'I' for Inactive)
REMARK    1  A    between atoms: C1_2  and  N1_3 
REMARK    2  A    between atoms: N2_8  and  C5_9 
REMARK    3  A    between atoms: C5_9  and  C6_10 
REMARK    4  A    between atoms: C10_14  and  N3_15 
REMARK       I    between atoms: N3_15  and  C11_16 
REMARK    5  A    between atoms: C11_16  and  C12_18 
REMARK    6  A    between atoms: C12_18  and  C13_19 
ROOT
HETATM    1  C6  UNL     1      26.671   4.634  49.283  1.00  0.00    -0.036 A 
HETATM    2  C7  UNL     1      25.834   5.709  49.580  1.00  0.00     0.009 A 
HETATM    3  C8  UNL     1      26.131   7.001  49.195  1.00  0.00     0.003 A 
HETATM    4  C9  UNL     1      27.298   7.210  48.497  1.00  0.00     0.029 A 
HETATM    5  C10 UNL     1      28.171   6.168  48.174  1.00  0.00     0.035 A 
HETATM    6  C19 UNL     1      27.832   4.896  48.579  1.00  0.00     0.038 A 
ENDROOT
BRANCH   5   7
HETATM    7  N3  UNL     1      29.374   6.466  47.441  1.00  0.00    -0.327 N 
HETATM    8  C11 UNL     1      30.575   6.123  48.121  1.00  0.00     0.226 C 
HETATM    9  O2  UNL     1      30.682   5.604  49.263  1.00  0.00    -0.273 OA
HETATM   10  H9  UNL     1      29.414   6.896  46.489  1.00  0.00     0.169 HD
BRANCH   8  11
HETATM   11  C12 UNL     1      31.851   6.403  47.423  1.00  0.00     0.141 C 
BRANCH  11  12
HETATM   12  C13 UNL     1      32.766   5.248  47.423  1.00  0.00    -0.050 A 
HETATM   13  C14 UNL     1      32.456   4.064  46.757  1.00  0.00     0.007 A 
HETATM   14  C15 UNL     1      33.340   2.996  46.777  1.00  0.00     0.001 A 
HETATM   15  C16 UNL     1      34.540   3.052  47.440  1.00  0.00     0.000 A 
HETATM   16  C17 UNL     1      34.812   4.242  48.088  1.00  0.00     0.001 A 
HETATM   17  C18 UNL     1      33.977   5.345  48.110  1.00  0.00     0.007 A 
ENDBRANCH  11  12
ENDBRANCH   8  11
ENDBRANCH   5   7
BRANCH   1  18
HETATM   18  C5  UNL     1      26.296   3.281  49.722  1.00  0.00     0.190 C 
BRANCH  18  19
HETATM   19  N2  UNL     1      27.016   2.822  50.893  1.00  0.00    -0.261 NA
HETATM   20  C4  UNL     1      26.531   2.148  51.817  1.00  0.00     0.174 A 
HETATM   21  N1  UNL     1      26.939   1.561  53.051  1.00  0.00    -0.278 N 
HETATM   22  S1  UNL     1      24.704   1.671  51.713  1.00  0.00    -0.062 SA
HETATM   23  C2  UNL     1      26.059   0.901  53.749  1.00  0.00     0.108 A 
HETATM   24  C3  UNL     1      24.717   0.743  53.338  1.00  0.00     0.071 A 
BRANCH  21  25
HETATM   25  C1  UNL     1      28.286   1.752  53.410  1.00  0.00     0.361 C 
HETATM   26  O1  UNL     1      28.674   2.653  54.175  1.00  0.00    -0.283 OA
ENDBRANCH  21  25
ENDBRANCH  18  19
ENDBRANCH   1  18
TORSDOF 6
ENDMDL
MODEL 4
REMARK VINA RESULT:      -7.6      1.256      2.074
REMARK  6 active torsions:
REMARK  status: ('A' for Active; 'I' for Inactive)
REMARK    1  A    between atoms: C1_2  and  N1_3 
REMARK    2  A    between atoms: N2_8  and  C5_9 
REMARK    3  A    between atoms: C5_9  and  C6_10 
REMARK    4  A    between atoms: C10_14  and  N3_15 
REMARK       I    between atoms: N3_15  and  C11_16 
REMARK    5  A    between atoms: C11_16  and  C12_18 
REMARK    6  A    between atoms: C12_18  and  C13_19 
ROOT
HETATM    1  C6  UNL     1      23.685   1.200  52.227  1.00  0.00    -0.036 A 
HETATM    2  C7  UNL     1      22.494   0.522  51.969  1.00  0.00     0.009 A 
HETATM    3  C8  UNL     1      21.713   0.802  50.865  1.00  0.00     0.003 A 
HETATM    4  C9  UNL     1      22.144   1.786  50.006  1.00  0.00     0.029 A 
HETATM    5  C10 UNL     1      23.329   2.496  50.219  1.00  0.00     0.035 A 
HETATM    6  C19 UNL     1      24.075   2.182  51.334  1.00  0.00     0.038 A 
ENDROOT
BRANCH   5   7
HETATM    7  N3  UNL     1      23.714   3.513  49.276  1.00  0.00    -0.327 N 
HETATM    8  C11 UNL     1      23.939   4.793  49.853  1.00  0.00     0.226 C 
HETATM    9  O2  UNL     1      23.835   5.110  51.068  1.00  0.00    -0.273 OA
HETATM   10  H9  UNL     1      23.833   3.372  48.247  1.00  0.00     0.169 HD
BRANCH   8  11
HETATM   11  C12 UNL     1      24.338   5.887  48.938  1.00  0.00     0.141 C 
BRANCH  11  12
HETATM   12  C13 UNL     1      25.788   5.913  48.679  1.00  0.00    -0.050 A 
HETATM   13  C14 UNL     1      26.421   7.037  48.151  1.00  0.00     0.007 A 
HETATM   14  C15 UNL     1      27.788   7.029  47.919  1.00  0.00     0.001 A 
HETATM   15  C16 UNL     1      28.569   5.935  48.193  1.00  0.00     0.000 A 
HETATM   16  C17 UNL     1      27.907   4.840  48.715  1.00  0.00     0.001 A 
HETATM   17  C18 UNL     1      26.548   4.780  48.970  1.00  0.00     0.007 A 
ENDBRANCH  11  12
ENDBRANCH   8  11
ENDBRANCH   5   7
BRANCH   1  18
HETATM   18  C5  UNL     1      24.471   0.854  53.421  1.00  0.00     0.190 C 
BRANCH  18  19
HETATM   19  N2  UNL     1      25.466  -0.174  53.193  1.00  0.00    -0.261 NA
HETATM   20  C4  UNL     1      26.693  -0.027  53.318  1.00  0.00     0.174 A 
HETATM   21  N1  UNL     1      27.890  -0.791  53.179  1.00  0.00    -0.278 N 
HETATM   22  S1  UNL     1      27.342   1.669  53.847  1.00  0.00    -0.062 SA
HETATM   23  C2  UNL     1      29.031  -0.212  53.421  1.00  0.00     0.108 A 
HETATM   24  C3  UNL     1      29.136   1.140  53.815  1.00  0.00     0.071 A 
BRANCH  21  25
HETATM   25  C1  UNL     1      27.723  -2.131  52.783  1.00  0.00     0.361 C 
HETATM   26  O1  UNL     1      28.417  -3.068  53.218  1.00  0.00    -0.283 OA
ENDBRANCH  21  25
ENDBRANCH  18  19
ENDBRANCH   1  18
TORSDOF 6
ENDMDL
MODEL 5
REMARK VINA RESULT:      -7.4      1.922      5.384
REMARK  6 active torsions:
REMARK  status: ('A' for Active; 'I' for Inactive)
REMARK    1  A    between atoms: C1_2  and  N1_3 
REMARK    2  A    between atoms: N2_8  and  C5_9 
REMARK    3  A    between atoms: C5_9  and  C6_10 
REMARK    4  A    between atoms: C10_14  and  N3_15 
REMARK       I    between atoms: N3_15  and  C11_16 
REMARK    5  A    between atoms: C11_16  and  C12_18 
REMARK    6  A    between atoms: C12_18  and  C13_19 
ROOT
HETATM    1  C6  UNL     1      25.562   3.390  50.449  1.00  0.00    -0.036 A 
HETATM    2  C7  UNL     1      25.686   4.417  49.514  1.00  0.00     0.009 A 
HETATM    3  C8  UNL     1      24.593   4.961  48.870  1.00  0.00     0.003 A 
HETATM    4  C9  UNL     1      23.350   4.456  49.177  1.00  0.00     0.029 A 
HETATM    5  C10 UNL     1      23.171   3.428  50.105  1.00  0.00     0.035 A 
HETATM    6  C19 UNL     1      24.292   2.917  50.723  1.00  0.00     0.038 A 
ENDROOT
BRANCH   5   7
HETATM    7  N3  UNL     1      21.840   2.952  50.374  1.00  0.00    -0.327 N 
HETATM    8  C11 UNL     1      21.174   3.637  51.428  1.00  0.00     0.226 C 
HETATM    9  O2  UNL     1      21.623   4.586  52.123  1.00  0.00    -0.273 OA
HETATM   10  H9  UNL     1      21.360   2.174  49.868  1.00  0.00     0.169 HD
BRANCH   8  11
HETATM   11  C12 UNL     1      19.799   3.197  51.758  1.00  0.00     0.141 C 
BRANCH  11  12
HETATM   12  C13 UNL     1      19.753   1.833  52.311  1.00  0.00    -0.050 A 
HETATM   13  C14 UNL     1      18.855   0.877  51.837  1.00  0.00     0.007 A 
HETATM   14  C15 UNL     1      18.838  -0.399  52.379  1.00  0.00     0.001 A 
HETATM   15  C16 UNL     1      19.687  -0.776  53.388  1.00  0.00     0.000 A 
HETATM   16  C17 UNL     1      20.562   0.198  53.831  1.00  0.00     0.001 A 
HETATM   17  C18 UNL     1      20.633   1.488  53.337  1.00  0.00     0.007 A 
ENDBRANCH  11  12
ENDBRANCH   8  11
ENDBRANCH   5   7
BRANCH   1  18
HETATM   18  C5  UNL     1      26.768   2.854  51.099  1.00  0.00     0.190 C 
BRANCH  18  19
HETATM   19  N2  UNL     1      26.637   1.482  51.544  1.00  0.00    -0.261 NA
HETATM   20  C4  UNL     1      27.233   0.979  52.510  1.00  0.00     0.174 A 
HETATM   21  N1  UNL     1      27.329  -0.275  53.184  1.00  0.00    -0.278 N 
HETATM   22  S1  UNL     1      28.419   2.073  53.498  1.00  0.00    -0.062 SA
HETATM   23  C2  UNL     1      28.122  -0.371  54.213  1.00  0.00     0.108 A 
HETATM   24  C3  UNL     1      28.892   0.711  54.691  1.00  0.00     0.071 A 
BRANCH  21  25
HETATM   25  C1  UNL     1      26.540  -1.317  52.663  1.00  0.00     0.361 C 
HETATM   26  O1  UNL     1      26.982  -2.449  52.396  1.00  0.00    -0.283 OA
ENDBRANCH  21  25
ENDBRANCH  18  19
ENDBRANCH   1  18
TORSDOF 6
ENDMDL
MODEL 6
REMARK VINA RESULT:      -7.3      5.191      7.950
REMARK  6 active torsions:
REMARK  status: ('A' for Active; 'I' for Inactive)
REMARK    1  A    between atoms: C1_2  and  N1_3 
REMARK    2  A    between atoms: N2_8  and  C5_9 
REMARK    3  A    between atoms: C5_9  and  C6_10 
REMARK    4  A    between atoms: C10_14  and  N3_15 
REMARK       I    between atoms: N3_15  and  C11_16 
REMARK    5  A    between atoms: C11_16  and  C12_18 
REMARK    6  A    between atoms: C12_18  and  C13_19 
ROOT
HETATM    1  C6  UNL     1      26.950   5.026  49.069  1.00  0.00    -0.036 A 
HETATM    2  C7  UNL     1      26.553   6.360  48.979  1.00  0.00     0.009 A 
HETATM    3  C8  UNL     1      27.360   7.332  48.424  1.00  0.00     0.003 A 
HETATM    4  C9  UNL     1      28.595   6.950  47.953  1.00  0.00     0.029 A 
HETATM    5  C10 UNL     1      29.042   5.627  48.019  1.00  0.00     0.035 A 
HETATM    6  C19 UNL     1      28.200   4.691  48.581  1.00  0.00     0.038 A 
ENDROOT
BRANCH   5   7
HETATM    7  N3  UNL     1      30.346   5.303  47.505  1.00  0.00    -0.327 N 
HETATM    8  C11 UNL     1      31.382   5.321  48.479  1.00  0.00     0.226 C 
HETATM    9  O2  UNL     1      31.269   5.586  49.705  1.00  0.00    -0.273 OA
HETATM   10  H9  UNL     1      30.565   5.068  46.511  1.00  0.00     0.169 HD
BRANCH   8  11
HETATM   11  C12 UNL     1      32.751   4.997  48.017  1.00  0.00     0.141 C 
BRANCH  11  12
HETATM   12  C13 UNL     1      33.660   6.156  48.068  1.00  0.00    -0.050 A 
HETATM   13  C14 UNL     1      33.259   7.424  47.651  1.00  0.00     0.007 A 
HETATM   14  C15 UNL     1      34.140   8.493  47.712  1.00  0.00     0.001 A 
HETATM   15  C16 UNL     1      35.422   8.358  48.178  1.00  0.00     0.000 A 
HETATM   16  C17 UNL     1      35.783   7.087  48.583  1.00  0.00     0.001 A 
HETATM   17  C18 UNL     1      34.957   5.977  48.548  1.00  0.00     0.007 A 
ENDBRANCH  11  12
ENDBRANCH   8  11
ENDBRANCH   5   7
BRANCH   1  18
HETATM   18  C5  UNL     1      26.041   4.039  49.672  1.00  0.00     0.190 C 
BRANCH  18  19
HETATM   19  N2  UNL     1      26.626   3.292  50.767  1.00  0.00    -0.261 NA
HETATM   20  C4  UNL     1      26.016   2.501  51.504  1.00  0.00     0.174 A 
HETATM   21  N1  UNL     1      26.274   1.646  52.617  1.00  0.00    -0.278 N 
HETATM   22  S1  UNL     1      24.170   2.230  51.193  1.00  0.00    -0.062 SA
HETATM   23  C2  UNL     1      25.290   0.950  53.111  1.00  0.00     0.108 A 
HETATM   24  C3  UNL     1      23.978   1.005  52.594  1.00  0.00     0.071 A 
BRANCH  21  25
HETATM   25  C1  UNL     1      27.600   1.633  53.089  1.00  0.00     0.361 C 
HETATM   26  O1  UNL     1      27.968   2.216  54.125  1.00  0.00    -0.283 OA
ENDBRANCH  21  25
ENDBRANCH  18  19
ENDBRANCH   1  18
TORSDOF 6
ENDMDL
MODEL 7
REMARK VINA RESULT:      -7.3      4.634      8.040
REMARK  6 active torsions:
REMARK  status: ('A' for Active; 'I' for Inactive)
REMARK    1  A    between atoms: C1_2  and  N1_3 
REMARK    2  A    between atoms: N2_8  and  C5_9 
REMARK    3  A    between atoms: C5_9  and  C6_10 
REMARK    4  A    between atoms: C10_14  and  N3_15 
REMARK       I    between atoms: N3_15  and  C11_16 
REMARK    5  A    between atoms: C11_16  and  C12_18 
REMARK    6  A    between atoms: C12_18  and  C13_19 
ROOT
HETATM    1  C6  UNL     1      27.543   5.473  48.553  1.00  0.00    -0.036 A 
HETATM    2  C7  UNL     1      26.793   6.571  48.132  1.00  0.00     0.009 A 
HETATM    3  C8  UNL     1      25.435   6.666  48.360  1.00  0.00     0.003 A 
HETATM    4  C9  UNL     1      24.822   5.629  49.026  1.00  0.00     0.029 A 
HETATM    5  C10 UNL     1      25.527   4.507  49.469  1.00  0.00     0.035 A 
HETATM    6  C19 UNL     1      26.881   4.457  49.218  1.00  0.00     0.038 A 
ENDROOT
BRANCH   5   7
HETATM    7  N3  UNL     1      24.816   3.462  50.159  1.00  0.00    -0.327 N 
HETATM    8  C11 UNL     1      24.087   3.903  51.298  1.00  0.00     0.226 C 
HETATM    9  O2  UNL     1      24.008   5.078  51.743  1.00  0.00    -0.273 OA
HETATM   10  H9  UNL     1      24.805   2.454  49.887  1.00  0.00     0.169 HD
BRANCH   8  11
HETATM   11  C12 UNL     1      23.332   2.879  52.056  1.00  0.00     0.141 C 
BRANCH  11  12
HETATM   12  C13 UNL     1      24.209   1.902  52.724  1.00  0.00    -0.050 A 
HETATM   13  C14 UNL     1      25.354   2.294  53.418  1.00  0.00     0.007 A 
HETATM   14  C15 UNL     1      26.157   1.349  54.035  1.00  0.00     0.001 A 
HETATM   15  C16 UNL     1      25.871   0.009  53.997  1.00  0.00     0.000 A 
HETATM   16  C17 UNL     1      24.730  -0.342  53.301  1.00  0.00     0.001 A 
HETATM   17  C18 UNL     1      23.884   0.547  52.662  1.00  0.00     0.007 A 
ENDBRANCH  11  12
ENDBRANCH   8  11
ENDBRANCH   5   7
BRANCH   1  18
HETATM   18  C5  UNL     1      28.987   5.435  48.278  1.00  0.00     0.190 C 
BRANCH  18  19
HETATM   19  N2  UNL     1      29.646   6.719  48.411  1.00  0.00    -0.261 NA
HETATM   20  C4  UNL     1      30.872   6.892  48.500  1.00  0.00     0.174 A 
HETATM   21  N1  UNL     1      31.803   7.964  48.635  1.00  0.00    -0.278 N 
HETATM   22  S1  UNL     1      31.996   5.370  48.463  1.00  0.00    -0.062 SA
HETATM   23  C2  UNL     1      33.074   7.685  48.695  1.00  0.00     0.108 A 
HETATM   24  C3  UNL     1      33.571   6.365  48.633  1.00  0.00     0.071 A 
BRANCH  21  25
HETATM   25  C1  UNL     1      31.249   9.257  48.692  1.00  0.00     0.361 C 
HETATM   26  O1  UNL     1      30.752   9.749  49.722  1.00  0.00    -0.283 OA
ENDBRANCH  21  25
ENDBRANCH  18  19
ENDBRANCH   1  18
TORSDOF 6
ENDMDL
MODEL 8
REMARK VINA RESULT:      -7.2      3.999      7.996
REMARK  6 active torsions:
REMARK  status: ('A' for Active; 'I' for Inactive)
REMARK    1  A    between atoms: C1_2  and  N1_3 
REMARK    2  A    between atoms: N2_8  and  C5_9 
REMARK    3  A    between atoms: C5_9  and  C6_10 
REMARK    4  A    between atoms: C10_14  and  N3_15 
REMARK       I    between atoms: N3_15  and  C11_16 
REMARK    5  A    between atoms: C11_16  and  C12_18 
REMARK    6  A    between atoms: C12_18  and  C13_19 
ROOT
HETATM    1  C6  UNL     1      25.951   4.795  49.153  1.00  0.00    -0.036 A 
HETATM    2  C7  UNL     1      24.685   5.316  48.885  1.00  0.00     0.009 A 
HETATM    3  C8  UNL     1      23.530   4.717  49.347  1.00  0.00     0.003 A 
HETATM    4  C9  UNL     1      23.657   3.567  50.092  1.00  0.00     0.029 A 
HETATM    5  C10 UNL     1      24.901   3.003  50.388  1.00  0.00     0.035 A 
HETATM    6  C19 UNL     1      26.026   3.637  49.906  1.00  0.00     0.038 A 
ENDROOT
BRANCH   5   7
HETATM    7  N3  UNL     1      24.954   1.798  51.174  1.00  0.00    -0.327 N 
HETATM    8  C11 UNL     1      24.884   2.011  52.578  1.00  0.00     0.226 C 
HETATM    9  O2  UNL     1      24.785   3.115  53.177  1.00  0.00    -0.273 OA
HETATM   10  H9  UNL     1      25.035   0.829  50.793  1.00  0.00     0.169 HD
BRANCH   8  11
HETATM   11  C12 UNL     1      24.933   0.813  53.448  1.00  0.00     0.141 C 
BRANCH  11  12
HETATM   12  C13 UNL     1      26.240   0.133  53.408  1.00  0.00    -0.050 A 
HETATM   13  C14 UNL     1      26.401  -1.115  52.809  1.00  0.00     0.007 A 
HETATM   14  C15 UNL     1      27.644  -1.728  52.789  1.00  0.00     0.001 A 
HETATM   15  C16 UNL     1      28.755  -1.147  53.347  1.00  0.00     0.000 A 
HETATM   16  C17 UNL     1      28.555   0.089  53.932  1.00  0.00     0.001 A 
HETATM   17  C18 UNL     1      27.345   0.756  53.988  1.00  0.00     0.007 A 
ENDBRANCH  11  12
ENDBRANCH   8  11
ENDBRANCH   5   7
BRANCH   1  18
HETATM   18  C5  UNL     1      27.142   5.483  48.631  1.00  0.00     0.190 C 
BRANCH  18  19
HETATM   19  N2  UNL     1      27.211   6.887  48.983  1.00  0.00    -0.261 NA
HETATM   20  C4  UNL     1      28.176   7.636  48.761  1.00  0.00     0.174 A 
HETATM   21  N1  UNL     1      28.554   8.997  48.965  1.00  0.00    -0.278 N 
HETATM   22  S1  UNL     1      29.693   6.910  47.895  1.00  0.00    -0.062 SA
HETATM   23  C2  UNL     1      29.726   9.388  48.554  1.00  0.00     0.108 A 
HETATM   24  C3  UNL     1      30.642   8.523  47.916  1.00  0.00     0.071 A 
BRANCH  21  25
HETATM   25  C1  UNL     1      27.602   9.811  49.607  1.00  0.00     0.361 C 
HETATM   26  O1  UNL     1      27.230  10.914  49.166  1.00  0.00    -0.283 OA
ENDBRANCH  21  25
ENDBRANCH  18  19
ENDBRANCH   1  18
TORSDOF 6
ENDMDL
MODEL 9
REMARK VINA RESULT:      -7.2      4.468      7.711
REMARK  6 active torsions:
REMARK  status: ('A' for Active; 'I' for Inactive)
REMARK    1  A    between atoms: C1_2  and  N1_3 
REMARK    2  A    between atoms: N2_8  and  C5_9 
REMARK    3  A    between atoms: C5_9  and  C6_10 
REMARK    4  A    between atoms: C10_14  and  N3_15 
REMARK       I    between atoms: N3_15  and  C11_16 
REMARK    5  A    between atoms: C11_16  and  C12_18 
REMARK    6  A    between atoms: C12_18  and  C13_19 
ROOT
HETATM    1  C6  UNL     1      26.698   4.556  49.255  1.00  0.00    -0.036 A 
HETATM    2  C7  UNL     1      25.881   5.634  49.594  1.00  0.00     0.009 A 
HETATM    3  C8  UNL     1      26.201   6.934  49.256  1.00  0.00     0.003 A 
HETATM    4  C9  UNL     1      27.371   7.148  48.564  1.00  0.00     0.029 A 
HETATM    5  C10 UNL     1      28.225   6.103  48.202  1.00  0.00     0.035 A 
HETATM    6  C19 UNL     1      27.863   4.823  48.560  1.00  0.00     0.038 A 
ENDROOT
BRANCH   5   7
HETATM    7  N3  UNL     1      29.432   6.406  47.478  1.00  0.00    -0.327 N 
HETATM    8  C11 UNL     1      30.629   6.112  48.187  1.00  0.00     0.226 C 
HETATM    9  O2  UNL     1      30.730   5.630  49.346  1.00  0.00    -0.273 OA
HETATM   10  H9  UNL     1      29.477   6.807  46.515  1.00  0.00     0.169 HD
BRANCH   8  11
HETATM   11  C12 UNL     1      31.910   6.400  47.500  1.00  0.00     0.141 C 
BRANCH  11  12
HETATM   12  C13 UNL     1      32.799   5.226  47.435  1.00  0.00    -0.050 A 
HETATM   13  C14 UNL     1      32.446   4.075  46.732  1.00  0.00     0.007 A 
HETATM   14  C15 UNL     1      33.306   2.989  46.690  1.00  0.00     0.001 A 
HETATM   15  C16 UNL     1      34.521   2.993  47.326  1.00  0.00     0.000 A 
HETATM   16  C17 UNL     1      34.835   4.150  48.012  1.00  0.00     0.001 A 
HETATM   17  C18 UNL     1      34.026   5.270  48.096  1.00  0.00     0.007 A 
ENDBRANCH  11  12
ENDBRANCH   8  11
ENDBRANCH   5   7
BRANCH   1  18
HETATM   18  C5  UNL     1      26.299   3.194  49.645  1.00  0.00     0.190 C 
BRANCH  18  19
HETATM   19  N2  UNL     1      25.012   3.126  50.307  1.00  0.00    -0.261 NA
HETATM   20  C4  UNL     1      24.733   2.381  51.261  1.00  0.00     0.174 A 
HETATM   21  N1  UNL     1      23.623   2.077  52.103  1.00  0.00    -0.278 N 
HETATM   22  S1  UNL     1      26.081   1.229  51.921  1.00  0.00    -0.062 SA
HETATM   23  C2  UNL     1      23.772   1.177  53.033  1.00  0.00     0.108 A 
HETATM   24  C3  UNL     1      24.985   0.486  53.243  1.00  0.00     0.071 A 
BRANCH  21  25
HETATM   25  C1  UNL     1      22.440   2.795  51.846  1.00  0.00     0.361 C 
HETATM   26  O1  UNL     1      22.191   3.910  52.339  1.00  0.00    -0.283 OA
ENDBRANCH  21  25
ENDBRANCH  18  19
ENDBRANCH   1  18
TORSDOF 6
ENDMDL
