MODEL 1
REMARK VINA RESULT:      -9.7      0.000      0.000
REMARK  6 active torsions:
REMARK  status: ('A' for Active; 'I' for Inactive)
REMARK    1  A    between atoms: C4_5  and  C5_6 
REMARK    2  A    between atoms: C8_9  and  N2_10 
REMARK       I    between atoms: N2_10  and  C9_11 
REMARK    3  A    between atoms: C9_11  and  C10_13 
REMARK    4  A    between atoms: C14_17  and  O2_18 
REMARK    5  A    between atoms: O2_18  and  C15_19 
REMARK    6  A    between atoms: C15_19  and  N3_20 
ROOT
HETATM    1  N2  UNL     1      23.822   2.217  50.541  1.00  0.00    -0.326 N 
HETATM    2  C9  UNL     1      23.908   2.236  51.941  1.00  0.00     0.236 C 
HETATM    3  O1  UNL     1      24.633   2.927  52.734  1.00  0.00    -0.272 OA
HETATM    4  H11 UNL     1      23.097   1.498  50.323  1.00  0.00     0.169 HD
ENDROOT
BRANCH   2   5
HETATM    5  C10 UNL     1      23.273   1.543  53.091  1.00  0.00     0.157 A 
HETATM    6  C11 UNL     1      21.925   1.133  52.612  1.00  0.00    -0.006 A 
HETATM    7  C12 UNL     1      21.793  -0.186  52.631  1.00  0.00    -0.000 A 
HETATM    8  C13 UNL     1      23.043  -0.759  53.124  1.00  0.00     0.033 A 
HETATM    9  C14 UNL     1      23.892   0.223  53.388  1.00  0.00     0.065 A 
BRANCH   9  10
HETATM   10  O2  UNL     1      25.130  -0.210  53.869  1.00  0.00    -0.335 OA
BRANCH  10  11
HETATM   11  C15 UNL     1      26.083  -0.876  53.080  1.00  0.00     0.300 C 
BRANCH  11  12
HETATM   12  N3  UNL     1      27.390  -0.515  53.609  1.00  0.00    -0.358 N 
HETATM   13  C16 UNL     1      28.566  -1.225  53.244  1.00  0.00     0.105 C 
HETATM   14  C17 UNL     1      29.769  -0.676  53.306  1.00  0.00     0.108 C 
HETATM   15  N4  UNL     1      29.926   0.678  53.750  1.00  0.00    -0.334 N 
HETATM   16  C18 UNL     1      28.744   1.390  54.116  1.00  0.00     0.239 C 
HETATM   17  H20 UNL     1      30.850   1.157  53.817  1.00  0.00     0.168 HD
HETATM   18  O3  UNL     1      28.782   2.649  54.057  1.00  0.00    -0.271 OA
HETATM   19  C19 UNL     1      27.567   0.587  54.535  1.00  0.00     0.227 C 
ENDBRANCH  11  12
ENDBRANCH  10  11
ENDBRANCH   9  10
ENDBRANCH   2   5
BRANCH   1  20
HETATM   20  C8  UNL     1      24.739   3.164  50.010  1.00  0.00     0.034 A 
HETATM   21  C7  UNL     1      26.101   2.993  49.895  1.00  0.00     0.030 A 
HETATM   22  C6  UNL     1      26.868   4.011  49.356  1.00  0.00     0.010 A 
HETATM   23  C5  UNL     1      26.217   5.151  48.959  1.00  0.00    -0.054 A 
HETATM   24  C21 UNL     1      24.857   5.368  49.054  1.00  0.00     0.010 A 
HETATM   25  C20 UNL     1      24.126   4.344  49.592  1.00  0.00     0.030 A 
BRANCH  23  26
HETATM   26  C4  UNL     1      27.068   6.220  48.386  1.00  0.00     0.022 C 
HETATM   27  C3  UNL     1      28.521   5.800  48.288  1.00  0.00     0.039 C 
HETATM   28  C2  UNL     1      29.301   6.998  47.788  1.00  0.00     0.272 C 
HETATM   29  N1  UNL     1      28.423   8.021  47.296  1.00  0.00     0.084 N 
HETATM   30  C1  UNL     1      29.194   9.096  46.720  1.00  0.00     0.309 C 
HETATM   31  C23 UNL     1      27.621   8.596  48.370  1.00  0.00     0.272 C 
HETATM   32  C22 UNL     1      27.018   7.481  49.193  1.00  0.00     0.039 C 
ENDBRANCH  23  26
ENDBRANCH   1  20
TORSDOF 6
ENDMDL
MODEL 2
REMARK VINA RESULT:      -9.5      0.917      1.255
REMARK  6 active torsions:
REMARK  status: ('A' for Active; 'I' for Inactive)
REMARK    1  A    between atoms: C4_5  and  C5_6 
REMARK    2  A    between atoms: C8_9  and  N2_10 
REMARK       I    between atoms: N2_10  and  C9_11 
REMARK    3  A    between atoms: C9_11  and  C10_13 
REMARK    4  A    between atoms: C14_17  and  O2_18 
REMARK    5  A    between atoms: O2_18  and  C15_19 
REMARK    6  A    between atoms: C15_19  and  N3_20 
ROOT
HETATM    1  N2  UNL     1      23.943   2.231  50.489  1.00  0.00    -0.326 N 
HETATM    2  C9  UNL     1      23.966   2.304  51.890  1.00  0.00     0.236 C 
HETATM    3  O1  UNL     1      24.616   3.064  52.686  1.00  0.00    -0.272 OA
HETATM    4  H11 UNL     1      23.269   1.463  50.269  1.00  0.00     0.169 HD
ENDROOT
BRANCH   2   5
HETATM    5  C10 UNL     1      23.323   1.615  53.038  1.00  0.00     0.157 A 
HETATM    6  C11 UNL     1      21.884   1.499  52.674  1.00  0.00    -0.006 A 
HETATM    7  C12 UNL     1      21.515   0.227  52.594  1.00  0.00    -0.000 A 
HETATM    8  C13 UNL     1      22.679  -0.602  52.898  1.00  0.00     0.033 A 
HETATM    9  C14 UNL     1      23.713   0.185  53.152  1.00  0.00     0.065 A 
BRANCH   9  10
HETATM   10  O2  UNL     1      24.890  -0.504  53.457  1.00  0.00    -0.335 OA
BRANCH  10  11
HETATM   11  C15 UNL     1      25.778  -0.117  54.476  1.00  0.00     0.300 C 
BRANCH  11  12
HETATM   12  N3  UNL     1      27.007   0.303  53.820  1.00  0.00    -0.358 N 
HETATM   13  C16 UNL     1      27.399   1.668  53.772  1.00  0.00     0.105 C 
HETATM   14  C17 UNL     1      28.663   2.035  53.627  1.00  0.00     0.108 C 
HETATM   15  N4  UNL     1      29.695   1.047  53.513  1.00  0.00    -0.334 N 
HETATM   16  C18 UNL     1      29.301  -0.324  53.562  1.00  0.00     0.239 C 
HETATM   17  H20 UNL     1      30.706   1.282  53.398  1.00  0.00     0.168 HD
HETATM   18  O3  UNL     1      30.166  -1.166  53.925  1.00  0.00    -0.271 OA
HETATM   19  C19 UNL     1      27.902  -0.644  53.182  1.00  0.00     0.227 C 
ENDBRANCH  11  12
ENDBRANCH  10  11
ENDBRANCH   9  10
ENDBRANCH   2   5
BRANCH   1  20
HETATM   20  C8  UNL     1      24.827   3.210  49.962  1.00  0.00     0.034 A 
HETATM   21  C7  UNL     1      26.194   3.085  49.844  1.00  0.00     0.030 A 
HETATM   22  C6  UNL     1      26.925   4.132  49.308  1.00  0.00     0.010 A 
HETATM   23  C5  UNL     1      26.235   5.251  48.918  1.00  0.00    -0.054 A 
HETATM   24  C21 UNL     1      24.869   5.422  49.016  1.00  0.00     0.010 A 
HETATM   25  C20 UNL     1      24.173   4.371  49.550  1.00  0.00     0.030 A 
BRANCH  23  26
HETATM   26  C4  UNL     1      27.049   6.350  48.349  1.00  0.00     0.022 C 
HETATM   27  C3  UNL     1      28.511   5.972  48.225  1.00  0.00     0.039 C 
HETATM   28  C2  UNL     1      29.251   7.197  47.732  1.00  0.00     0.272 C 
HETATM   29  N1  UNL     1      28.340   8.203  47.266  1.00  0.00     0.084 N 
HETATM   30  C1  UNL     1      29.073   9.306  46.695  1.00  0.00     0.309 C 
HETATM   31  C23 UNL     1      27.537   8.741  48.359  1.00  0.00     0.272 C 
HETATM   32  C22 UNL     1      26.975   7.599  49.174  1.00  0.00     0.039 C 
ENDBRANCH  23  26
ENDBRANCH   1  20
TORSDOF 6
ENDMDL
MODEL 3
REMARK VINA RESULT:      -9.0      1.425      2.101
REMARK  6 active torsions:
REMARK  status: ('A' for Active; 'I' for Inactive)
REMARK    1  A    between atoms: C4_5  and  C5_6 
REMARK    2  A    between atoms: C8_9  and  N2_10 
REMARK       I    between atoms: N2_10  and  C9_11 
REMARK    3  A    between atoms: C9_11  and  C10_13 
REMARK    4  A    between atoms: C14_17  and  O2_18 
REMARK    5  A    between atoms: O2_18  and  C15_19 
REMARK    6  A    between atoms: C15_19  and  N3_20 
ROOT
HETATM    1  N2  UNL     1      23.422   3.017  49.760  1.00  0.00    -0.326 N 
HETATM    2  C9  UNL     1      23.190   3.060  51.143  1.00  0.00     0.236 C 
HETATM    3  O1  UNL     1      23.738   3.748  52.070  1.00  0.00    -0.272 OA
HETATM    4  H11 UNL     1      22.744   2.312  49.394  1.00  0.00     0.169 HD
ENDROOT
BRANCH   2   5
HETATM    5  C10 UNL     1      22.295   2.404  52.129  1.00  0.00     0.157 A 
HETATM    6  C11 UNL     1      21.132   1.910  51.342  1.00  0.00    -0.006 A 
HETATM    7  C12 UNL     1      21.038   0.589  51.411  1.00  0.00    -0.000 A 
HETATM    8  C13 UNL     1      22.129   0.100  52.250  1.00  0.00     0.033 A 
HETATM    9  C14 UNL     1      22.850   1.132  52.663  1.00  0.00     0.065 A 
BRANCH   9  10
HETATM   10  O2  UNL     1      23.929   0.781  53.479  1.00  0.00    -0.335 OA
BRANCH  10  11
HETATM   11  C15 UNL     1      24.697  -0.382  53.297  1.00  0.00     0.300 C 
BRANCH  11  12
HETATM   12  N3  UNL     1      26.042   0.056  52.955  1.00  0.00    -0.358 N 
HETATM   13  C16 UNL     1      26.327   1.410  52.631  1.00  0.00     0.105 C 
HETATM   14  C17 UNL     1      27.536   1.931  52.779  1.00  0.00     0.108 C 
HETATM   15  N4  UNL     1      28.614   1.130  53.280  1.00  0.00    -0.334 N 
HETATM   16  C18 UNL     1      28.326  -0.229  53.605  1.00  0.00     0.239 C 
HETATM   17  H20 UNL     1      29.584   1.491  53.415  1.00  0.00     0.168 HD
HETATM   18  O3  UNL     1      29.075  -0.798  54.444  1.00  0.00    -0.271 OA
HETATM   19  C19 UNL     1      27.166  -0.861  52.926  1.00  0.00     0.227 C 
ENDBRANCH  11  12
ENDBRANCH  10  11
ENDBRANCH   9  10
ENDBRANCH   2   5
BRANCH   1  20
HETATM   20  C8  UNL     1      24.460   3.931  49.438  1.00  0.00     0.034 A 
HETATM   21  C7  UNL     1      24.292   5.244  49.056  1.00  0.00     0.030 A 
HETATM   22  C6  UNL     1      25.407   6.014  48.773  1.00  0.00     0.010 A 
HETATM   23  C5  UNL     1      26.636   5.416  48.890  1.00  0.00    -0.054 A 
HETATM   24  C21 UNL     1      26.854   4.107  49.268  1.00  0.00     0.010 A 
HETATM   25  C20 UNL     1      25.733   3.370  49.541  1.00  0.00     0.030 A 
BRANCH  23  26
HETATM   26  C4  UNL     1      27.806   6.270  48.579  1.00  0.00     0.022 C 
HETATM   27  C3  UNL     1      27.506   7.270  47.481  1.00  0.00     0.039 C 
HETATM   28  C2  UNL     1      28.794   8.010  47.184  1.00  0.00     0.272 C 
HETATM   29  N1  UNL     1      29.782   7.759  48.194  1.00  0.00     0.084 N 
HETATM   30  C1  UNL     1      30.952   8.566  47.949  1.00  0.00     0.309 C 
HETATM   31  C23 UNL     1      30.212   6.366  48.184  1.00  0.00     0.272 C 
HETATM   32  C22 UNL     1      28.995   5.469  48.146  1.00  0.00     0.039 C 
ENDBRANCH  23  26
ENDBRANCH   1  20
TORSDOF 6
ENDMDL
MODEL 4
REMARK VINA RESULT:      -8.4      4.079      7.733
REMARK  6 active torsions:
REMARK  status: ('A' for Active; 'I' for Inactive)
REMARK    1  A    between atoms: C4_5  and  C5_6 
REMARK    2  A    between atoms: C8_9  and  N2_10 
REMARK       I    between atoms: N2_10  and  C9_11 
REMARK    3  A    between atoms: C9_11  and  C10_13 
REMARK    4  A    between atoms: C14_17  and  O2_18 
REMARK    5  A    between atoms: O2_18  and  C15_19 
REMARK    6  A    between atoms: C15_19  and  N3_20 
ROOT
HETATM    1  N2  UNL     1      20.704   1.103  52.723  1.00  0.00    -0.326 N 
HETATM    2  C9  UNL     1      20.304   0.741  51.428  1.00  0.00     0.236 C 
HETATM    3  O1  UNL     1      20.976   0.341  50.417  1.00  0.00    -0.272 OA
HETATM    4  H11 UNL     1      19.821   1.364  53.216  1.00  0.00     0.169 HD
ENDROOT
BRANCH   2   5
HETATM    5  C10 UNL     1      19.041   0.646  50.653  1.00  0.00     0.157 A 
HETATM    6  C11 UNL     1      18.148  -0.233  51.456  1.00  0.00    -0.006 A 
HETATM    7  C12 UNL     1      17.057   0.418  51.838  1.00  0.00    -0.000 A 
HETATM    8  C13 UNL     1      17.138   1.781  51.319  1.00  0.00     0.033 A 
HETATM    9  C14 UNL     1      18.268   1.917  50.641  1.00  0.00     0.065 A 
BRANCH   9  10
HETATM   10  O2  UNL     1      18.454   3.190  50.096  1.00  0.00    -0.335 OA
BRANCH  10  11
HETATM   11  C15 UNL     1      19.365   3.470  49.063  1.00  0.00     0.300 C 
BRANCH  11  12
HETATM   12  N3  UNL     1      20.617   3.847  49.702  1.00  0.00    -0.358 N 
HETATM   13  C16 UNL     1      21.876   3.468  49.161  1.00  0.00     0.105 C 
HETATM   14  C17 UNL     1      22.985   4.148  49.410  1.00  0.00     0.108 C 
HETATM   15  N4  UNL     1      22.948   5.311  50.248  1.00  0.00    -0.334 N 
HETATM   16  C18 UNL     1      21.684   5.690  50.790  1.00  0.00     0.239 C 
HETATM   17  H20 UNL     1      23.791   5.882  50.475  1.00  0.00     0.168 HD
HETATM   18  O3  UNL     1      21.530   6.898  51.118  1.00  0.00    -0.271 OA
HETATM   19  C19 UNL     1      20.653   4.629  50.923  1.00  0.00     0.227 C 
ENDBRANCH  11  12
ENDBRANCH  10  11
ENDBRANCH   9  10
ENDBRANCH   2   5
BRANCH   1  20
HETATM   20  C8  UNL     1      22.114   0.968  52.825  1.00  0.00     0.034 A 
HETATM   21  C7  UNL     1      23.046   1.911  52.448  1.00  0.00     0.030 A 
HETATM   22  C6  UNL     1      24.393   1.633  52.608  1.00  0.00     0.010 A 
HETATM   23  C5  UNL     1      24.728   0.415  53.143  1.00  0.00    -0.054 A 
HETATM   24  C21 UNL     1      23.832  -0.559  53.535  1.00  0.00     0.010 A 
HETATM   25  C20 UNL     1      22.508  -0.256  53.363  1.00  0.00     0.030 A 
BRANCH  23  26
HETATM   26  C4  UNL     1      26.177   0.152  53.300  1.00  0.00     0.022 C 
HETATM   27  C3  UNL     1      26.587  -1.170  52.683  1.00  0.00     0.039 C 
HETATM   28  C2  UNL     1      28.056  -1.373  52.993  1.00  0.00     0.272 C 
HETATM   29  N1  UNL     1      28.653  -0.167  53.491  1.00  0.00     0.084 N 
HETATM   30  C1  UNL     1      30.073  -0.357  53.665  1.00  0.00     0.309 C 
HETATM   31  C23 UNL     1      28.107   0.199  54.793  1.00  0.00     0.272 C 
HETATM   32  C22 UNL     1      26.598   0.127  54.738  1.00  0.00     0.039 C 
ENDBRANCH  23  26
ENDBRANCH   1  20
TORSDOF 6
ENDMDL
MODEL 5
REMARK VINA RESULT:      -8.4      2.184      3.401
REMARK  6 active torsions:
REMARK  status: ('A' for Active; 'I' for Inactive)
REMARK    1  A    between atoms: C4_5  and  C5_6 
REMARK    2  A    between atoms: C8_9  and  N2_10 
REMARK       I    between atoms: N2_10  and  C9_11 
REMARK    3  A    between atoms: C9_11  and  C10_13 
REMARK    4  A    between atoms: C14_17  and  O2_18 
REMARK    5  A    between atoms: O2_18  and  C15_19 
REMARK    6  A    between atoms: C15_19  and  N3_20 
ROOT
HETATM    1  N2  UNL     1      24.117   4.907  49.473  1.00  0.00    -0.326 N 
HETATM    2  C9  UNL     1      23.817   5.496  50.711  1.00  0.00     0.236 C 
HETATM    3  O1  UNL     1      24.443   6.365  51.408  1.00  0.00    -0.272 OA
HETATM    4  H11 UNL     1      23.326   4.252  49.285  1.00  0.00     0.169 HD
ENDROOT
BRANCH   2   5
HETATM    5  C10 UNL     1      22.741   5.421  51.731  1.00  0.00     0.157 A 
HETATM    6  C11 UNL     1      21.475   5.685  50.994  1.00  0.00    -0.006 A 
HETATM    7  C12 UNL     1      20.660   4.641  51.058  1.00  0.00    -0.000 A 
HETATM    8  C13 UNL     1      21.319   3.600  51.843  1.00  0.00     0.033 A 
HETATM    9  C14 UNL     1      22.507   4.040  52.231  1.00  0.00     0.065 A 
BRANCH   9  10
HETATM   10  O2  UNL     1      23.232   3.121  52.994  1.00  0.00    -0.335 OA
BRANCH  10  11
HETATM   11  C15 UNL     1      23.258   1.741  52.733  1.00  0.00     0.300 C 
BRANCH  11  12
HETATM   12  N3  UNL     1      24.599   1.280  53.060  1.00  0.00    -0.358 N 
HETATM   13  C16 UNL     1      24.921  -0.104  53.116  1.00  0.00     0.105 C 
HETATM   14  C17 UNL     1      26.156  -0.548  52.939  1.00  0.00     0.108 C 
HETATM   15  N4  UNL     1      27.226   0.369  52.681  1.00  0.00    -0.334 N 
HETATM   16  C18 UNL     1      26.902   1.758  52.626  1.00  0.00     0.239 C 
HETATM   17  H20 UNL     1      28.216   0.072  52.535  1.00  0.00     0.168 HD
HETATM   18  O3  UNL     1      27.672   2.510  51.969  1.00  0.00    -0.271 OA
HETATM   19  C19 UNL     1      25.682   2.202  53.346  1.00  0.00     0.227 C 
ENDBRANCH  11  12
ENDBRANCH  10  11
ENDBRANCH   9  10
ENDBRANCH   2   5
BRANCH   1  20
HETATM   20  C8  UNL     1      25.348   5.435  48.999  1.00  0.00     0.034 A 
HETATM   21  C7  UNL     1      25.529   6.674  48.424  1.00  0.00     0.030 A 
HETATM   22  C6  UNL     1      26.795   7.049  48.009  1.00  0.00     0.010 A 
HETATM   23  C5  UNL     1      27.814   6.151  48.196  1.00  0.00    -0.054 A 
HETATM   24  C21 UNL     1      27.682   4.901  48.766  1.00  0.00     0.010 A 
HETATM   25  C20 UNL     1      26.419   4.558  49.167  1.00  0.00     0.030 A 
BRANCH  23  26
HETATM   26  C4  UNL     1      29.155   6.585  47.741  1.00  0.00     0.022 C 
HETATM   27  C3  UNL     1      30.193   5.492  47.897  1.00  0.00     0.039 C 
HETATM   28  C2  UNL     1      31.529   6.082  47.497  1.00  0.00     0.272 C 
HETATM   29  N1  UNL     1      31.363   7.345  46.836  1.00  0.00     0.084 N 
HETATM   30  C1  UNL     1      32.638   7.825  46.363  1.00  0.00     0.309 C 
HETATM   31  C23 UNL     1      30.834   8.356  47.744  1.00  0.00     0.272 C 
HETATM   32  C22 UNL     1      29.649   7.785  48.489  1.00  0.00     0.039 C 
ENDBRANCH  23  26
ENDBRANCH   1  20
TORSDOF 6
ENDMDL
MODEL 6
REMARK VINA RESULT:      -8.0      5.734     10.096
REMARK  6 active torsions:
REMARK  status: ('A' for Active; 'I' for Inactive)
REMARK    1  A    between atoms: C4_5  and  C5_6 
REMARK    2  A    between atoms: C8_9  and  N2_10 
REMARK       I    between atoms: N2_10  and  C9_11 
REMARK    3  A    between atoms: C9_11  and  C10_13 
REMARK    4  A    between atoms: C14_17  and  O2_18 
REMARK    5  A    between atoms: O2_18  and  C15_19 
REMARK    6  A    between atoms: C15_19  and  N3_20 
ROOT
HETATM    1  N2  UNL     1      20.234   1.513  52.864  1.00  0.00    -0.326 N 
HETATM    2  C9  UNL     1      19.863   1.412  51.515  1.00  0.00     0.236 C 
HETATM    3  O1  UNL     1      20.556   1.207  50.461  1.00  0.00    -0.272 OA
HETATM    4  H11 UNL     1      19.342   1.684  53.379  1.00  0.00     0.169 HD
ENDROOT
BRANCH   2   5
HETATM    5  C10 UNL     1      18.619   1.483  50.709  1.00  0.00     0.157 A 
HETATM    6  C11 UNL     1      18.216   0.069  50.475  1.00  0.00    -0.006 A 
HETATM    7  C12 UNL     1      17.032  -0.185  51.016  1.00  0.00    -0.000 A 
HETATM    8  C13 UNL     1      16.553   1.040  51.651  1.00  0.00     0.033 A 
HETATM    9  C14 UNL     1      17.454   1.995  51.479  1.00  0.00     0.065 A 
BRANCH   9  10
HETATM   10  O2  UNL     1      17.100   3.220  52.050  1.00  0.00    -0.335 OA
BRANCH  10  11
HETATM   11  C15 UNL     1      16.359   4.208  51.378  1.00  0.00     0.300 C 
BRANCH  11  12
HETATM   12  N3  UNL     1      14.969   4.024  51.768  1.00  0.00    -0.358 N 
HETATM   13  C16 UNL     1      14.566   4.047  53.131  1.00  0.00     0.105 C 
HETATM   14  C17 UNL     1      13.330   4.353  53.497  1.00  0.00     0.108 C 
HETATM   15  N4  UNL     1      12.343   4.677  52.510  1.00  0.00    -0.334 N 
HETATM   16  C18 UNL     1      12.749   4.654  51.142  1.00  0.00     0.239 C 
HETATM   17  H20 UNL     1      11.356   4.925  52.744  1.00  0.00     0.168 HD
HETATM   18  O3  UNL     1      12.088   5.352  50.326  1.00  0.00    -0.271 OA
HETATM   19  C19 UNL     1      13.918   3.807  50.793  1.00  0.00     0.227 C 
ENDBRANCH  11  12
ENDBRANCH  10  11
ENDBRANCH   9  10
ENDBRANCH   2   5
BRANCH   1  20
HETATM   20  C8  UNL     1      21.641   1.345  52.969  1.00  0.00     0.034 A 
HETATM   21  C7  UNL     1      22.594   2.286  52.649  1.00  0.00     0.030 A 
HETATM   22  C6  UNL     1      23.934   1.974  52.804  1.00  0.00     0.010 A 
HETATM   23  C5  UNL     1      24.241   0.723  53.277  1.00  0.00    -0.054 A 
HETATM   24  C21 UNL     1      23.323  -0.251  53.612  1.00  0.00     0.010 A 
HETATM   25  C20 UNL     1      22.007   0.087  53.446  1.00  0.00     0.030 A 
BRANCH  23  26
HETATM   26  C4  UNL     1      25.683   0.424  53.432  1.00  0.00     0.022 C 
HETATM   27  C3  UNL     1      26.530   1.681  53.428  1.00  0.00     0.039 C 
HETATM   28  C2  UNL     1      27.979   1.245  53.490  1.00  0.00     0.272 C 
HETATM   29  N1  UNL     1      28.090  -0.147  53.822  1.00  0.00     0.084 N 
HETATM   30  C1  UNL     1      29.478  -0.504  53.990  1.00  0.00     0.309 C 
HETATM   31  C23 UNL     1      27.554  -0.992  52.762  1.00  0.00     0.272 C 
HETATM   32  C22 UNL     1      26.198  -0.469  52.345  1.00  0.00     0.039 C 
ENDBRANCH  23  26
ENDBRANCH   1  20
TORSDOF 6
ENDMDL
MODEL 7
REMARK VINA RESULT:      -7.9      2.689      4.156
REMARK  6 active torsions:
REMARK  status: ('A' for Active; 'I' for Inactive)
REMARK    1  A    between atoms: C4_5  and  C5_6 
REMARK    2  A    between atoms: C8_9  and  N2_10 
REMARK       I    between atoms: N2_10  and  C9_11 
REMARK    3  A    between atoms: C9_11  and  C10_13 
REMARK    4  A    between atoms: C14_17  and  O2_18 
REMARK    5  A    between atoms: O2_18  and  C15_19 
REMARK    6  A    between atoms: C15_19  and  N3_20 
ROOT
HETATM    1  N2  UNL     1      24.700   4.199  50.218  1.00  0.00    -0.326 N 
HETATM    2  C9  UNL     1      23.581   4.227  49.371  1.00  0.00     0.236 C 
HETATM    3  O1  UNL     1      23.367   4.845  48.274  1.00  0.00    -0.272 OA
HETATM    4  H11 UNL     1      24.432   3.560  51.000  1.00  0.00     0.169 HD
ENDROOT
BRANCH   2   5
HETATM    5  C10 UNL     1      22.226   3.621  49.319  1.00  0.00     0.157 A 
HETATM    6  C11 UNL     1      22.161   2.906  48.015  1.00  0.00    -0.006 A 
HETATM    7  C12 UNL     1      21.983   1.605  48.194  1.00  0.00    -0.000 A 
HETATM    8  C13 UNL     1      21.916   1.350  49.631  1.00  0.00     0.033 A 
HETATM    9  C14 UNL     1      22.054   2.498  50.278  1.00  0.00     0.065 A 
BRANCH   9  10
HETATM   10  O2  UNL     1      22.005   2.375  51.669  1.00  0.00    -0.335 OA
BRANCH  10  11
HETATM   11  C15 UNL     1      23.139   2.444  52.497  1.00  0.00     0.300 C 
BRANCH  11  12
HETATM   12  N3  UNL     1      23.445   1.080  52.901  1.00  0.00    -0.358 N 
HETATM   13  C16 UNL     1      24.783   0.633  53.071  1.00  0.00     0.105 C 
HETATM   14  C17 UNL     1      25.093  -0.387  53.857  1.00  0.00     0.108 C 
HETATM   15  N4  UNL     1      24.067  -1.085  54.575  1.00  0.00    -0.334 N 
HETATM   16  C18 UNL     1      22.724  -0.635  54.404  1.00  0.00     0.239 C 
HETATM   17  H20 UNL     1      24.257  -1.893  55.207  1.00  0.00     0.168 HD
HETATM   18  O3  UNL     1      21.902  -0.893  55.325  1.00  0.00    -0.271 OA
HETATM   19  C19 UNL     1      22.405   0.100  53.154  1.00  0.00     0.227 C 
ENDBRANCH  11  12
ENDBRANCH  10  11
ENDBRANCH   9  10
ENDBRANCH   2   5
BRANCH   1  20
HETATM   20  C8  UNL     1      25.711   5.035  49.673  1.00  0.00     0.034 A 
HETATM   21  C7  UNL     1      25.688   6.412  49.636  1.00  0.00     0.030 A 
HETATM   22  C6  UNL     1      26.753   7.092  49.069  1.00  0.00     0.010 A 
HETATM   23  C5  UNL     1      27.787   6.342  48.568  1.00  0.00    -0.054 A 
HETATM   24  C21 UNL     1      27.854   4.964  48.583  1.00  0.00     0.010 A 
HETATM   25  C20 UNL     1      26.787   4.320  49.149  1.00  0.00     0.030 A 
BRANCH  23  26
HETATM   26  C4  UNL     1      28.908   7.102  47.969  1.00  0.00     0.022 C 
HETATM   27  C3  UNL     1      28.527   7.733  46.645  1.00  0.00     0.039 C 
HETATM   28  C2  UNL     1      29.772   8.391  46.087  1.00  0.00     0.272 C 
HETATM   29  N1  UNL     1      30.806   8.471  47.078  1.00  0.00     0.084 N 
HETATM   30  C1  UNL     1      31.933   9.205  46.555  1.00  0.00     0.309 C 
HETATM   31  C23 UNL     1      31.292   7.147  47.449  1.00  0.00     0.272 C 
HETATM   32  C22 UNL     1      30.112   6.244  47.729  1.00  0.00     0.039 C 
ENDBRANCH  23  26
ENDBRANCH   1  20
TORSDOF 6
ENDMDL
MODEL 8
REMARK VINA RESULT:      -7.8      2.834      7.557
REMARK  6 active torsions:
REMARK  status: ('A' for Active; 'I' for Inactive)
REMARK    1  A    between atoms: C4_5  and  C5_6 
REMARK    2  A    between atoms: C8_9  and  N2_10 
REMARK       I    between atoms: N2_10  and  C9_11 
REMARK    3  A    between atoms: C9_11  and  C10_13 
REMARK    4  A    between atoms: C14_17  and  O2_18 
REMARK    5  A    between atoms: O2_18  and  C15_19 
REMARK    6  A    between atoms: C15_19  and  N3_20 
ROOT
HETATM    1  N2  UNL     1      21.995   3.553  51.506  1.00  0.00    -0.326 N 
HETATM    2  C9  UNL     1      21.974   3.700  50.111  1.00  0.00     0.236 C 
HETATM    3  O1  UNL     1      22.735   3.229  49.199  1.00  0.00    -0.272 OA
HETATM    4  H11 UNL     1      21.185   4.114  51.851  1.00  0.00     0.169 HD
ENDROOT
BRANCH   2   5
HETATM    5  C10 UNL     1      21.150   4.400  49.092  1.00  0.00     0.157 A 
HETATM    6  C11 UNL     1      19.757   3.924  49.313  1.00  0.00    -0.006 A 
HETATM    7  C12 UNL     1      18.959   4.928  49.647  1.00  0.00    -0.000 A 
HETATM    8  C13 UNL     1      19.756   6.152  49.674  1.00  0.00     0.033 A 
HETATM    9  C14 UNL     1      21.009   5.856  49.358  1.00  0.00     0.065 A 
BRANCH   9  10
HETATM   10  O2  UNL     1      21.869   6.957  49.353  1.00  0.00    -0.335 OA
BRANCH  10  11
HETATM   11  C15 UNL     1      22.756   7.258  50.401  1.00  0.00     0.300 C 
BRANCH  11  12
HETATM   12  N3  UNL     1      24.092   7.276  49.823  1.00  0.00    -0.358 N 
HETATM   13  C16 UNL     1      25.006   8.332  50.089  1.00  0.00     0.105 C 
HETATM   14  C17 UNL     1      26.317   8.170  49.994  1.00  0.00     0.108 C 
HETATM   15  N4  UNL     1      26.865   6.902  49.612  1.00  0.00    -0.334 N 
HETATM   16  C18 UNL     1      25.946   5.843  49.346  1.00  0.00     0.239 C 
HETATM   17  H20 UNL     1      27.889   6.721  49.523  1.00  0.00     0.168 HD
HETATM   18  O3  UNL     1      26.368   4.661  49.468  1.00  0.00    -0.271 OA
HETATM   19  C19 UNL     1      24.567   6.222  48.947  1.00  0.00     0.227 C 
ENDBRANCH  11  12
ENDBRANCH  10  11
ENDBRANCH   9  10
ENDBRANCH   2   5
BRANCH   1  20
HETATM   20  C8  UNL     1      23.089   2.719  51.864  1.00  0.00     0.034 A 
HETATM   21  C7  UNL     1      23.032   1.360  52.081  1.00  0.00     0.030 A 
HETATM   22  C6  UNL     1      24.188   0.680  52.426  1.00  0.00     0.010 A 
HETATM   23  C5  UNL     1      25.343   1.412  52.534  1.00  0.00    -0.054 A 
HETATM   24  C21 UNL     1      25.449   2.772  52.327  1.00  0.00     0.010 A 
HETATM   25  C20 UNL     1      24.290   3.416  51.988  1.00  0.00     0.030 A 
BRANCH  23  26
HETATM   26  C4  UNL     1      26.560   0.653  52.904  1.00  0.00     0.022 C 
HETATM   27  C3  UNL     1      26.495  -0.789  52.442  1.00  0.00     0.039 C 
HETATM   28  C2  UNL     1      27.737  -1.482  52.962  1.00  0.00     0.272 C 
HETATM   29  N1  UNL     1      28.696  -0.534  53.451  1.00  0.00     0.084 N 
HETATM   30  C1  UNL     1      29.912  -1.212  53.828  1.00  0.00     0.309 C 
HETATM   31  C23 UNL     1      28.205   0.157  54.637  1.00  0.00     0.272 C 
HETATM   32  C22 UNL     1      26.795   0.642  54.383  1.00  0.00     0.039 C 
ENDBRANCH  23  26
ENDBRANCH   1  20
TORSDOF 6
ENDMDL
MODEL 9
REMARK VINA RESULT:      -7.8      2.126      4.712
REMARK  6 active torsions:
REMARK  status: ('A' for Active; 'I' for Inactive)
REMARK    1  A    between atoms: C4_5  and  C5_6 
REMARK    2  A    between atoms: C8_9  and  N2_10 
REMARK       I    between atoms: N2_10  and  C9_11 
REMARK    3  A    between atoms: C9_11  and  C10_13 
REMARK    4  A    between atoms: C14_17  and  O2_18 
REMARK    5  A    between atoms: O2_18  and  C15_19 
REMARK    6  A    between atoms: C15_19  and  N3_20 
ROOT
HETATM    1  N2  UNL     1      25.235   2.745  50.443  1.00  0.00    -0.326 N 
HETATM    2  C9  UNL     1      26.260   2.171  51.210  1.00  0.00     0.236 C 
HETATM    3  O1  UNL     1      27.414   2.608  51.541  1.00  0.00    -0.272 OA
HETATM    4  H11 UNL     1      24.472   2.032  50.433  1.00  0.00     0.169 HD
ENDROOT
BRANCH   2   5
HETATM    5  C10 UNL     1      26.504   0.906  51.948  1.00  0.00     0.157 A 
HETATM    6  C11 UNL     1      27.562   1.226  52.945  1.00  0.00    -0.006 A 
HETATM    7  C12 UNL     1      27.116   1.055  54.183  1.00  0.00    -0.000 A 
HETATM    8  C13 UNL     1      25.728   0.608  54.107  1.00  0.00     0.033 A 
HETATM    9  C14 UNL     1      25.373   0.521  52.833  1.00  0.00     0.065 A 
BRANCH   9  10
HETATM   10  O2  UNL     1      24.055   0.099  52.639  1.00  0.00    -0.335 OA
BRANCH  10  11
HETATM   11  C15 UNL     1      22.940   0.746  53.198  1.00  0.00     0.300 C 
BRANCH  11  12
HETATM   12  N3  UNL     1      22.267   1.435  52.108  1.00  0.00    -0.358 N 
HETATM   13  C16 UNL     1      21.967   0.781  50.882  1.00  0.00     0.105 C 
HETATM   14  C17 UNL     1      20.986   1.184  50.088  1.00  0.00     0.108 C 
HETATM   15  N4  UNL     1      20.181   2.314  50.448  1.00  0.00    -0.334 N 
HETATM   16  C18 UNL     1      20.483   2.970  51.679  1.00  0.00     0.239 C 
HETATM   17  H20 UNL     1      19.397   2.672  49.860  1.00  0.00     0.168 HD
HETATM   18  O3  UNL     1      19.558   3.626  52.231  1.00  0.00    -0.271 OA
HETATM   19  C19 UNL     1      21.863   2.825  52.207  1.00  0.00     0.227 C 
ENDBRANCH  11  12
ENDBRANCH  10  11
ENDBRANCH   9  10
ENDBRANCH   2   5
BRANCH   1  20
HETATM   20  C8  UNL     1      25.652   4.031  50.006  1.00  0.00     0.034 A 
HETATM   21  C7  UNL     1      25.054   5.229  50.333  1.00  0.00     0.030 A 
HETATM   22  C6  UNL     1      25.577   6.406  49.827  1.00  0.00     0.010 A 
HETATM   23  C5  UNL     1      26.680   6.312  49.017  1.00  0.00    -0.054 A 
HETATM   24  C21 UNL     1      27.312   5.138  48.663  1.00  0.00     0.010 A 
HETATM   25  C20 UNL     1      26.772   3.990  49.177  1.00  0.00     0.030 A 
BRANCH  23  26
HETATM   26  C4  UNL     1      27.213   7.592  48.495  1.00  0.00     0.022 C 
HETATM   27  C3  UNL     1      28.549   7.412  47.801  1.00  0.00     0.039 C 
HETATM   28  C2  UNL     1      29.035   8.790  47.403  1.00  0.00     0.272 C 
HETATM   29  N1  UNL     1      27.992   9.767  47.528  1.00  0.00     0.084 N 
HETATM   30  C1  UNL     1      28.448  11.042  47.032  1.00  0.00     0.309 C 
HETATM   31  C23 UNL     1      27.609   9.961  48.922  1.00  0.00     0.272 C 
HETATM   32  C22 UNL     1      27.399   8.613  49.574  1.00  0.00     0.039 C 
ENDBRANCH  23  26
ENDBRANCH   1  20
TORSDOF 6
ENDMDL
