MODEL 1
REMARK VINA RESULT:      -8.2      0.000      0.000
REMARK  6 active torsions:
REMARK  status: ('A' for Active; 'I' for Inactive)
REMARK    1  A    between atoms: N1_1  and  C1_2 
REMARK    2  A    between atoms: C1_2  and  C2_3 
REMARK    3  A    between atoms: C2_3  and  C3_4 
REMARK    4  A    between atoms: C3_4  and  C4_5 
REMARK    5  A    between atoms: C4_5  and  C5_6 
REMARK    6  A    between atoms: C5_6  and  C6_7 
ROOT
HETATM    1  C6  UNL     1      25.188  -0.094  54.245  1.00  0.00     0.240 A 
HETATM    2  N2  UNL     1      23.977  -0.244  53.732  1.00  0.00     0.011 N 
HETATM    3  C7  UNL     1      24.881   1.021  53.210  1.00  0.00     0.237 A 
HETATM    4  C8  UNL     1      24.169   1.818  52.461  1.00  0.00     0.031 C 
HETATM    5  C9  UNL     1      24.021   3.069  51.634  1.00  0.00     0.001 C 
HETATM    6  C10 UNL     1      24.004   4.121  50.982  1.00  0.00    -0.005 C 
HETATM    7  C11 UNL     1      24.426   5.369  50.425  1.00  0.00     0.006 C 
HETATM    8  C12 UNL     1      24.356   4.945  48.853  1.00  0.00     0.006 C 
HETATM    9  C13 UNL     1      23.456   3.644  49.124  1.00  0.00     0.018 C 
HETATM   10  C14 UNL     1      22.528   2.980  48.277  1.00  0.00    -0.019 C 
HETATM   11  C15 UNL     1      21.534   1.744  48.281  1.00  0.00    -0.005 C 
HETATM   12  C16 UNL     1      21.153   0.890  49.459  1.00  0.00    -0.002 C 
HETATM   13  C17 UNL     1      21.562   1.069  50.852  1.00  0.00     0.034 C 
HETATM   14  C18 UNL     1      22.324   0.519  51.915  1.00  0.00     0.012 C 
HETATM   15  C19 UNL     1      23.139   0.187  52.761  1.00  0.00     0.174 A 
HETATM   16  C20 UNL     1      22.485  -0.880  53.636  1.00  0.00     0.636 A 
HETATM   17  O1  UNL     1      21.298  -1.353  53.801  1.00  0.00    -0.404 OA
ENDROOT
BRANCH   1  18
HETATM   18  C5  UNL     1      26.360  -0.009  54.731  1.00  0.00     0.052 C 
BRANCH  18  19
HETATM   19  C4  UNL     1      27.687   0.257  55.032  1.00  0.00    -0.019 C 
BRANCH  19  20
HETATM   20  C3  UNL     1      28.624  -0.154  54.325  1.00  0.00    -0.002 C 
BRANCH  20  21
HETATM   21  C2  UNL     1      29.636  -0.925  53.512  1.00  0.00     0.016 C 
BRANCH  21  22
HETATM   22  C1  UNL     1      29.688  -2.437  53.420  1.00  0.00     0.080 C 
BRANCH  22  23
HETATM   23  N1  UNL     1      28.458  -3.151  53.110  1.00  0.00    -0.408 N 
HETATM   24  H1  UNL     1      28.358  -4.087  53.581  1.00  0.00     0.155 HD
HETATM   25  H2  UNL     1      28.332  -2.199  52.525  1.00  0.00     0.155 HD
ENDBRANCH  22  23
ENDBRANCH  21  22
ENDBRANCH  20  21
ENDBRANCH  19  20
ENDBRANCH  18  19
ENDBRANCH   1  18
TORSDOF 6
ENDMDL
MODEL 2
REMARK VINA RESULT:      -8.1      2.652      4.429
REMARK  6 active torsions:
REMARK  status: ('A' for Active; 'I' for Inactive)
REMARK    1  A    between atoms: N1_1  and  C1_2 
REMARK    2  A    between atoms: C1_2  and  C2_3 
REMARK    3  A    between atoms: C2_3  and  C3_4 
REMARK    4  A    between atoms: C3_4  and  C4_5 
REMARK    5  A    between atoms: C4_5  and  C5_6 
REMARK    6  A    between atoms: C5_6  and  C6_7 
ROOT
HETATM    1  C6  UNL     1      27.592   2.009  52.536  1.00  0.00     0.240 A 
HETATM    2  N2  UNL     1      26.735   2.522  51.666  1.00  0.00     0.011 N 
HETATM    3  C7  UNL     1      26.164   1.444  52.763  1.00  0.00     0.237 A 
HETATM    4  C8  UNL     1      24.931   1.116  52.487  1.00  0.00     0.031 C 
HETATM    5  C9  UNL     1      23.682   0.323  52.773  1.00  0.00     0.001 C 
HETATM    6  C10 UNL     1      22.712  -0.378  53.090  1.00  0.00    -0.005 C 
HETATM    7  C11 UNL     1      21.919  -1.355  53.768  1.00  0.00     0.006 C 
HETATM    8  C12 UNL     1      20.793  -0.346  54.375  1.00  0.00     0.006 C 
HETATM    9  C13 UNL     1      21.176   0.861  53.390  1.00  0.00     0.018 C 
HETATM   10  C14 UNL     1      20.380   1.931  52.898  1.00  0.00    -0.019 C 
HETATM   11  C15 UNL     1      20.481   3.197  51.949  1.00  0.00    -0.005 C 
HETATM   12  C16 UNL     1      21.631   3.570  51.053  1.00  0.00    -0.002 C 
HETATM   13  C17 UNL     1      22.855   2.803  50.818  1.00  0.00     0.034 C 
HETATM   14  C18 UNL     1      24.261   2.778  51.012  1.00  0.00     0.012 C 
HETATM   15  C19 UNL     1      25.422   2.631  51.358  1.00  0.00     0.174 A 
HETATM   16  C20 UNL     1      26.300   3.354  50.340  1.00  0.00     0.636 A 
HETATM   17  O1  UNL     1      26.136   3.893  49.181  1.00  0.00    -0.404 OA
ENDROOT
BRANCH   1  18
HETATM   18  C5  UNL     1      28.437   1.572  53.379  1.00  0.00     0.052 C 
BRANCH  18  19
HETATM   19  C4  UNL     1      29.336   0.847  54.146  1.00  0.00    -0.019 C 
BRANCH  19  20
HETATM   20  C3  UNL     1      29.548  -0.364  53.954  1.00  0.00    -0.002 C 
BRANCH  20  21
HETATM   21  C2  UNL     1      29.718  -1.773  53.439  1.00  0.00     0.016 C 
BRANCH  21  22
HETATM   22  C1  UNL     1      28.573  -2.680  53.033  1.00  0.00     0.080 C 
BRANCH  22  23
HETATM   23  N1  UNL     1      27.235  -2.111  52.965  1.00  0.00    -0.408 N 
HETATM   24  H1  UNL     1      26.488  -2.673  53.450  1.00  0.00     0.155 HD
HETATM   25  H2  UNL     1      27.844  -1.346  52.411  1.00  0.00     0.155 HD
ENDBRANCH  22  23
ENDBRANCH  21  22
ENDBRANCH  20  21
ENDBRANCH  19  20
ENDBRANCH  18  19
ENDBRANCH   1  18
TORSDOF 6
ENDMDL
MODEL 3
REMARK VINA RESULT:      -8.1      2.789      5.708
REMARK  6 active torsions:
REMARK  status: ('A' for Active; 'I' for Inactive)
REMARK    1  A    between atoms: N1_1  and  C1_2 
REMARK    2  A    between atoms: C1_2  and  C2_3 
REMARK    3  A    between atoms: C2_3  and  C3_4 
REMARK    4  A    between atoms: C3_4  and  C4_5 
REMARK    5  A    between atoms: C4_5  and  C5_6 
REMARK    6  A    between atoms: C5_6  and  C6_7 
ROOT
HETATM    1  C6  UNL     1      26.017   1.745  51.634  1.00  0.00     0.240 A 
HETATM    2  N2  UNL     1      25.597   0.981  52.630  1.00  0.00     0.011 N 
HETATM    3  C7  UNL     1      24.475   1.825  51.784  1.00  0.00     0.237 A 
HETATM    4  C8  UNL     1      23.305   1.741  52.359  1.00  0.00     0.031 C 
HETATM    5  C9  UNL     1      21.842   2.094  52.430  1.00  0.00     0.001 C 
HETATM    6  C10 UNL     1      20.656   2.449  52.400  1.00  0.00    -0.005 C 
HETATM    7  C11 UNL     1      19.461   3.125  52.003  1.00  0.00     0.006 C 
HETATM    8  C12 UNL     1      18.591   1.812  51.586  1.00  0.00     0.006 C 
HETATM    9  C13 UNL     1      19.554   0.785  52.355  1.00  0.00     0.018 C 
HETATM   10  C14 UNL     1      19.271  -0.486  52.925  1.00  0.00    -0.019 C 
HETATM   11  C15 UNL     1      19.985  -1.658  53.719  1.00  0.00    -0.005 C 
HETATM   12  C16 UNL     1      21.374  -1.648  54.297  1.00  0.00    -0.002 C 
HETATM   13  C17 UNL     1      22.320  -0.531  54.310  1.00  0.00     0.034 C 
HETATM   14  C18 UNL     1      23.558  -0.057  53.805  1.00  0.00     0.012 C 
HETATM   15  C19 UNL     1      24.498   0.455  53.218  1.00  0.00     0.174 A 
HETATM   16  C20 UNL     1      25.775   0.046  53.948  1.00  0.00     0.636 A 
HETATM   17  O1  UNL     1      26.070  -0.524  55.065  1.00  0.00    -0.404 OA
ENDROOT
BRANCH   1  18
HETATM   18  C5  UNL     1      26.456   2.435  50.661  1.00  0.00     0.052 C 
BRANCH  18  19
HETATM   19  C4  UNL     1      26.682   3.330  49.626  1.00  0.00    -0.019 C 
BRANCH  19  20
HETATM   20  C3  UNL     1      26.110   4.433  49.565  1.00  0.00    -0.002 C 
BRANCH  20  21
HETATM   21  C2  UNL     1      25.450   5.772  49.791  1.00  0.00     0.016 C 
BRANCH  21  22
HETATM   22  C1  UNL     1      24.291   6.006  50.739  1.00  0.00     0.080 C 
BRANCH  22  23
HETATM   23  N1  UNL     1      24.508   6.865  51.894  1.00  0.00    -0.408 N 
HETATM   24  H1  UNL     1      24.992   6.402  52.706  1.00  0.00     0.155 HD
HETATM   25  H2  UNL     1      24.009   7.565  51.170  1.00  0.00     0.155 HD
ENDBRANCH  22  23
ENDBRANCH  21  22
ENDBRANCH  20  21
ENDBRANCH  19  20
ENDBRANCH  18  19
ENDBRANCH   1  18
TORSDOF 6
ENDMDL
MODEL 4
REMARK VINA RESULT:      -8.0      2.197      2.485
REMARK  6 active torsions:
REMARK  status: ('A' for Active; 'I' for Inactive)
REMARK    1  A    between atoms: N1_1  and  C1_2 
REMARK    2  A    between atoms: C1_2  and  C2_3 
REMARK    3  A    between atoms: C2_3  and  C3_4 
REMARK    4  A    between atoms: C3_4  and  C4_5 
REMARK    5  A    between atoms: C4_5  and  C5_6 
REMARK    6  A    between atoms: C5_6  and  C6_7 
ROOT
HETATM    1  C6  UNL     1      25.055  -0.679  53.360  1.00  0.00     0.240 A 
HETATM    2  N2  UNL     1      23.759  -0.590  53.617  1.00  0.00     0.011 N 
HETATM    3  C7  UNL     1      24.495   0.701  52.925  1.00  0.00     0.237 A 
HETATM    4  C8  UNL     1      23.687   1.726  52.889  1.00  0.00     0.031 C 
HETATM    5  C9  UNL     1      23.398   3.166  52.553  1.00  0.00     0.001 C 
HETATM    6  C10 UNL     1      23.267   4.358  52.245  1.00  0.00    -0.005 C 
HETATM    7  C11 UNL     1      23.585   5.678  51.798  1.00  0.00     0.006 C 
HETATM    8  C12 UNL     1      22.596   5.720  50.505  1.00  0.00     0.006 C 
HETATM    9  C13 UNL     1      21.720   4.465  50.987  1.00  0.00     0.018 C 
HETATM   10  C14 UNL     1      20.365   4.134  50.717  1.00  0.00    -0.019 C 
HETATM   11  C15 UNL     1      19.285   3.023  51.054  1.00  0.00    -0.005 C 
HETATM   12  C16 UNL     1      19.417   1.901  52.048  1.00  0.00    -0.002 C 
HETATM   13  C17 UNL     1      20.536   1.651  52.958  1.00  0.00     0.034 C 
HETATM   14  C18 UNL     1      21.605   0.770  53.263  1.00  0.00     0.012 C 
HETATM   15  C19 UNL     1      22.650   0.155  53.407  1.00  0.00     0.174 A 
HETATM   16  C20 UNL     1      22.350  -1.064  54.275  1.00  0.00     0.636 A 
HETATM   17  O1  UNL     1      21.366  -1.478  54.996  1.00  0.00    -0.404 OA
ENDROOT
BRANCH   1  18
HETATM   18  C5  UNL     1      26.290  -0.819  53.092  1.00  0.00     0.052 C 
BRANCH  18  19
HETATM   19  C4  UNL     1      27.645  -1.109  53.058  1.00  0.00    -0.019 C 
BRANCH  19  20
HETATM   20  C3  UNL     1      28.512  -0.264  53.344  1.00  0.00    -0.002 C 
BRANCH  20  21
HETATM   21  C2  UNL     1      29.334   0.913  53.813  1.00  0.00     0.016 C 
BRANCH  21  22
HETATM   22  C1  UNL     1      28.858   2.352  53.791  1.00  0.00     0.080 C 
BRANCH  22  23
HETATM   23  N1  UNL     1      27.435   2.609  53.949  1.00  0.00    -0.408 N 
HETATM   24  H1  UNL     1      26.860   2.478  53.077  1.00  0.00     0.155 HD
HETATM   25  H2  UNL     1      27.824   2.790  54.989  1.00  0.00     0.155 HD
ENDBRANCH  22  23
ENDBRANCH  21  22
ENDBRANCH  20  21
ENDBRANCH  19  20
ENDBRANCH  18  19
ENDBRANCH   1  18
TORSDOF 6
ENDMDL
MODEL 5
REMARK VINA RESULT:      -7.8      1.799      2.052
REMARK  6 active torsions:
REMARK  status: ('A' for Active; 'I' for Inactive)
REMARK    1  A    between atoms: N1_1  and  C1_2 
REMARK    2  A    between atoms: C1_2  and  C2_3 
REMARK    3  A    between atoms: C2_3  and  C3_4 
REMARK    4  A    between atoms: C3_4  and  C4_5 
REMARK    5  A    between atoms: C4_5  and  C5_6 
REMARK    6  A    between atoms: C5_6  and  C6_7 
ROOT
HETATM    1  C6  UNL     1      24.829  -0.164  53.788  1.00  0.00     0.240 A 
HETATM    2  N2  UNL     1      23.552  -0.502  53.877  1.00  0.00     0.011 N 
HETATM    3  C7  UNL     1      23.929   0.869  53.060  1.00  0.00     0.237 A 
HETATM    4  C8  UNL     1      22.848   1.534  52.755  1.00  0.00     0.031 C 
HETATM    5  C9  UNL     1      22.163   2.730  52.145  1.00  0.00     0.001 C 
HETATM    6  C10 UNL     1      21.702   3.753  51.622  1.00  0.00    -0.005 C 
HETATM    7  C11 UNL     1      21.640   5.035  50.992  1.00  0.00     0.006 C 
HETATM    8  C12 UNL     1      20.920   4.569  49.607  1.00  0.00     0.006 C 
HETATM    9  C13 UNL     1      20.437   3.157  50.198  1.00  0.00     0.018 C 
HETATM   10  C14 UNL     1      19.329   2.343  49.837  1.00  0.00    -0.019 C 
HETATM   11  C15 UNL     1      18.632   0.976  50.237  1.00  0.00    -0.005 C 
HETATM   12  C16 UNL     1      18.958   0.103  51.418  1.00  0.00    -0.002 C 
HETATM   13  C17 UNL     1      19.929   0.374  52.478  1.00  0.00     0.034 C 
HETATM   14  C18 UNL     1      21.162  -0.034  53.051  1.00  0.00     0.012 C 
HETATM   15  C19 UNL     1      22.311  -0.223  53.416  1.00  0.00     0.174 A 
HETATM   16  C20 UNL     1      22.288  -1.352  54.443  1.00  0.00     0.636 A 
HETATM   17  O1  UNL     1      21.388  -1.991  55.108  1.00  0.00    -0.404 OA
ENDROOT
BRANCH   1  18
HETATM   18  C5  UNL     1      26.068   0.103  53.690  1.00  0.00     0.052 C 
BRANCH  18  19
HETATM   19  C4  UNL     1      27.328   0.672  53.584  1.00  0.00    -0.019 C 
BRANCH  19  20
HETATM   20  C3  UNL     1      28.370  -0.006  53.645  1.00  0.00    -0.002 C 
BRANCH  20  21
HETATM   21  C2  UNL     1      29.565  -0.903  53.435  1.00  0.00     0.016 C 
BRANCH  21  22
HETATM   22  C1  UNL     1      29.499  -2.417  53.374  1.00  0.00     0.080 C 
BRANCH  22  23
HETATM   23  N1  UNL     1      28.223  -3.038  53.054  1.00  0.00    -0.408 N 
HETATM   24  H1  UNL     1      27.839  -3.673  53.801  1.00  0.00     0.155 HD
HETATM   25  H2  UNL     1      28.414  -2.409  52.142  1.00  0.00     0.155 HD
ENDBRANCH  22  23
ENDBRANCH  21  22
ENDBRANCH  20  21
ENDBRANCH  19  20
ENDBRANCH  18  19
ENDBRANCH   1  18
TORSDOF 6
ENDMDL
MODEL 6
REMARK VINA RESULT:      -7.5      4.039      7.763
REMARK  6 active torsions:
REMARK  status: ('A' for Active; 'I' for Inactive)
REMARK    1  A    between atoms: N1_1  and  C1_2 
REMARK    2  A    between atoms: C1_2  and  C2_3 
REMARK    3  A    between atoms: C2_3  and  C3_4 
REMARK    4  A    between atoms: C3_4  and  C4_5 
REMARK    5  A    between atoms: C4_5  and  C5_6 
REMARK    6  A    between atoms: C5_6  and  C6_7 
ROOT
HETATM    1  C6  UNL     1      18.647  -0.798  53.108  1.00  0.00     0.240 A 
HETATM    2  N2  UNL     1      19.905  -0.850  53.517  1.00  0.00     0.011 N 
HETATM    3  C7  UNL     1      19.590  -0.096  52.096  1.00  0.00     0.237 A 
HETATM    4  C8  UNL     1      20.701   0.201  51.477  1.00  0.00     0.031 C 
HETATM    5  C9  UNL     1      21.439   0.776  50.296  1.00  0.00     0.001 C 
HETATM    6  C10 UNL     1      21.947   1.265  49.278  1.00  0.00    -0.005 C 
HETATM    7  C11 UNL     1      22.069   1.844  47.977  1.00  0.00     0.006 C 
HETATM    8  C12 UNL     1      22.739   3.260  48.424  1.00  0.00     0.006 C 
HETATM    9  C13 UNL     1      23.154   2.735  49.883  1.00  0.00     0.018 C 
HETATM   10  C14 UNL     1      24.211   3.149  50.740  1.00  0.00    -0.019 C 
HETATM   11  C15 UNL     1      24.838   2.818  52.158  1.00  0.00    -0.005 C 
HETATM   12  C16 UNL     1      24.484   1.667  53.060  1.00  0.00    -0.002 C 
HETATM   13  C17 UNL     1      23.546   0.578  52.781  1.00  0.00     0.034 C 
HETATM   14  C18 UNL     1      22.303   0.000  53.145  1.00  0.00     0.012 C 
HETATM   15  C19 UNL     1      21.151  -0.378  53.286  1.00  0.00     0.174 A 
HETATM   16  C20 UNL     1      21.129  -1.358  54.457  1.00  0.00     0.636 A 
HETATM   17  O1  UNL     1      22.004  -1.980  55.170  1.00  0.00    -0.404 OA
ENDROOT
BRANCH   1  18
HETATM   18  C5  UNL     1      17.422  -0.734  52.770  1.00  0.00     0.052 C 
BRANCH  18  19
HETATM   19  C4  UNL     1      16.067  -0.918  52.544  1.00  0.00    -0.019 C 
BRANCH  19  20
HETATM   20  C3  UNL     1      15.242   0.006  52.664  1.00  0.00    -0.002 C 
BRANCH  20  21
HETATM   21  C2  UNL     1      14.419   1.215  53.036  1.00  0.00     0.016 C 
BRANCH  21  22
HETATM   22  C1  UNL     1      14.794   2.644  52.694  1.00  0.00     0.080 C 
BRANCH  22  23
HETATM   23  N1  UNL     1      14.408   3.698  53.620  1.00  0.00    -0.408 N 
HETATM   24  H1  UNL     1      14.698   4.669  53.334  1.00  0.00     0.155 HD
HETATM   25  H2  UNL     1      13.985   2.782  54.116  1.00  0.00     0.155 HD
ENDBRANCH  22  23
ENDBRANCH  21  22
ENDBRANCH  20  21
ENDBRANCH  19  20
ENDBRANCH  18  19
ENDBRANCH   1  18
TORSDOF 6
ENDMDL
MODEL 7
REMARK VINA RESULT:      -7.5      3.332      6.507
REMARK  6 active torsions:
REMARK  status: ('A' for Active; 'I' for Inactive)
REMARK    1  A    between atoms: N1_1  and  C1_2 
REMARK    2  A    between atoms: C1_2  and  C2_3 
REMARK    3  A    between atoms: C2_3  and  C3_4 
REMARK    4  A    between atoms: C3_4  and  C4_5 
REMARK    5  A    between atoms: C4_5  and  C5_6 
REMARK    6  A    between atoms: C5_6  and  C6_7 
ROOT
HETATM    1  C6  UNL     1      22.622   5.084  51.606  1.00  0.00     0.240 A 
HETATM    2  N2  UNL     1      21.810   4.096  51.950  1.00  0.00     0.011 N 
HETATM    3  C7  UNL     1      23.419   3.784  51.896  1.00  0.00     0.237 A 
HETATM    4  C8  UNL     1      23.645   2.507  52.041  1.00  0.00     0.031 C 
HETATM    5  C9  UNL     1      24.588   1.334  52.108  1.00  0.00     0.001 C 
HETATM    6  C10 UNL     1      25.445   0.441  52.140  1.00  0.00    -0.005 C 
HETATM    7  C11 UNL     1      26.713  -0.214  52.057  1.00  0.00     0.006 C 
HETATM    8  C12 UNL     1      26.806  -0.717  53.604  1.00  0.00     0.006 C 
HETATM    9  C13 UNL     1      25.243  -0.494  53.892  1.00  0.00     0.018 C 
HETATM   10  C14 UNL     1      24.380  -1.141  54.818  1.00  0.00    -0.019 C 
HETATM   11  C15 UNL     1      22.866  -1.136  55.288  1.00  0.00    -0.005 C 
HETATM   12  C16 UNL     1      21.719  -0.400  54.650  1.00  0.00    -0.002 C 
HETATM   13  C17 UNL     1      21.752   0.399  53.425  1.00  0.00     0.034 C 
HETATM   14  C18 UNL     1      21.639   1.710  52.895  1.00  0.00     0.012 C 
HETATM   15  C19 UNL     1      21.765   2.840  52.450  1.00  0.00     0.174 A 
HETATM   16  C20 UNL     1      20.368   3.371  52.138  1.00  0.00     0.636 A 
HETATM   17  O1  UNL     1      19.178   2.882  52.067  1.00  0.00    -0.404 OA
ENDROOT
BRANCH   1  18
HETATM   18  C5  UNL     1      23.370   6.069  51.312  1.00  0.00     0.052 C 
BRANCH  18  19
HETATM   19  C4  UNL     1      24.328   6.946  50.829  1.00  0.00    -0.019 C 
BRANCH  19  20
HETATM   20  C3  UNL     1      25.198   6.595  50.012  1.00  0.00    -0.002 C 
BRANCH  20  21
HETATM   21  C2  UNL     1      26.213   5.897  49.140  1.00  0.00     0.016 C 
BRANCH  21  22
HETATM   22  C1  UNL     1      27.304   6.605  48.359  1.00  0.00     0.080 C 
BRANCH  22  23
HETATM   23  N1  UNL     1      28.651   6.612  48.911  1.00  0.00    -0.408 N 
HETATM   24  H1  UNL     1      28.736   6.210  49.880  1.00  0.00     0.155 HD
HETATM   25  H2  UNL     1      28.811   7.058  47.891  1.00  0.00     0.155 HD
ENDBRANCH  22  23
ENDBRANCH  21  22
ENDBRANCH  20  21
ENDBRANCH  19  20
ENDBRANCH  18  19
ENDBRANCH   1  18
TORSDOF 6
ENDMDL
MODEL 8
REMARK VINA RESULT:      -7.5      2.955      6.454
REMARK  6 active torsions:
REMARK  status: ('A' for Active; 'I' for Inactive)
REMARK    1  A    between atoms: N1_1  and  C1_2 
REMARK    2  A    between atoms: C1_2  and  C2_3 
REMARK    3  A    between atoms: C2_3  and  C3_4 
REMARK    4  A    between atoms: C3_4  and  C4_5 
REMARK    5  A    between atoms: C4_5  and  C5_6 
REMARK    6  A    between atoms: C5_6  and  C6_7 
ROOT
HETATM    1  C6  UNL     1      23.449   3.793  49.978  1.00  0.00     0.240 A 
HETATM    2  N2  UNL     1      22.683   2.778  50.348  1.00  0.00     0.011 N 
HETATM    3  C7  UNL     1      24.240   2.793  50.862  1.00  0.00     0.237 A 
HETATM    4  C8  UNL     1      24.544   1.663  51.442  1.00  0.00     0.031 C 
HETATM    5  C9  UNL     1      25.533   0.758  52.129  1.00  0.00     0.001 C 
HETATM    6  C10 UNL     1      26.423   0.093  52.677  1.00  0.00    -0.005 C 
HETATM    7  C11 UNL     1      27.708  -0.293  53.168  1.00  0.00     0.006 C 
HETATM    8  C12 UNL     1      27.328  -0.370  54.750  1.00  0.00     0.006 C 
HETATM    9  C13 UNL     1      25.745  -0.401  54.488  1.00  0.00     0.018 C 
HETATM   10  C14 UNL     1      24.697  -0.960  55.269  1.00  0.00    -0.019 C 
HETATM   11  C15 UNL     1      23.123  -1.145  55.252  1.00  0.00    -0.005 C 
HETATM   12  C16 UNL     1      22.185  -0.836  54.117  1.00  0.00    -0.002 C 
HETATM   13  C17 UNL     1      22.541  -0.374  52.775  1.00  0.00     0.034 C 
HETATM   14  C18 UNL     1      22.469   0.715  51.869  1.00  0.00     0.012 C 
HETATM   15  C19 UNL     1      22.612   1.701  51.164  1.00  0.00     0.174 A 
HETATM   16  C20 UNL     1      21.353   1.846  50.313  1.00  0.00     0.636 A 
HETATM   17  O1  UNL     1      20.319   1.125  50.046  1.00  0.00    -0.404 OA
ENDROOT
BRANCH   1  18
HETATM   18  C5  UNL     1      24.139   4.804  49.635  1.00  0.00     0.052 C 
BRANCH  18  19
HETATM   19  C4  UNL     1      25.006   5.724  49.066  1.00  0.00    -0.019 C 
BRANCH  19  20
HETATM   20  C3  UNL     1      26.163   5.421  48.721  1.00  0.00    -0.002 C 
BRANCH  20  21
HETATM   21  C2  UNL     1      27.647   5.208  48.548  1.00  0.00     0.016 C 
BRANCH  21  22
HETATM   22  C1  UNL     1      28.637   6.308  48.219  1.00  0.00     0.080 C 
BRANCH  22  23
HETATM   23  N1  UNL     1      29.821   6.441  49.055  1.00  0.00    -0.408 N 
HETATM   24  H1  UNL     1      30.195   7.422  49.142  1.00  0.00     0.155 HD
HETATM   25  H2  UNL     1      29.604   5.341  49.128  1.00  0.00     0.155 HD
ENDBRANCH  22  23
ENDBRANCH  21  22
ENDBRANCH  20  21
ENDBRANCH  19  20
ENDBRANCH  18  19
ENDBRANCH   1  18
TORSDOF 6
ENDMDL
MODEL 9
REMARK VINA RESULT:      -7.5      3.526      6.351
REMARK  6 active torsions:
REMARK  status: ('A' for Active; 'I' for Inactive)
REMARK    1  A    between atoms: N1_1  and  C1_2 
REMARK    2  A    between atoms: C1_2  and  C2_3 
REMARK    3  A    between atoms: C2_3  and  C3_4 
REMARK    4  A    between atoms: C3_4  and  C4_5 
REMARK    5  A    between atoms: C4_5  and  C5_6 
REMARK    6  A    between atoms: C5_6  and  C6_7 
ROOT
HETATM    1  C6  UNL     1      26.663   3.271  50.483  1.00  0.00     0.240 A 
HETATM    2  N2  UNL     1      26.520   2.385  51.456  1.00  0.00     0.011 N 
HETATM    3  C7  UNL     1      25.172   3.125  50.887  1.00  0.00     0.237 A 
HETATM    4  C8  UNL     1      24.139   2.837  51.632  1.00  0.00     0.031 C 
HETATM    5  C9  UNL     1      22.678   2.977  51.972  1.00  0.00     0.001 C 
HETATM    6  C10 UNL     1      21.470   3.165  52.168  1.00  0.00    -0.005 C 
HETATM    7  C11 UNL     1      20.149   3.695  52.036  1.00  0.00     0.006 C 
HETATM    8  C12 UNL     1      19.391   2.309  51.641  1.00  0.00     0.006 C 
HETATM    9  C13 UNL     1      20.593   1.372  52.143  1.00  0.00     0.018 C 
HETATM   10  C14 UNL     1      20.573   0.035  52.626  1.00  0.00    -0.019 C 
HETATM   11  C15 UNL     1      21.554  -1.081  53.178  1.00  0.00    -0.005 C 
HETATM   12  C16 UNL     1      23.010  -0.921  53.523  1.00  0.00    -0.002 C 
HETATM   13  C17 UNL     1      23.797   0.313  53.490  1.00  0.00     0.034 C 
HETATM   14  C18 UNL     1      24.860   0.990  52.840  1.00  0.00     0.012 C 
HETATM   15  C19 UNL     1      25.613   1.670  52.161  1.00  0.00     0.174 A 
HETATM   16  C20 UNL     1      27.038   1.390  52.632  1.00  0.00     0.636 A 
HETATM   17  O1  UNL     1      27.590   0.786  53.626  1.00  0.00    -0.404 OA
ENDROOT
BRANCH   1  18
HETATM   18  C5  UNL     1      26.838   4.085  49.522  1.00  0.00     0.052 C 
BRANCH  18  19
HETATM   19  C4  UNL     1      27.302   4.985  48.575  1.00  0.00    -0.019 C 
BRANCH  19  20
HETATM   20  C3  UNL     1      27.062   6.204  48.644  1.00  0.00    -0.002 C 
BRANCH  20  21
HETATM   21  C2  UNL     1      26.723   7.626  49.019  1.00  0.00     0.016 C 
BRANCH  21  22
HETATM   22  C1  UNL     1      27.740   8.661  49.461  1.00  0.00     0.080 C 
BRANCH  22  23
HETATM   23  N1  UNL     1      27.606   9.232  50.793  1.00  0.00    -0.408 N 
HETATM   24  H1  UNL     1      26.986   8.689  51.449  1.00  0.00     0.155 HD
HETATM   25  H2  UNL     1      28.310   9.955  50.297  1.00  0.00     0.155 HD
ENDBRANCH  22  23
ENDBRANCH  21  22
ENDBRANCH  20  21
ENDBRANCH  19  20
ENDBRANCH  18  19
ENDBRANCH   1  18
TORSDOF 6
ENDMDL
