MODEL 1
REMARK VINA RESULT:      -8.4      0.000      0.000
REMARK  5 active torsions:
REMARK  status: ('A' for Active; 'I' for Inactive)
REMARK    1  A    between atoms: C2_2  and  S1_3 
REMARK    2  A    between atoms: S1_3  and  C3_5 
REMARK    3  A    between atoms: C7_9  and  C8_10 
REMARK    4  A    between atoms: C14_16  and  C15_17 
REMARK    5  A    between atoms: C15_17  and  C16_18 
ROOT
HETATM    1  C3  UNL     1      23.615   2.999  49.441  1.00  0.00     0.028 C 
HETATM    2  C4  UNL     1      24.718   3.652  49.020  1.00  0.00    -0.002 C 
HETATM    3  C5  UNL     1      25.971   4.105  49.721  1.00  0.00     0.056 C 
HETATM    4  C6  UNL     1      26.507   2.982  50.536  1.00  0.00    -0.010 C 
HETATM    5  C7  UNL     1      25.925   2.124  51.383  1.00  0.00    -0.023 C 
HETATM    6  C14 UNL     1      24.505   2.240  51.716  1.00  0.00    -0.040 C 
HETATM    7  C21 UNL     1      23.520   2.616  50.870  1.00  0.00     0.029 C 
ENDROOT
BRANCH   6   8
HETATM    8  C15 UNL     1      24.090   2.006  53.122  1.00  0.00     0.104 C 
BRANCH   8   9
HETATM    9  C16 UNL     1      23.135   0.839  53.237  1.00  0.00     0.057 A 
HETATM   10  C17 UNL     1      23.350  -0.517  53.346  1.00  0.00     0.035 A 
HETATM   11  C18 UNL     1      22.156  -1.199  53.426  1.00  0.00     0.035 A 
HETATM   12  C19 UNL     1      21.220  -0.191  53.358  1.00  0.00     0.049 A 
HETATM   13  C20 UNL     1      19.740  -0.425  53.406  1.00  0.00     0.076 C 
HETATM   14  O2  UNL     1      21.810   0.965  53.251  1.00  0.00    -0.320 OA
ENDBRANCH   8   9
ENDBRANCH   6   8
BRANCH   5  15
HETATM   15  C8  UNL     1      26.735   1.127  52.024  1.00  0.00    -0.026 A 
HETATM   16  C9  UNL     1      26.679  -0.235  52.068  1.00  0.00     0.012 A 
HETATM   17  C10 UNL     1      27.456  -1.106  52.785  1.00  0.00     0.001 A 
HETATM   18  C11 UNL     1      28.445  -0.574  53.582  1.00  0.00     0.000 A 
HETATM   19  C12 UNL     1      28.591   0.810  53.609  1.00  0.00     0.001 A 
HETATM   20  C13 UNL     1      27.755   1.633  52.848  1.00  0.00     0.012 A 
ENDBRANCH   5  15
BRANCH   1  21
HETATM   21  S1  UNL     1      22.271   2.585  48.398  1.00  0.00     0.049 S 
HETATM   22  O1  UNL     1      21.234   3.660  48.279  1.00  0.00    -0.253 OA
BRANCH  21  23
HETATM   23  C2  UNL     1      21.531   1.004  48.863  1.00  0.00     0.109 C 
HETATM   24  C1  UNL     1      20.357   1.215  49.793  1.00  0.00     0.019 C 
ENDBRANCH  21  23
ENDBRANCH   1  21
TORSDOF 5
ENDMDL
MODEL 2
REMARK VINA RESULT:      -8.0      2.522      6.988
REMARK  5 active torsions:
REMARK  status: ('A' for Active; 'I' for Inactive)
REMARK    1  A    between atoms: C2_2  and  S1_3 
REMARK    2  A    between atoms: S1_3  and  C3_5 
REMARK    3  A    between atoms: C7_9  and  C8_10 
REMARK    4  A    between atoms: C14_16  and  C15_17 
REMARK    5  A    between atoms: C15_17  and  C16_18 
ROOT
HETATM    1  C3  UNL     1      25.519  -0.456  53.616  1.00  0.00     0.028 C 
HETATM    2  C4  UNL     1      24.893  -1.221  54.533  1.00  0.00    -0.002 C 
HETATM    3  C5  UNL     1      23.566  -1.100  55.235  1.00  0.00     0.056 C 
HETATM    4  C6  UNL     1      22.509  -0.803  54.231  1.00  0.00    -0.010 C 
HETATM    5  C7  UNL     1      22.447   0.069  53.218  1.00  0.00    -0.023 C 
HETATM    6  C14 UNL     1      23.531   1.021  52.975  1.00  0.00    -0.040 C 
HETATM    7  C21 UNL     1      24.850   0.783  53.148  1.00  0.00     0.029 C 
ENDROOT
BRANCH   6   8
HETATM    8  C15 UNL     1      23.176   2.407  52.577  1.00  0.00     0.104 C 
BRANCH   8   9
HETATM    9  C16 UNL     1      23.826   2.798  51.270  1.00  0.00     0.057 A 
HETATM   10  C17 UNL     1      23.357   2.802  49.975  1.00  0.00     0.035 A 
HETATM   11  C18 UNL     1      24.325   3.248  49.102  1.00  0.00     0.035 A 
HETATM   12  C19 UNL     1      25.393   3.509  49.934  1.00  0.00     0.049 A 
HETATM   13  C20 UNL     1      26.715   4.027  49.453  1.00  0.00     0.076 C 
HETATM   14  O2  UNL     1      25.077   3.242  51.169  1.00  0.00    -0.320 OA
ENDBRANCH   8   9
ENDBRANCH   6   8
BRANCH   5  15
HETATM   15  C8  UNL     1      21.260   0.109  52.412  1.00  0.00    -0.026 A 
HETATM   16  C9  UNL     1      21.027   0.436  51.108  1.00  0.00     0.012 A 
HETATM   17  C10 UNL     1      19.833   0.528  50.442  1.00  0.00     0.001 A 
HETATM   18  C11 UNL     1      18.684   0.258  51.151  1.00  0.00     0.000 A 
HETATM   19  C12 UNL     1      18.808  -0.090  52.494  1.00  0.00     0.001 A 
HETATM   20  C13 UNL     1      20.066  -0.160  53.101  1.00  0.00     0.012 A 
ENDBRANCH   5  15
BRANCH   1  21
HETATM   21  S1  UNL     1      27.094  -0.830  52.947  1.00  0.00     0.049 S 
HETATM   22  O1  UNL     1      27.415  -2.293  52.916  1.00  0.00    -0.253 OA
BRANCH  21  23
HETATM   23  C2  UNL     1      28.403   0.113  53.761  1.00  0.00     0.109 C 
HETATM   24  C1  UNL     1      29.730  -0.602  53.645  1.00  0.00     0.019 C 
ENDBRANCH  21  23
ENDBRANCH   1  21
TORSDOF 5
ENDMDL
MODEL 3
REMARK VINA RESULT:      -7.8      2.694      6.792
REMARK  5 active torsions:
REMARK  status: ('A' for Active; 'I' for Inactive)
REMARK    1  A    between atoms: C2_2  and  S1_3 
REMARK    2  A    between atoms: S1_3  and  C3_5 
REMARK    3  A    between atoms: C7_9  and  C8_10 
REMARK    4  A    between atoms: C14_16  and  C15_17 
REMARK    5  A    between atoms: C15_17  and  C16_18 
ROOT
HETATM    1  C3  UNL     1      26.041   0.927  53.738  1.00  0.00     0.028 C 
HETATM    2  C4  UNL     1      25.369  -0.186  54.097  1.00  0.00    -0.002 C 
HETATM    3  C5  UNL     1      23.902  -0.505  54.210  1.00  0.00     0.056 C 
HETATM    4  C6  UNL     1      23.208  -0.047  52.977  1.00  0.00    -0.010 C 
HETATM    5  C7  UNL     1      23.263   1.096  52.282  1.00  0.00    -0.023 C 
HETATM    6  C14 UNL     1      24.070   2.223  52.748  1.00  0.00    -0.040 C 
HETATM    7  C21 UNL     1      25.267   2.137  53.371  1.00  0.00     0.029 C 
ENDROOT
BRANCH   6   8
HETATM    8  C15 UNL     1      23.516   3.593  52.606  1.00  0.00     0.104 C 
BRANCH   8   9
HETATM    9  C16 UNL     1      24.232   4.378  51.531  1.00  0.00     0.057 A 
HETATM   10  C17 UNL     1      24.044   5.653  51.045  1.00  0.00     0.035 A 
HETATM   11  C18 UNL     1      24.953   5.939  50.050  1.00  0.00     0.035 A 
HETATM   12  C19 UNL     1      25.691   4.779  49.963  1.00  0.00     0.049 A 
HETATM   13  C20 UNL     1      26.828   4.584  49.006  1.00  0.00     0.076 C 
HETATM   14  O2  UNL     1      25.255   3.903  50.824  1.00  0.00    -0.320 OA
ENDBRANCH   8   9
ENDBRANCH   6   8
BRANCH   5  15
HETATM   15  C8  UNL     1      22.452   1.229  51.104  1.00  0.00    -0.026 A 
HETATM   16  C9  UNL     1      22.695   1.718  49.854  1.00  0.00     0.012 A 
HETATM   17  C10 UNL     1      21.824   1.885  48.810  1.00  0.00     0.001 A 
HETATM   18  C11 UNL     1      20.511   1.517  49.008  1.00  0.00     0.000 A 
HETATM   19  C12 UNL     1      20.154   1.002  50.251  1.00  0.00     0.001 A 
HETATM   20  C13 UNL     1      21.105   0.865  51.268  1.00  0.00     0.012 A 
ENDBRANCH   5  15
BRANCH   1  21
HETATM   21  S1  UNL     1      27.788   1.036  53.691  1.00  0.00     0.049 S 
HETATM   22  O1  UNL     1      28.314   2.040  52.711  1.00  0.00    -0.253 OA
BRANCH  21  23
HETATM   23  C2  UNL     1      28.549  -0.585  53.443  1.00  0.00     0.109 C 
HETATM   24  C1  UNL     1      30.056  -0.488  53.528  1.00  0.00     0.019 C 
ENDBRANCH  21  23
ENDBRANCH   1  21
TORSDOF 5
ENDMDL
MODEL 4
REMARK VINA RESULT:      -7.6      2.206      5.122
REMARK  5 active torsions:
REMARK  status: ('A' for Active; 'I' for Inactive)
REMARK    1  A    between atoms: C2_2  and  S1_3 
REMARK    2  A    between atoms: S1_3  and  C3_5 
REMARK    3  A    between atoms: C7_9  and  C8_10 
REMARK    4  A    between atoms: C14_16  and  C15_17 
REMARK    5  A    between atoms: C15_17  and  C16_18 
ROOT
HETATM    1  C3  UNL     1      23.091   4.847  50.741  1.00  0.00     0.028 C 
HETATM    2  C4  UNL     1      22.997   4.025  49.675  1.00  0.00    -0.002 C 
HETATM    3  C5  UNL     1      23.427   2.602  49.439  1.00  0.00     0.056 C 
HETATM    4  C6  UNL     1      22.984   1.762  50.583  1.00  0.00    -0.010 C 
HETATM    5  C7  UNL     1      23.059   1.931  51.908  1.00  0.00    -0.023 C 
HETATM    6  C14 UNL     1      23.740   3.091  52.483  1.00  0.00    -0.040 C 
HETATM    7  C21 UNL     1      23.745   4.342  51.972  1.00  0.00     0.029 C 
ENDROOT
BRANCH   6   8
HETATM    8  C15 UNL     1      24.574   2.889  53.695  1.00  0.00     0.104 C 
BRANCH   8   9
HETATM    9  C16 UNL     1      25.820   2.090  53.391  1.00  0.00     0.057 A 
HETATM   10  C17 UNL     1      26.307   1.558  52.217  1.00  0.00     0.035 A 
HETATM   11  C18 UNL     1      27.498   0.900  52.432  1.00  0.00     0.035 A 
HETATM   12  C19 UNL     1      27.700   1.062  53.785  1.00  0.00     0.049 A 
HETATM   13  C20 UNL     1      28.886   0.515  54.521  1.00  0.00     0.076 C 
HETATM   14  O2  UNL     1      26.723   1.747  54.307  1.00  0.00    -0.320 OA
ENDBRANCH   8   9
ENDBRANCH   6   8
BRANCH   5  15
HETATM   15  C8  UNL     1      22.522   0.913  52.768  1.00  0.00    -0.026 A 
HETATM   16  C9  UNL     1      22.981  -0.307  53.170  1.00  0.00     0.012 A 
HETATM   17  C10 UNL     1      22.353  -1.256  53.932  1.00  0.00     0.001 A 
HETATM   18  C11 UNL     1      21.079  -0.977  54.377  1.00  0.00     0.000 A 
HETATM   19  C12 UNL     1      20.514   0.246  54.025  1.00  0.00     0.001 A 
HETATM   20  C13 UNL     1      21.223   1.162  53.240  1.00  0.00     0.012 A 
ENDBRANCH   5  15
BRANCH   1  21
HETATM   21  S1  UNL     1      22.496   6.494  50.754  1.00  0.00     0.049 S 
HETATM   22  O1  UNL     1      21.591   6.829  49.608  1.00  0.00    -0.253 OA
BRANCH  21  23
HETATM   23  C2  UNL     1      23.846   7.688  50.896  1.00  0.00     0.109 C 
HETATM   24  C1  UNL     1      25.082   7.185  50.186  1.00  0.00     0.019 C 
ENDBRANCH  21  23
ENDBRANCH   1  21
TORSDOF 5
ENDMDL
MODEL 5
REMARK VINA RESULT:      -7.4      2.659      5.608
REMARK  5 active torsions:
REMARK  status: ('A' for Active; 'I' for Inactive)
REMARK    1  A    between atoms: C2_2  and  S1_3 
REMARK    2  A    between atoms: S1_3  and  C3_5 
REMARK    3  A    between atoms: C7_9  and  C8_10 
REMARK    4  A    between atoms: C14_16  and  C15_17 
REMARK    5  A    between atoms: C15_17  and  C16_18 
ROOT
HETATM    1  C3  UNL     1      25.920   2.007  52.130  1.00  0.00     0.028 C 
HETATM    2  C4  UNL     1      26.690   2.626  51.211  1.00  0.00    -0.002 C 
HETATM    3  C5  UNL     1      26.457   3.017  49.776  1.00  0.00     0.056 C 
HETATM    4  C6  UNL     1      25.142   3.703  49.665  1.00  0.00    -0.010 C 
HETATM    5  C7  UNL     1      23.928   3.409  50.147  1.00  0.00    -0.023 C 
HETATM    6  C14 UNL     1      23.690   2.171  50.888  1.00  0.00    -0.040 C 
HETATM    7  C21 UNL     1      24.555   1.578  51.741  1.00  0.00     0.029 C 
ENDROOT
BRANCH   6   8
HETATM    8  C15 UNL     1      22.424   1.435  50.642  1.00  0.00     0.104 C 
BRANCH   8   9
HETATM    9  C16 UNL     1      21.811   0.931  51.928  1.00  0.00     0.057 A 
HETATM   10  C17 UNL     1      20.962   1.525  52.836  1.00  0.00     0.035 A 
HETATM   11  C18 UNL     1      20.667   0.665  53.870  1.00  0.00     0.035 A 
HETATM   12  C19 UNL     1      21.378  -0.468  53.541  1.00  0.00     0.049 A 
HETATM   13  C20 UNL     1      21.387  -1.717  54.370  1.00  0.00     0.076 C 
HETATM   14  O2  UNL     1      22.023  -0.286  52.424  1.00  0.00    -0.320 OA
ENDBRANCH   8   9
ENDBRANCH   6   8
BRANCH   5  15
HETATM   15  C8  UNL     1      22.836   4.297  49.859  1.00  0.00    -0.026 A 
HETATM   16  C9  UNL     1      22.184   4.633  48.710  1.00  0.00     0.012 A 
HETATM   17  C10 UNL     1      21.199   5.566  48.519  1.00  0.00     0.001 A 
HETATM   18  C11 UNL     1      20.777   6.283  49.616  1.00  0.00     0.000 A 
HETATM   19  C12 UNL     1      21.377   6.017  50.844  1.00  0.00     0.001 A 
HETATM   20  C13 UNL     1      22.380   5.048  50.955  1.00  0.00     0.012 A 
ENDBRANCH   5  15
BRANCH   1  21
HETATM   21  S1  UNL     1      26.444   1.664  53.766  1.00  0.00     0.049 S 
HETATM   22  O1  UNL     1      27.667   2.419  54.189  1.00  0.00    -0.253 OA
BRANCH  21  23
HETATM   23  C2  UNL     1      26.638  -0.111  54.043  1.00  0.00     0.109 C 
HETATM   24  C1  UNL     1      27.242  -0.780  52.830  1.00  0.00     0.019 C 
ENDBRANCH  21  23
ENDBRANCH   1  21
TORSDOF 5
ENDMDL
MODEL 6
REMARK VINA RESULT:      -7.3      2.048      3.458
REMARK  5 active torsions:
REMARK  status: ('A' for Active; 'I' for Inactive)
REMARK    1  A    between atoms: C2_2  and  S1_3 
REMARK    2  A    between atoms: S1_3  and  C3_5 
REMARK    3  A    between atoms: C7_9  and  C8_10 
REMARK    4  A    between atoms: C14_16  and  C15_17 
REMARK    5  A    between atoms: C15_17  and  C16_18 
ROOT
HETATM    1  C3  UNL     1      23.581   5.105  50.294  1.00  0.00     0.028 C 
HETATM    2  C4  UNL     1      23.656   5.514  51.578  1.00  0.00    -0.002 C 
HETATM    3  C5  UNL     1      23.326   4.848  52.887  1.00  0.00     0.056 C 
HETATM    4  C6  UNL     1      23.929   3.488  52.906  1.00  0.00    -0.010 C 
HETATM    5  C7  UNL     1      23.949   2.497  52.007  1.00  0.00    -0.023 C 
HETATM    6  C14 UNL     1      23.223   2.612  50.742  1.00  0.00    -0.040 C 
HETATM    7  C21 UNL     1      23.073   3.740  50.013  1.00  0.00     0.029 C 
ENDROOT
BRANCH   6   8
HETATM    8  C15 UNL     1      22.510   1.415  50.228  1.00  0.00     0.104 C 
BRANCH   8   9
HETATM    9  C16 UNL     1      21.193   1.200  50.937  1.00  0.00     0.057 A 
HETATM   10  C17 UNL     1      20.818   0.327  51.935  1.00  0.00     0.035 A 
HETATM   11  C18 UNL     1      19.493   0.501  52.268  1.00  0.00     0.035 A 
HETATM   12  C19 UNL     1      19.093   1.515  51.425  1.00  0.00     0.049 A 
HETATM   13  C20 UNL     1      17.704   2.078  51.401  1.00  0.00     0.076 C 
HETATM   14  O2  UNL     1      20.088   1.895  50.675  1.00  0.00    -0.320 OA
ENDBRANCH   8   9
ENDBRANCH   6   8
BRANCH   5  15
HETATM   15  C8  UNL     1      24.636   1.279  52.334  1.00  0.00    -0.026 A 
HETATM   16  C9  UNL     1      24.356   0.248  53.182  1.00  0.00     0.012 A 
HETATM   17  C10 UNL     1      25.123  -0.843  53.495  1.00  0.00     0.001 A 
HETATM   18  C11 UNL     1      26.354  -0.954  52.887  1.00  0.00     0.000 A 
HETATM   19  C12 UNL     1      26.740   0.047  51.999  1.00  0.00     0.001 A 
HETATM   20  C13 UNL     1      25.898   1.132  51.735  1.00  0.00     0.012 A 
ENDBRANCH   5  15
BRANCH   1  21
HETATM   21  S1  UNL     1      24.037   6.100  48.927  1.00  0.00     0.049 S 
HETATM   22  O1  UNL     1      23.333   5.748  47.652  1.00  0.00    -0.253 OA
BRANCH  21  23
HETATM   23  C2  UNL     1      25.830   6.137  48.700  1.00  0.00     0.109 C 
HETATM   24  C1  UNL     1      26.453   4.833  49.143  1.00  0.00     0.019 C 
ENDBRANCH  21  23
ENDBRANCH   1  21
TORSDOF 5
ENDMDL
MODEL 7
REMARK VINA RESULT:      -7.3      2.371      5.191
REMARK  5 active torsions:
REMARK  status: ('A' for Active; 'I' for Inactive)
REMARK    1  A    between atoms: C2_2  and  S1_3 
REMARK    2  A    between atoms: S1_3  and  C3_5 
REMARK    3  A    between atoms: C7_9  and  C8_10 
REMARK    4  A    between atoms: C14_16  and  C15_17 
REMARK    5  A    between atoms: C15_17  and  C16_18 
ROOT
HETATM    1  C3  UNL     1      23.296  -0.291  53.479  1.00  0.00     0.028 C 
HETATM    2  C4  UNL     1      24.638  -0.385  53.584  1.00  0.00    -0.002 C 
HETATM    3  C5  UNL     1      25.767   0.005  52.667  1.00  0.00     0.056 C 
HETATM    4  C6  UNL     1      25.540   1.391  52.177  1.00  0.00    -0.010 C 
HETATM    5  C7  UNL     1      24.460   2.007  51.681  1.00  0.00    -0.023 C 
HETATM    6  C14 UNL     1      23.211   1.278  51.461  1.00  0.00    -0.040 C 
HETATM    7  C21 UNL     1      22.720   0.292  52.244  1.00  0.00     0.029 C 
ENDROOT
BRANCH   6   8
HETATM    8  C15 UNL     1      22.430   1.573  50.233  1.00  0.00     0.104 C 
BRANCH   8   9
HETATM    9  C16 UNL     1      20.951   1.685  50.523  1.00  0.00     0.057 A 
HETATM   10  C17 UNL     1      20.225   2.600  51.252  1.00  0.00     0.035 A 
HETATM   11  C18 UNL     1      18.883   2.291  51.234  1.00  0.00     0.035 A 
HETATM   12  C19 UNL     1      18.840   1.150  50.462  1.00  0.00     0.049 A 
HETATM   13  C20 UNL     1      17.577   0.411  50.138  1.00  0.00     0.076 C 
HETATM   14  O2  UNL     1      20.040   0.828  50.069  1.00  0.00    -0.320 OA
ENDBRANCH   8   9
ENDBRANCH   6   8
BRANCH   5  15
HETATM   15  C8  UNL     1      24.567   3.386  51.293  1.00  0.00    -0.026 A 
HETATM   16  C9  UNL     1      23.875   4.509  51.639  1.00  0.00     0.012 A 
HETATM   17  C10 UNL     1      23.996   5.781  51.146  1.00  0.00     0.001 A 
HETATM   18  C11 UNL     1      24.937   6.000  50.165  1.00  0.00     0.000 A 
HETATM   19  C12 UNL     1      25.702   4.918  49.737  1.00  0.00     0.001 A 
HETATM   20  C13 UNL     1      25.516   3.647  50.291  1.00  0.00     0.012 A 
ENDBRANCH   5  15
BRANCH   1  21
HETATM   21  S1  UNL     1      22.183  -0.833  54.718  1.00  0.00     0.049 S 
HETATM   22  O1  UNL     1      22.806  -1.711  55.760  1.00  0.00    -0.253 OA
BRANCH  21  23
HETATM   23  C2  UNL     1      20.714  -1.603  54.001  1.00  0.00     0.109 C 
HETATM   24  C1  UNL     1      19.702  -0.554  53.598  1.00  0.00     0.019 C 
ENDBRANCH  21  23
ENDBRANCH   1  21
TORSDOF 5
ENDMDL
MODEL 8
REMARK VINA RESULT:      -7.2      2.052      4.753
REMARK  5 active torsions:
REMARK  status: ('A' for Active; 'I' for Inactive)
REMARK    1  A    between atoms: C2_2  and  S1_3 
REMARK    2  A    between atoms: S1_3  and  C3_5 
REMARK    3  A    between atoms: C7_9  and  C8_10 
REMARK    4  A    between atoms: C14_16  and  C15_17 
REMARK    5  A    between atoms: C15_17  and  C16_18 
ROOT
HETATM    1  C3  UNL     1      22.330   1.890  52.333  1.00  0.00     0.028 C 
HETATM    2  C4  UNL     1      22.216   0.797  53.116  1.00  0.00    -0.002 C 
HETATM    3  C5  UNL     1      23.102  -0.399  53.341  1.00  0.00     0.056 C 
HETATM    4  C6  UNL     1      24.497   0.063  53.570  1.00  0.00    -0.010 C 
HETATM    5  C7  UNL     1      25.268   0.952  52.932  1.00  0.00    -0.023 C 
HETATM    6  C14 UNL     1      24.800   1.625  51.721  1.00  0.00    -0.040 C 
HETATM    7  C21 UNL     1      23.532   2.026  51.476  1.00  0.00     0.029 C 
ENDROOT
BRANCH   6   8
HETATM    8  C15 UNL     1      25.765   1.831  50.611  1.00  0.00     0.104 C 
BRANCH   8   9
HETATM    9  C16 UNL     1      25.851   3.284  50.206  1.00  0.00     0.057 A 
HETATM   10  C17 UNL     1      26.583   3.925  49.230  1.00  0.00     0.035 A 
HETATM   11  C18 UNL     1      26.329   5.279  49.234  1.00  0.00     0.035 A 
HETATM   12  C19 UNL     1      25.415   5.418  50.256  1.00  0.00     0.049 A 
HETATM   13  C20 UNL     1      24.817   6.731  50.665  1.00  0.00     0.076 C 
HETATM   14  O2  UNL     1      25.160   4.259  50.793  1.00  0.00    -0.320 OA
ENDBRANCH   8   9
ENDBRANCH   6   8
BRANCH   5  15
HETATM   15  C8  UNL     1      26.601   1.183  53.414  1.00  0.00    -0.026 A 
HETATM   16  C9  UNL     1      27.410   2.281  53.435  1.00  0.00     0.012 A 
HETATM   17  C10 UNL     1      28.714   2.384  53.842  1.00  0.00     0.001 A 
HETATM   18  C11 UNL     1      29.330   1.242  54.305  1.00  0.00     0.000 A 
HETATM   19  C12 UNL     1      28.592   0.061  54.329  1.00  0.00     0.001 A 
HETATM   20  C13 UNL     1      27.264   0.040  53.893  1.00  0.00     0.012 A 
ENDBRANCH   5  15
BRANCH   1  21
HETATM   21  S1  UNL     1      21.129   3.162  52.256  1.00  0.00     0.049 S 
HETATM   22  O1  UNL     1      19.972   2.858  51.354  1.00  0.00    -0.253 OA
BRANCH  21  23
HETATM   23  C2  UNL     1      21.875   4.758  51.854  1.00  0.00     0.109 C 
HETATM   24  C1  UNL     1      21.510   5.181  50.449  1.00  0.00     0.019 C 
ENDBRANCH  21  23
ENDBRANCH   1  21
TORSDOF 5
ENDMDL
MODEL 9
REMARK VINA RESULT:      -6.9      2.445      4.880
REMARK  5 active torsions:
REMARK  status: ('A' for Active; 'I' for Inactive)
REMARK    1  A    between atoms: C2_2  and  S1_3 
REMARK    2  A    between atoms: S1_3  and  C3_5 
REMARK    3  A    between atoms: C7_9  and  C8_10 
REMARK    4  A    between atoms: C14_16  and  C15_17 
REMARK    5  A    between atoms: C15_17  and  C16_18 
ROOT
HETATM    1  C3  UNL     1      22.979   3.705  48.732  1.00  0.00     0.028 C 
HETATM    2  C4  UNL     1      22.628   4.994  48.916  1.00  0.00    -0.002 C 
HETATM    3  C5  UNL     1      23.296   6.147  49.616  1.00  0.00     0.056 C 
HETATM    4  C6  UNL     1      24.719   6.219  49.190  1.00  0.00    -0.010 C 
HETATM    5  C7  UNL     1      25.672   5.287  49.068  1.00  0.00    -0.023 C 
HETATM    6  C14 UNL     1      25.424   3.899  49.459  1.00  0.00    -0.040 C 
HETATM    7  C21 UNL     1      24.261   3.228  49.307  1.00  0.00     0.029 C 
ENDROOT
BRANCH   6   8
HETATM    8  C15 UNL     1      26.505   3.160  50.159  1.00  0.00     0.104 C 
BRANCH   8   9
HETATM    9  C16 UNL     1      25.971   2.354  51.320  1.00  0.00     0.057 A 
HETATM   10  C17 UNL     1      25.136   2.688  52.364  1.00  0.00     0.035 A 
HETATM   11  C18 UNL     1      24.925   1.606  53.191  1.00  0.00     0.035 A 
HETATM   12  C19 UNL     1      25.671   0.613  52.595  1.00  0.00     0.049 A 
HETATM   13  C20 UNL     1      25.772  -0.785  53.127  1.00  0.00     0.076 C 
HETATM   14  O2  UNL     1      26.259   1.071  51.526  1.00  0.00    -0.320 OA
ENDBRANCH   8   9
ENDBRANCH   6   8
BRANCH   5  15
HETATM   15  C8  UNL     1      26.976   5.685  48.617  1.00  0.00    -0.026 A 
HETATM   16  C9  UNL     1      28.169   5.032  48.515  1.00  0.00     0.012 A 
HETATM   17  C10 UNL     1      29.393   5.525  48.149  1.00  0.00     0.001 A 
HETATM   18  C11 UNL     1      29.473   6.862  47.828  1.00  0.00     0.000 A 
HETATM   19  C12 UNL     1      28.310   7.625  47.897  1.00  0.00     0.001 A 
HETATM   20  C13 UNL     1      27.097   7.045  48.282  1.00  0.00     0.012 A 
ENDBRANCH   5  15
BRANCH   1  21
HETATM   21  S1  UNL     1      22.000   2.544  47.859  1.00  0.00     0.049 S 
HETATM   22  O1  UNL     1      21.309   3.108  46.655  1.00  0.00    -0.253 OA
BRANCH  21  23
HETATM   23  C2  UNL     1      20.833   1.703  48.954  1.00  0.00     0.109 C 
HETATM   24  C1  UNL     1      21.566   0.855  49.968  1.00  0.00     0.019 C 
ENDBRANCH  21  23
ENDBRANCH   1  21
TORSDOF 5
ENDMDL
