MODEL 1
REMARK VINA RESULT:      -9.0      0.000      0.000
REMARK  3 active torsions:
REMARK  status: ('A' for Active; 'I' for Inactive)
REMARK    1  A    between atoms: C2_2  and  C3_3 
REMARK       I    between atoms: C3_3  and  N1_5 
REMARK    2  A    between atoms: N1_5  and  C4_6 
REMARK    3  A    between atoms: C21_28  and  C22_29 
ROOT
HETATM    1  C4  UNL     1      24.593   1.306  52.188  1.00  0.00     0.082 A 
HETATM    2  C5  UNL     1      23.394   1.588  52.023  1.00  0.00     0.043 A 
HETATM    3  C6  UNL     1      24.837   2.091  51.770  1.00  0.00     0.547 A 
HETATM    4  N2  UNL     1      25.049   3.322  51.405  1.00  0.00    -0.141 NA
HETATM    5  C7  UNL     1      24.055   4.320  51.225  1.00  0.00     0.540 C 
HETATM    6  C8  UNL     1      24.092   5.631  50.918  1.00  0.00     0.046 C 
HETATM    7  C9  UNL     1      22.894   6.499  50.798  1.00  0.00     0.155 C 
HETATM    8  N3  UNL     1      21.666   5.812  51.102  1.00  0.00    -0.297 NA
HETATM    9  C10 UNL     1      20.986   5.138  50.322  1.00  0.00     0.160 C 
HETATM   10  C11 UNL     1      19.859   4.285  49.880  1.00  0.00     0.138 C 
HETATM   11  N4  UNL     1      18.639   4.422  49.659  1.00  0.00    -0.263 NA
HETATM   12  C12 UNL     1      17.908   3.441  50.430  1.00  0.00     0.145 C 
HETATM   13  C13 UNL     1      18.269   3.495  51.906  1.00  0.00     0.136 C 
HETATM   14  N5  UNL     1      19.656   3.050  52.079  1.00  0.00    -0.422 NA
HETATM   15  C14 UNL     1      20.013   1.863  52.475  1.00  0.00     0.252 C 
HETATM   16  C15 UNL     1      20.070   0.434  52.948  1.00  0.00     0.062 C 
HETATM   17  C16 UNL     1      21.289  -0.161  53.081  1.00  0.00    -0.017 C 
HETATM   18  C17 UNL     1      22.725  -0.619  53.152  1.00  0.00    -0.019 C 
HETATM   19  C18 UNL     1      23.689   0.194  52.735  1.00  0.00     0.061 A 
HETATM   20  C19 UNL     1      18.697   2.216  49.898  1.00  0.00     0.153 C 
HETATM   21  N6  UNL     1      19.897   2.917  49.489  1.00  0.00    -0.359 N 
HETATM   22  C20 UNL     1      21.118   2.819  48.783  1.00  0.00     0.161 C 
HETATM   23  C21 UNL     1      22.282   2.407  49.552  1.00  0.00    -0.037 C 
HETATM   24  C23 UNL     1      22.749   2.024  50.751  1.00  0.00    -0.005 C 
ENDROOT
BRANCH   1  25
HETATM   25  N1  UNL     1      25.518   0.397  52.688  1.00  0.00    -0.345 N 
HETATM   26  C3  UNL     1      26.264   0.841  53.854  1.00  0.00     0.241 C 
HETATM   27  O1  UNL     1      26.309   1.879  54.600  1.00  0.00    -0.269 OA
HETATM   28  H4  UNL     1      26.138  -0.334  52.946  1.00  0.00     0.163 HD
BRANCH  26  29
HETATM   29  C2  UNL     1      27.335   0.238  54.686  1.00  0.00     0.064 C 
HETATM   30  C1  UNL     1      28.644   0.473  54.522  1.00  0.00     0.017 C 
ENDBRANCH  26  29
ENDBRANCH   1  25
BRANCH  23  31
HETATM   31  C22 UNL     1      23.300   2.542  48.362  1.00  0.00     0.258 C 
HETATM   32  F1  UNL     1      22.820   1.802  47.351  1.00  0.00    -0.251 F 
ENDBRANCH  23  31
TORSDOF 3
ENDMDL
MODEL 2
REMARK VINA RESULT:      -8.7      2.474      6.568
REMARK  3 active torsions:
REMARK  status: ('A' for Active; 'I' for Inactive)
REMARK    1  A    between atoms: C2_2  and  C3_3 
REMARK       I    between atoms: C3_3  and  N1_5 
REMARK    2  A    between atoms: N1_5  and  C4_6 
REMARK    3  A    between atoms: C21_28  and  C22_29 
ROOT
HETATM    1  C4  UNL     1      21.320   1.868  50.925  1.00  0.00     0.082 A 
HETATM    2  C5  UNL     1      22.325   1.449  51.524  1.00  0.00     0.043 A 
HETATM    3  C6  UNL     1      21.826   2.537  50.540  1.00  0.00     0.547 A 
HETATM    4  N2  UNL     1      22.678   3.260  49.874  1.00  0.00    -0.141 NA
HETATM    5  C7  UNL     1      24.091   3.144  49.928  1.00  0.00     0.540 C 
HETATM    6  C8  UNL     1      25.105   3.749  49.279  1.00  0.00     0.046 C 
HETATM    7  C9  UNL     1      26.541   3.444  49.495  1.00  0.00     0.155 C 
HETATM    8  N3  UNL     1      26.757   2.379  50.441  1.00  0.00    -0.297 NA
HETATM    9  C10 UNL     1      26.819   2.486  51.669  1.00  0.00     0.160 C 
HETATM   10  C11 UNL     1      26.975   2.038  53.072  1.00  0.00     0.138 C 
HETATM   11  N4  UNL     1      27.893   1.616  53.802  1.00  0.00    -0.263 NA
HETATM   12  C12 UNL     1      27.491   0.356  54.385  1.00  0.00     0.145 C 
HETATM   13  C13 UNL     1      27.045  -0.642  53.328  1.00  0.00     0.136 C 
HETATM   14  N5  UNL     1      25.797  -0.173  52.717  1.00  0.00    -0.422 NA
HETATM   15  C14 UNL     1      24.610  -0.613  53.019  1.00  0.00     0.252 C 
HETATM   16  C15 UNL     1      23.420  -1.335  53.595  1.00  0.00     0.062 C 
HETATM   17  C16 UNL     1      22.173  -0.959  53.193  1.00  0.00    -0.017 C 
HETATM   18  C17 UNL     1      20.900  -0.384  52.619  1.00  0.00    -0.019 C 
HETATM   19  C18 UNL     1      20.967   0.666  51.810  1.00  0.00     0.061 A 
HETATM   20  C19 UNL     1      26.160   0.886  54.980  1.00  0.00     0.153 C 
HETATM   21  N6  UNL     1      25.991   2.026  54.101  1.00  0.00    -0.359 N 
HETATM   22  C20 UNL     1      25.261   3.212  53.862  1.00  0.00     0.161 C 
HETATM   23  C21 UNL     1      24.076   3.088  53.026  1.00  0.00    -0.037 C 
HETATM   24  C23 UNL     1      23.283   2.259  52.329  1.00  0.00    -0.005 C 
ENDROOT
BRANCH   1  25
HETATM   25  N1  UNL     1      19.961   1.711  50.677  1.00  0.00    -0.345 N 
HETATM   26  C3  UNL     1      19.088   2.648  51.365  1.00  0.00     0.241 C 
HETATM   27  O1  UNL     1      19.218   3.636  52.167  1.00  0.00    -0.269 OA
HETATM   28  H4  UNL     1      19.027   1.498  50.419  1.00  0.00     0.163 HD
BRANCH  26  29
HETATM   29  C2  UNL     1      17.617   2.839  51.420  1.00  0.00     0.064 C 
HETATM   30  C1  UNL     1      17.013   4.024  51.587  1.00  0.00     0.017 C 
ENDBRANCH  26  29
ENDBRANCH   1  25
BRANCH  23  31
HETATM   31  C22 UNL     1      23.734   4.622  53.029  1.00  0.00     0.258 C 
HETATM   32  F1  UNL     1      22.410   4.728  52.837  1.00  0.00    -0.251 F 
ENDBRANCH  23  31
TORSDOF 3
ENDMDL
MODEL 3
REMARK VINA RESULT:      -8.5      2.430      4.651
REMARK  3 active torsions:
REMARK  status: ('A' for Active; 'I' for Inactive)
REMARK    1  A    between atoms: C2_2  and  C3_3 
REMARK       I    between atoms: C3_3  and  N1_5 
REMARK    2  A    between atoms: N1_5  and  C4_6 
REMARK    3  A    between atoms: C21_28  and  C22_29 
ROOT
HETATM    1  C4  UNL     1      24.729   3.873  49.594  1.00  0.00     0.082 A 
HETATM    2  C5  UNL     1      24.209   3.086  50.404  1.00  0.00     0.043 A 
HETATM    3  C6  UNL     1      23.894   4.184  49.357  1.00  0.00     0.547 A 
HETATM    4  N2  UNL     1      22.706   4.712  49.295  1.00  0.00    -0.141 NA
HETATM    5  C7  UNL     1      21.611   4.398  50.142  1.00  0.00     0.540 C 
HETATM    6  C8  UNL     1      20.357   4.875  50.263  1.00  0.00     0.046 C 
HETATM    7  C9  UNL     1      19.367   4.391  51.258  1.00  0.00     0.155 C 
HETATM    8  N3  UNL     1      19.898   3.383  52.139  1.00  0.00    -0.297 NA
HETATM    9  C10 UNL     1      19.950   2.169  51.923  1.00  0.00     0.160 C 
HETATM   10  C11 UNL     1      20.251   0.745  52.197  1.00  0.00     0.138 C 
HETATM   11  N4  UNL     1      19.820  -0.155  52.946  1.00  0.00    -0.263 NA
HETATM   12  C12 UNL     1      20.921  -0.702  53.707  1.00  0.00     0.145 C 
HETATM   13  C13 UNL     1      21.698   0.380  54.439  1.00  0.00     0.136 C 
HETATM   14  N5  UNL     1      22.391   1.224  53.460  1.00  0.00    -0.422 NA
HETATM   15  C14 UNL     1      23.652   1.126  53.153  1.00  0.00     0.252 C 
HETATM   16  C15 UNL     1      25.106   0.749  53.043  1.00  0.00     0.062 C 
HETATM   17  C16 UNL     1      25.876   1.383  52.115  1.00  0.00    -0.017 C 
HETATM   18  C17 UNL     1      26.535   2.199  51.029  1.00  0.00    -0.019 C 
HETATM   19  C18 UNL     1      25.797   3.021  50.293  1.00  0.00     0.061 A 
HETATM   20  C19 UNL     1      21.806  -1.026  52.475  1.00  0.00     0.153 C 
HETATM   21  N6  UNL     1      21.204  -0.089  51.548  1.00  0.00    -0.359 N 
HETATM   22  C20 UNL     1      21.124   0.323  50.198  1.00  0.00     0.161 C 
HETATM   23  C21 UNL     1      22.060   1.354  49.776  1.00  0.00    -0.037 C 
HETATM   24  C23 UNL     1      23.079   2.151  50.135  1.00  0.00    -0.005 C 
ENDROOT
BRANCH   1  25
HETATM   25  N1  UNL     1      25.904   4.356  49.031  1.00  0.00    -0.345 N 
HETATM   26  C3  UNL     1      26.162   5.771  49.239  1.00  0.00     0.241 C 
HETATM   27  O1  UNL     1      25.594   6.750  49.834  1.00  0.00    -0.269 OA
HETATM   28  H4  UNL     1      26.764   4.575  48.585  1.00  0.00     0.163 HD
BRANCH  26  29
HETATM   29  C2  UNL     1      27.242   6.698  48.817  1.00  0.00     0.064 C 
HETATM   30  C1  UNL     1      28.352   6.321  48.169  1.00  0.00     0.017 C 
ENDBRANCH  26  29
ENDBRANCH   1  25
BRANCH  23  31
HETATM   31  C22 UNL     1      21.501   1.471  48.312  1.00  0.00     0.258 C 
HETATM   32  F1  UNL     1      22.547   1.729  47.513  1.00  0.00    -0.251 F 
ENDBRANCH  23  31
TORSDOF 3
ENDMDL
MODEL 4
REMARK VINA RESULT:      -8.0      3.601      5.746
REMARK  3 active torsions:
REMARK  status: ('A' for Active; 'I' for Inactive)
REMARK    1  A    between atoms: C2_2  and  C3_3 
REMARK       I    between atoms: C3_3  and  N1_5 
REMARK    2  A    between atoms: N1_5  and  C4_6 
REMARK    3  A    between atoms: C21_28  and  C22_29 
ROOT
HETATM    1  C4  UNL     1      26.044   6.823  48.284  1.00  0.00     0.082 A 
HETATM    2  C5  UNL     1      25.403   5.942  48.882  1.00  0.00     0.043 A 
HETATM    3  C6  UNL     1      25.285   7.345  48.236  1.00  0.00     0.547 A 
HETATM    4  N2  UNL     1      24.236   8.083  48.455  1.00  0.00    -0.141 NA
HETATM    5  C7  UNL     1      23.137   7.741  49.285  1.00  0.00     0.540 C 
HETATM    6  C8  UNL     1      22.020   8.389  49.671  1.00  0.00     0.046 C 
HETATM    7  C9  UNL     1      20.994   7.823  50.582  1.00  0.00     0.155 C 
HETATM    8  N3  UNL     1      21.335   6.513  51.073  1.00  0.00    -0.297 NA
HETATM    9  C10 UNL     1      21.116   5.436  50.512  1.00  0.00     0.160 C 
HETATM   10  C11 UNL     1      21.118   3.966  50.330  1.00  0.00     0.138 C 
HETATM   11  N4  UNL     1      20.538   2.981  50.828  1.00  0.00    -0.263 NA
HETATM   12  C12 UNL     1      21.529   2.028  51.277  1.00  0.00     0.145 C 
HETATM   13  C13 UNL     1      22.550   2.667  52.205  1.00  0.00     0.136 C 
HETATM   14  N5  UNL     1      23.364   3.621  51.443  1.00  0.00    -0.422 NA
HETATM   15  C14 UNL     1      24.560   3.382  50.990  1.00  0.00     0.252 C 
HETATM   16  C15 UNL     1      25.894   2.786  50.624  1.00  0.00     0.062 C 
HETATM   17  C16 UNL     1      26.741   3.514  49.843  1.00  0.00    -0.017 C 
HETATM   18  C17 UNL     1      27.511   4.480  48.976  1.00  0.00    -0.019 C 
HETATM   19  C18 UNL     1      26.934   5.612  48.591  1.00  0.00     0.061 A 
HETATM   20  C19 UNL     1      22.270   1.932  49.918  1.00  0.00     0.153 C 
HETATM   21  N6  UNL     1      21.842   3.204  49.370  1.00  0.00    -0.359 N 
HETATM   22  C20 UNL     1      21.793   4.014  48.214  1.00  0.00     0.161 C 
HETATM   23  C21 UNL     1      22.909   4.926  48.011  1.00  0.00    -0.037 C 
HETATM   24  C23 UNL     1      24.089   5.367  48.476  1.00  0.00    -0.005 C 
ENDROOT
BRANCH   1  25
HETATM   25  N1  UNL     1      27.269   7.222  47.763  1.00  0.00    -0.345 N 
HETATM   26  C3  UNL     1      28.018   8.167  48.577  1.00  0.00     0.241 C 
HETATM   27  O1  UNL     1      27.869   8.760  49.700  1.00  0.00    -0.269 OA
HETATM   28  H4  UNL     1      28.117   7.425  47.288  1.00  0.00     0.163 HD
BRANCH  26  29
HETATM   29  C2  UNL     1      29.318   8.863  48.418  1.00  0.00     0.064 C 
HETATM   30  C1  UNL     1      30.423   8.574  49.120  1.00  0.00     0.017 C 
ENDBRANCH  26  29
ENDBRANCH   1  25
BRANCH  23  31
HETATM   31  C22 UNL     1      22.325   5.588  46.711  1.00  0.00     0.258 C 
HETATM   32  F1  UNL     1      21.179   6.192  47.060  1.00  0.00    -0.251 F 
ENDBRANCH  23  31
TORSDOF 3
ENDMDL
MODEL 5
REMARK VINA RESULT:      -8.0      9.130     11.770
REMARK  3 active torsions:
REMARK  status: ('A' for Active; 'I' for Inactive)
REMARK    1  A    between atoms: C2_2  and  C3_3 
REMARK       I    between atoms: C3_3  and  N1_5 
REMARK    2  A    between atoms: N1_5  and  C4_6 
REMARK    3  A    between atoms: C21_28  and  C22_29 
ROOT
HETATM    1  C4  UNL     1      31.899   5.084  47.477  1.00  0.00     0.082 A 
HETATM    2  C5  UNL     1      31.710   6.112  46.804  1.00  0.00     0.043 A 
HETATM    3  C6  UNL     1      31.138   5.263  47.967  1.00  0.00     0.547 A 
HETATM    4  N2  UNL     1      29.932   5.478  48.405  1.00  0.00    -0.141 NA
HETATM    5  C7  UNL     1      29.020   6.438  47.895  1.00  0.00     0.540 C 
HETATM    6  C8  UNL     1      27.740   6.753  48.175  1.00  0.00     0.046 C 
HETATM    7  C9  UNL     1      26.964   7.811  47.481  1.00  0.00     0.155 C 
HETATM    8  N3  UNL     1      27.701   8.448  46.420  1.00  0.00    -0.297 NA
HETATM    9  C10 UNL     1      28.482   9.397  46.531  1.00  0.00     0.160 C 
HETATM   10  C11 UNL     1      29.440  10.436  46.089  1.00  0.00     0.138 C 
HETATM   11  N4  UNL     1      29.402  11.501  45.440  1.00  0.00    -0.263 NA
HETATM   12  C12 UNL     1      30.359  11.428  44.359  1.00  0.00     0.145 C 
HETATM   13  C13 UNL     1      30.156  10.187  43.504  1.00  0.00     0.136 C 
HETATM   14  N5  UNL     1      30.493   8.997  44.294  1.00  0.00    -0.422 NA
HETATM   15  C14 UNL     1      31.617   8.346  44.214  1.00  0.00     0.252 C 
HETATM   16  C15 UNL     1      32.994   7.840  43.871  1.00  0.00     0.062 C 
HETATM   17  C16 UNL     1      33.495   6.786  44.575  1.00  0.00    -0.017 C 
HETATM   18  C17 UNL     1      33.851   5.626  45.473  1.00  0.00    -0.019 C 
HETATM   19  C18 UNL     1      33.017   5.274  46.444  1.00  0.00     0.061 A 
HETATM   20  C19 UNL     1      31.571  11.067  45.256  1.00  0.00     0.153 C 
HETATM   21  N6  UNL     1      30.831  10.523  46.378  1.00  0.00    -0.359 N 
HETATM   22  C20 UNL     1      30.910  10.077  47.716  1.00  0.00     0.161 C 
HETATM   23  C21 UNL     1      31.179   8.660  47.914  1.00  0.00    -0.037 C 
HETATM   24  C23 UNL     1      31.427   7.479  47.327  1.00  0.00    -0.005 C 
ENDROOT
BRANCH   1  25
HETATM   25  N1  UNL     1      32.700   3.971  47.705  1.00  0.00    -0.345 N 
HETATM   26  C3  UNL     1      32.253   2.739  47.078  1.00  0.00     0.241 C 
HETATM   27  O1  UNL     1      31.288   2.366  46.326  1.00  0.00    -0.269 OA
HETATM   28  H4  UNL     1      33.351   3.259  47.941  1.00  0.00     0.163 HD
BRANCH  26  29
HETATM   29  C2  UNL     1      32.759   1.344  47.063  1.00  0.00     0.064 C 
HETATM   30  C1  UNL     1      32.030   0.277  46.708  1.00  0.00     0.017 C 
ENDBRANCH  26  29
ENDBRANCH   1  25
BRANCH  23  31
HETATM   31  C22 UNL     1      31.081   8.710  49.482  1.00  0.00     0.258 C 
HETATM   32  F1  UNL     1      31.895   7.754  49.955  1.00  0.00    -0.251 F 
ENDBRANCH  23  31
TORSDOF 3
ENDMDL
MODEL 6
REMARK VINA RESULT:      -7.9      3.056      6.469
REMARK  3 active torsions:
REMARK  status: ('A' for Active; 'I' for Inactive)
REMARK    1  A    between atoms: C2_2  and  C3_3 
REMARK       I    between atoms: C3_3  and  N1_5 
REMARK    2  A    between atoms: N1_5  and  C4_6 
REMARK    3  A    between atoms: C21_28  and  C22_29 
ROOT
HETATM    1  C4  UNL     1      18.878   0.175  51.567  1.00  0.00     0.082 A 
HETATM    2  C5  UNL     1      20.068   0.468  51.773  1.00  0.00     0.043 A 
HETATM    3  C6  UNL     1      18.875   0.712  50.817  1.00  0.00     0.547 A 
HETATM    4  N2  UNL     1      19.064   1.281  49.662  1.00  0.00    -0.141 NA
HETATM    5  C7  UNL     1      20.312   1.705  49.137  1.00  0.00     0.540 C 
HETATM    6  C8  UNL     1      20.699   2.243  47.964  1.00  0.00     0.046 C 
HETATM    7  C9  UNL     1      22.100   2.598  47.625  1.00  0.00     0.155 C 
HETATM    8  N3  UNL     1      23.037   2.256  48.664  1.00  0.00    -0.297 NA
HETATM    9  C10 UNL     1      23.331   2.943  49.646  1.00  0.00     0.160 C 
HETATM   10  C11 UNL     1      24.020   3.296  50.908  1.00  0.00     0.138 C 
HETATM   11  N4  UNL     1      25.172   3.618  51.264  1.00  0.00    -0.263 NA
HETATM   12  C12 UNL     1      25.604   2.732  52.321  1.00  0.00     0.145 C 
HETATM   13  C13 UNL     1      25.476   1.270  51.924  1.00  0.00     0.136 C 
HETATM   14  N5  UNL     1      24.056   0.927  51.797  1.00  0.00    -0.422 NA
HETATM   15  C14 UNL     1      23.359   0.299  52.698  1.00  0.00     0.252 C 
HETATM   16  C15 UNL     1      22.865  -0.429  53.921  1.00  0.00     0.062 C 
HETATM   17  C16 UNL     1      21.542  -0.749  53.999  1.00  0.00    -0.017 C 
HETATM   18  C17 UNL     1      20.058  -0.997  53.881  1.00  0.00    -0.019 C 
HETATM   19  C18 UNL     1      19.396  -0.504  52.841  1.00  0.00     0.061 A 
HETATM   20  C19 UNL     1      24.374   2.978  53.234  1.00  0.00     0.153 C 
HETATM   21  N6  UNL     1      23.454   3.428  52.208  1.00  0.00    -0.359 N 
HETATM   22  C20 UNL     1      22.198   4.022  51.952  1.00  0.00     0.161 C 
HETATM   23  C21 UNL     1      21.071   3.115  51.790  1.00  0.00    -0.037 C 
HETATM   24  C23 UNL     1      20.657   1.838  51.795  1.00  0.00    -0.005 C 
ENDROOT
BRANCH   1  25
HETATM   25  N1  UNL     1      17.765  -0.542  51.989  1.00  0.00    -0.345 N 
HETATM   26  C3  UNL     1      16.543   0.230  52.139  1.00  0.00     0.241 C 
HETATM   27  O1  UNL     1      16.175   1.444  51.974  1.00  0.00    -0.269 OA
HETATM   28  H4  UNL     1      17.051  -1.162  52.290  1.00  0.00     0.163 HD
BRANCH  26  29
HETATM   29  C2  UNL     1      15.161  -0.095  52.572  1.00  0.00     0.064 C 
HETATM   30  C1  UNL     1      14.073   0.043  51.802  1.00  0.00     0.017 C 
ENDBRANCH  26  29
ENDBRANCH   1  25
BRANCH  23  31
HETATM   31  C22 UNL     1      20.022   4.239  51.465  1.00  0.00     0.258 C 
HETATM   32  F1  UNL     1      18.825   3.785  51.866  1.00  0.00    -0.251 F 
ENDBRANCH  23  31
TORSDOF 3
ENDMDL
MODEL 7
REMARK VINA RESULT:      -7.8      2.516      5.232
REMARK  3 active torsions:
REMARK  status: ('A' for Active; 'I' for Inactive)
REMARK    1  A    between atoms: C2_2  and  C3_3 
REMARK       I    between atoms: C3_3  and  N1_5 
REMARK    2  A    between atoms: N1_5  and  C4_6 
REMARK    3  A    between atoms: C21_28  and  C22_29 
ROOT
HETATM    1  C4  UNL     1      22.379   0.857  51.381  1.00  0.00     0.082 A 
HETATM    2  C5  UNL     1      23.109   1.793  51.013  1.00  0.00     0.043 A 
HETATM    3  C6  UNL     1      21.706   1.164  50.830  1.00  0.00     0.547 A 
HETATM    4  N2  UNL     1      20.943   1.534  49.843  1.00  0.00    -0.141 NA
HETATM    5  C7  UNL     1      21.279   2.484  48.843  1.00  0.00     0.540 C 
HETATM    6  C8  UNL     1      20.656   2.936  47.737  1.00  0.00     0.046 C 
HETATM    7  C9  UNL     1      21.222   3.946  46.808  1.00  0.00     0.155 C 
HETATM    8  N3  UNL     1      22.550   4.367  47.173  1.00  0.00    -0.297 NA
HETATM    9  C10 UNL     1      22.847   5.257  47.976  1.00  0.00     0.160 C 
HETATM   10  C11 UNL     1      23.731   6.144  48.766  1.00  0.00     0.138 C 
HETATM   11  N4  UNL     1      24.493   7.108  48.549  1.00  0.00    -0.263 NA
HETATM   12  C12 UNL     1      25.798   6.808  49.093  1.00  0.00     0.145 C 
HETATM   13  C13 UNL     1      26.335   5.481  48.582  1.00  0.00     0.136 C 
HETATM   14  N5  UNL     1      25.519   4.390  49.125  1.00  0.00    -0.422 NA
HETATM   15  C14 UNL     1      25.851   3.645  50.139  1.00  0.00     0.252 C 
HETATM   16  C15 UNL     1      26.533   2.987  51.310  1.00  0.00     0.062 C 
HETATM   17  C16 UNL     1      25.870   2.005  51.983  1.00  0.00    -0.017 C 
HETATM   18  C17 UNL     1      24.963   0.957  52.580  1.00  0.00    -0.019 C 
HETATM   19  C18 UNL     1      23.733   0.811  52.101  1.00  0.00     0.061 A 
HETATM   20  C19 UNL     1      25.292   6.480  50.522  1.00  0.00     0.153 C 
HETATM   21  N6  UNL     1      23.922   6.158  50.176  1.00  0.00    -0.359 N 
HETATM   22  C20 UNL     1      22.627   5.898  50.678  1.00  0.00     0.161 C 
HETATM   23  C21 UNL     1      22.304   4.506  50.954  1.00  0.00    -0.037 C 
HETATM   24  C23 UNL     1      22.745   3.238  50.960  1.00  0.00    -0.005 C 
ENDROOT
BRANCH   1  25
HETATM   25  N1  UNL     1      22.247  -0.273  52.179  1.00  0.00    -0.345 N 
HETATM   26  C3  UNL     1      21.522  -0.080  53.424  1.00  0.00     0.241 C 
HETATM   27  O1  UNL     1      20.928   0.881  54.023  1.00  0.00    -0.269 OA
HETATM   28  H4  UNL     1      22.221  -1.146  52.652  1.00  0.00     0.163 HD
BRANCH  26  29
HETATM   29  C2  UNL     1      21.167  -0.965  54.561  1.00  0.00     0.064 C 
HETATM   30  C1  UNL     1      21.896  -2.017  54.958  1.00  0.00     0.017 C 
ENDBRANCH  26  29
ENDBRANCH   1  25
BRANCH  23  31
HETATM   31  C22 UNL     1      20.816   4.781  51.380  1.00  0.00     0.258 C 
HETATM   32  F1  UNL     1      20.197   5.314  50.315  1.00  0.00    -0.251 F 
ENDBRANCH  23  31
TORSDOF 3
ENDMDL
MODEL 8
REMARK VINA RESULT:      -7.7      9.013     11.149
REMARK  3 active torsions:
REMARK  status: ('A' for Active; 'I' for Inactive)
REMARK    1  A    between atoms: C2_2  and  C3_3 
REMARK       I    between atoms: C3_3  and  N1_5 
REMARK    2  A    between atoms: N1_5  and  C4_6 
REMARK    3  A    between atoms: C21_28  and  C22_29 
ROOT
HETATM    1  C4  UNL     1      31.794   5.995  47.611  1.00  0.00     0.082 A 
HETATM    2  C5  UNL     1      30.915   6.855  47.433  1.00  0.00     0.043 A 
HETATM    3  C6  UNL     1      32.438   6.591  47.325  1.00  0.00     0.547 A 
HETATM    4  N2  UNL     1      33.266   7.580  47.155  1.00  0.00    -0.141 NA
HETATM    5  C7  UNL     1      32.917   8.954  47.079  1.00  0.00     0.540 C 
HETATM    6  C8  UNL     1      33.626  10.094  46.970  1.00  0.00     0.046 C 
HETATM    7  C9  UNL     1      33.031  11.452  46.924  1.00  0.00     0.155 C 
HETATM    8  N3  UNL     1      31.597  11.446  47.065  1.00  0.00    -0.297 NA
HETATM    9  C10 UNL     1      30.769  11.289  46.164  1.00  0.00     0.160 C 
HETATM   10  C11 UNL     1      29.427  11.168  45.549  1.00  0.00     0.138 C 
HETATM   11  N4  UNL     1      28.465  11.919  45.294  1.00  0.00    -0.263 NA
HETATM   12  C12 UNL     1      27.265  11.363  45.877  1.00  0.00     0.145 C 
HETATM   13  C13 UNL     1      27.435  11.073  47.359  1.00  0.00     0.136 C 
HETATM   14  N5  UNL     1      28.396   9.978  47.530  1.00  0.00    -0.422 NA
HETATM   15  C14 UNL     1      28.077   8.738  47.762  1.00  0.00     0.252 C 
HETATM   16  C15 UNL     1      27.372   7.433  48.021  1.00  0.00     0.062 C 
HETATM   17  C16 UNL     1      28.119   6.297  48.122  1.00  0.00    -0.017 C 
HETATM   18  C17 UNL     1      29.127   5.176  48.191  1.00  0.00    -0.019 C 
HETATM   19  C18 UNL     1      30.406   5.435  47.945  1.00  0.00     0.061 A 
HETATM   20  C19 UNL     1      27.406   9.971  45.207  1.00  0.00     0.153 C 
HETATM   21  N6  UNL     1      28.834  10.014  44.962  1.00  0.00    -0.359 N 
HETATM   22  C20 UNL     1      29.921   9.392  44.307  1.00  0.00     0.161 C 
HETATM   23  C21 UNL     1      30.638   8.374  45.061  1.00  0.00    -0.037 C 
HETATM   24  C23 UNL     1      30.717   7.686  46.211  1.00  0.00    -0.005 C 
ENDROOT
BRANCH   1  25
HETATM   25  N1  UNL     1      32.091   4.698  48.014  1.00  0.00    -0.345 N 
HETATM   26  C3  UNL     1      32.437   3.774  46.945  1.00  0.00     0.241 C 
HETATM   27  O1  UNL     1      32.564   3.817  45.674  1.00  0.00    -0.269 OA
HETATM   28  H4  UNL     1      32.281   3.815  48.427  1.00  0.00     0.163 HD
BRANCH  26  29
HETATM   29  C2  UNL     1      32.792   2.334  46.899  1.00  0.00     0.064 C 
HETATM   30  C1  UNL     1      32.900   1.546  47.978  1.00  0.00     0.017 C 
ENDBRANCH  26  29
ENDBRANCH   1  25
BRANCH  23  31
HETATM   31  C22 UNL     1      31.719   8.104  43.953  1.00  0.00     0.258 C 
HETATM   32  F1  UNL     1      32.095   6.822  44.077  1.00  0.00    -0.251 F 
ENDBRANCH  23  31
TORSDOF 3
ENDMDL
MODEL 9
REMARK VINA RESULT:      -7.7      1.616      1.854
REMARK  3 active torsions:
REMARK  status: ('A' for Active; 'I' for Inactive)
REMARK    1  A    between atoms: C2_2  and  C3_3 
REMARK       I    between atoms: C3_3  and  N1_5 
REMARK    2  A    between atoms: N1_5  and  C4_6 
REMARK    3  A    between atoms: C21_28  and  C22_29 
ROOT
HETATM    1  C4  UNL     1      23.646   2.068  52.595  1.00  0.00     0.082 A 
HETATM    2  C5  UNL     1      22.681   2.275  51.840  1.00  0.00     0.043 A 
HETATM    3  C6  UNL     1      23.968   2.915  52.419  1.00  0.00     0.547 A 
HETATM    4  N2  UNL     1      24.177   4.193  52.298  1.00  0.00    -0.141 NA
HETATM    5  C7  UNL     1      23.302   5.126  51.683  1.00  0.00     0.540 C 
HETATM    6  C8  UNL     1      23.323   6.463  51.524  1.00  0.00     0.046 C 
HETATM    7  C9  UNL     1      22.260   7.245  50.844  1.00  0.00     0.155 C 
HETATM    8  N3  UNL     1      21.152   6.434  50.409  1.00  0.00    -0.297 NA
HETATM    9  C10 UNL     1      21.068   5.808  49.349  1.00  0.00     0.160 C 
HETATM   10  C11 UNL     1      20.454   4.931  48.326  1.00  0.00     0.138 C 
HETATM   11  N4  UNL     1      19.519   4.999  47.503  1.00  0.00    -0.263 NA
HETATM   12  C12 UNL     1      18.628   3.879  47.708  1.00  0.00     0.145 C 
HETATM   13  C13 UNL     1      18.162   3.782  49.153  1.00  0.00     0.136 C 
HETATM   14  N5  UNL     1      19.303   3.428  50.004  1.00  0.00    -0.422 NA
HETATM   15  C14 UNL     1      19.553   2.233  50.454  1.00  0.00     0.252 C 
HETATM   16  C15 UNL     1      19.540   0.766  50.796  1.00  0.00     0.062 C 
HETATM   17  C16 UNL     1      20.579   0.255  51.515  1.00  0.00    -0.017 C 
HETATM   18  C17 UNL     1      21.816  -0.097  52.305  1.00  0.00    -0.019 C 
HETATM   19  C18 UNL     1      22.742   0.832  52.512  1.00  0.00     0.061 A 
HETATM   20  C19 UNL     1      19.728   2.792  47.598  1.00  0.00     0.153 C 
HETATM   21  N6  UNL     1      20.865   3.627  47.930  1.00  0.00    -0.359 N 
HETATM   22  C20 UNL     1      22.275   3.709  47.970  1.00  0.00     0.161 C 
HETATM   23  C21 UNL     1      22.915   3.298  49.211  1.00  0.00    -0.037 C 
HETATM   24  C23 UNL     1      22.738   2.810  50.449  1.00  0.00    -0.005 C 
ENDROOT
BRANCH   1  25
HETATM   25  N1  UNL     1      24.287   1.180  53.451  1.00  0.00    -0.345 N 
HETATM   26  C3  UNL     1      25.463   0.524  52.905  1.00  0.00     0.241 C 
HETATM   27  O1  UNL     1      26.121   0.538  51.808  1.00  0.00    -0.269 OA
HETATM   28  H4  UNL     1      24.650   0.578  54.152  1.00  0.00     0.163 HD
BRANCH  26  29
HETATM   29  C2  UNL     1      26.420  -0.485  53.426  1.00  0.00     0.064 C 
HETATM   30  C1  UNL     1      27.576  -0.188  54.034  1.00  0.00     0.017 C 
ENDBRANCH  26  29
ENDBRANCH   1  25
BRANCH  23  31
HETATM   31  C22 UNL     1      24.375   3.653  48.749  1.00  0.00     0.258 C 
HETATM   32  F1  UNL     1      25.210   2.897  49.477  1.00  0.00    -0.251 F 
ENDBRANCH  23  31
TORSDOF 3
ENDMDL
