MODEL 1
REMARK VINA RESULT:      -8.6      0.000      0.000
REMARK  4 active torsions:
REMARK  status: ('A' for Active; 'I' for Inactive)
REMARK    1  A    between atoms: N1_1  and  C1_2 
REMARK    2  A    between atoms: C6_8  and  C7_9 
REMARK    3  A    between atoms: C7_9  and  N2_10 
REMARK    4  A    between atoms: N4_18  and  C14_19 
ROOT
HETATM    1  N2  UNL     1      24.212   1.094  52.622  1.00  0.00    -0.374 N 
HETATM    2  C8  UNL     1      23.872  -0.096  53.385  1.00  0.00     0.085 C 
HETATM    3  C9  UNL     1      22.545  -0.311  53.216  1.00  0.00     0.018 C 
HETATM    4  C10 UNL     1      22.035   0.755  52.332  1.00  0.00     0.138 C 
HETATM    5  C11 UNL     1      22.987   1.849  52.790  1.00  0.00     0.151 C 
HETATM    6  C12 UNL     1      22.781   2.981  51.902  1.00  0.00     0.113 C 
HETATM    7  N3  UNL     1      21.529   3.345  51.908  1.00  0.00    -0.284 NA
HETATM    8  C13 UNL     1      20.579   2.615  52.747  1.00  0.00     0.273 C 
HETATM    9  N4  UNL     1      20.700   1.186  52.506  1.00  0.00    -0.352 N 
ENDROOT
BRANCH   1  10
HETATM   10  C7  UNL     1      25.461   1.317  51.943  1.00  0.00     0.164 C 
BRANCH  10  11
HETATM   11  C6  UNL     1      26.592   0.548  52.474  1.00  0.00    -0.014 A 
HETATM   12  C1  UNL     1      27.451   1.220  53.322  1.00  0.00     0.035 A 
HETATM   13  C2  UNL     1      28.541   0.582  53.872  1.00  0.00     0.053 A 
HETATM   14  C3  UNL     1      28.751  -0.752  53.550  1.00  0.00     0.036 A 
HETATM   15 CL1  UNL     1      30.110  -1.610  54.214  1.00  0.00    -0.084 Cl
HETATM   16  C4  UNL     1      27.913  -1.438  52.713  1.00  0.00     0.024 A 
HETATM   17  C5  UNL     1      26.812  -0.783  52.162  1.00  0.00     0.013 A 
BRANCH  12  18
HETATM   18  N1  UNL     1      27.312   2.583  53.703  1.00  0.00    -0.399 N 
HETATM   19  H1  UNL     1      27.472   3.450  53.123  1.00  0.00     0.156 HD
HETATM   20  H2  UNL     1      27.012   2.799  54.677  1.00  0.00     0.156 HD
ENDBRANCH  12  18
ENDBRANCH  10  11
ENDBRANCH   1  10
BRANCH   9  21
HETATM   21  C14 UNL     1      19.581   0.306  52.448  1.00  0.00     0.033 A 
HETATM   22  C15 UNL     1      19.328  -0.643  53.418  1.00  0.00     0.029 A 
HETATM   23  C16 UNL     1      18.240  -1.502  53.383  1.00  0.00     0.004 A 
HETATM   24  C17 UNL     1      17.356  -1.399  52.304  1.00  0.00     0.019 A 
HETATM   25  C18 UNL     1      17.599  -0.444  51.312  1.00  0.00     0.013 A 
HETATM   26 BR1  UNL     1      16.367  -0.338  49.857  1.00  0.00    -0.051 Br
HETATM   27  C19 UNL     1      18.705   0.379  51.417  1.00  0.00     0.048 A 
ENDBRANCH   9  21
TORSDOF 4
ENDMDL
MODEL 2
REMARK VINA RESULT:      -8.6      4.511      6.273
REMARK  4 active torsions:
REMARK  status: ('A' for Active; 'I' for Inactive)
REMARK    1  A    between atoms: N1_1  and  C1_2 
REMARK    2  A    between atoms: C6_8  and  C7_9 
REMARK    3  A    between atoms: C7_9  and  N2_10 
REMARK    4  A    between atoms: N4_18  and  C14_19 
ROOT
HETATM    1  N2  UNL     1      23.235   4.670  50.514  1.00  0.00    -0.374 N 
HETATM    2  C8  UNL     1      23.439   4.941  51.927  1.00  0.00     0.085 C 
HETATM    3  C9  UNL     1      23.651   3.749  52.534  1.00  0.00     0.018 C 
HETATM    4  C10 UNL     1      23.583   2.706  51.493  1.00  0.00     0.138 C 
HETATM    5  C11 UNL     1      22.557   3.394  50.606  1.00  0.00     0.151 C 
HETATM    6  C12 UNL     1      22.461   2.606  49.388  1.00  0.00     0.113 C 
HETATM    7  N3  UNL     1      22.161   1.368  49.667  1.00  0.00    -0.284 NA
HETATM    8  C13 UNL     1      21.978   0.977  51.064  1.00  0.00     0.273 C 
HETATM    9  N4  UNL     1      23.110   1.426  51.859  1.00  0.00    -0.352 N 
ENDROOT
BRANCH   1  10
HETATM   10  C7  UNL     1      23.649   5.529  49.435  1.00  0.00     0.164 C 
BRANCH  10  11
HETATM   11  C6  UNL     1      25.080   5.469  49.121  1.00  0.00    -0.014 A 
HETATM   12  C1  UNL     1      25.643   6.613  48.587  1.00  0.00     0.035 A 
HETATM   13  C2  UNL     1      26.981   6.653  48.260  1.00  0.00     0.053 A 
HETATM   14  C3  UNL     1      27.744   5.516  48.482  1.00  0.00     0.036 A 
HETATM   15 CL1  UNL     1      29.439   5.508  48.090  1.00  0.00    -0.084 Cl
HETATM   16  C4  UNL     1      27.209   4.372  49.010  1.00  0.00     0.024 A 
HETATM   17  C5  UNL     1      25.854   4.341  49.337  1.00  0.00     0.013 A 
BRANCH  12  18
HETATM   18  N1  UNL     1      24.936   7.818  48.327  1.00  0.00    -0.399 N 
HETATM   19  H1  UNL     1      25.314   8.748  48.003  1.00  0.00     0.156 HD
HETATM   20  H2  UNL     1      23.902   7.828  48.462  1.00  0.00     0.156 HD
ENDBRANCH  12  18
ENDBRANCH  10  11
ENDBRANCH   1  10
BRANCH   9  21
HETATM   21  C14 UNL     1      23.688   0.647  52.904  1.00  0.00     0.033 A 
HETATM   22  C15 UNL     1      22.949  -0.218  53.684  1.00  0.00     0.029 A 
HETATM   23  C16 UNL     1      23.495  -0.988  54.700  1.00  0.00     0.004 A 
HETATM   24  C17 UNL     1      24.868  -0.878  54.943  1.00  0.00     0.019 A 
HETATM   25  C18 UNL     1      25.631  -0.005  54.160  1.00  0.00     0.013 A 
HETATM   26 BR1  UNL     1      27.501   0.114  54.526  1.00  0.00    -0.051 Br
HETATM   27  C19 UNL     1      25.015   0.730  53.164  1.00  0.00     0.048 A 
ENDBRANCH   9  21
TORSDOF 4
ENDMDL
MODEL 3
REMARK VINA RESULT:      -8.6      4.159      8.267
REMARK  4 active torsions:
REMARK  status: ('A' for Active; 'I' for Inactive)
REMARK    1  A    between atoms: N1_1  and  C1_2 
REMARK    2  A    between atoms: C6_8  and  C7_9 
REMARK    3  A    between atoms: C7_9  and  N2_10 
REMARK    4  A    between atoms: N4_18  and  C14_19 
ROOT
HETATM    1  N2  UNL     1      22.170   0.530  52.959  1.00  0.00    -0.374 N 
HETATM    2  C8  UNL     1      22.880  -0.694  53.292  1.00  0.00     0.085 C 
HETATM    3  C9  UNL     1      24.198  -0.387  53.348  1.00  0.00     0.018 C 
HETATM    4  C10 UNL     1      24.328   1.051  53.047  1.00  0.00     0.138 C 
HETATM    5  C11 UNL     1      23.150   1.150  52.091  1.00  0.00     0.151 C 
HETATM    6  C12 UNL     1      22.969   2.562  51.794  1.00  0.00     0.113 C 
HETATM    7  N3  UNL     1      24.071   3.072  51.317  1.00  0.00    -0.284 NA
HETATM    8  C13 UNL     1      25.245   2.215  51.161  1.00  0.00     0.273 C 
HETATM    9  N4  UNL     1      25.503   1.495  52.399  1.00  0.00    -0.352 N 
ENDROOT
BRANCH   1  10
HETATM   10  C7  UNL     1      20.860   0.887  53.436  1.00  0.00     0.164 C 
BRANCH  10  11
HETATM   11  C6  UNL     1      19.767   0.583  52.507  1.00  0.00    -0.014 A 
HETATM   12  C1  UNL     1      18.951  -0.481  52.841  1.00  0.00     0.035 A 
HETATM   13  C2  UNL     1      17.897  -0.844  52.031  1.00  0.00     0.053 A 
HETATM   14  C3  UNL     1      17.680  -0.111  50.873  1.00  0.00     0.036 A 
HETATM   15 CL1  UNL     1      16.364  -0.521  49.811  1.00  0.00    -0.084 Cl
HETATM   16  C4  UNL     1      18.474   0.947  50.521  1.00  0.00     0.024 A 
HETATM   17  C5  UNL     1      19.538   1.305  51.348  1.00  0.00     0.013 A 
BRANCH  12  18
HETATM   18  N1  UNL     1      19.102  -1.284  54.005  1.00  0.00    -0.399 N 
HETATM   19  H1  UNL     1      18.370  -1.570  54.709  1.00  0.00     0.156 HD
HETATM   20  H2  UNL     1      20.047  -1.662  54.230  1.00  0.00     0.156 HD
ENDBRANCH  12  18
ENDBRANCH  10  11
ENDBRANCH   1  10
BRANCH   9  21
HETATM   21  C14 UNL     1      26.813   1.264  52.909  1.00  0.00     0.033 A 
HETATM   22  C15 UNL     1      27.576   2.262  53.481  1.00  0.00     0.029 A 
HETATM   23  C16 UNL     1      28.850   2.054  53.990  1.00  0.00     0.004 A 
HETATM   24  C17 UNL     1      29.385   0.764  53.915  1.00  0.00     0.019 A 
HETATM   25  C18 UNL     1      28.624  -0.258  53.337  1.00  0.00     0.013 A 
HETATM   26 BR1  UNL     1      29.394  -2.004  53.256  1.00  0.00    -0.051 Br
HETATM   27  C19 UNL     1      27.361   0.026  52.853  1.00  0.00     0.048 A 
ENDBRANCH   9  21
TORSDOF 4
ENDMDL
MODEL 4
REMARK VINA RESULT:      -8.5      5.212      7.471
REMARK  4 active torsions:
REMARK  status: ('A' for Active; 'I' for Inactive)
REMARK    1  A    between atoms: N1_1  and  C1_2 
REMARK    2  A    between atoms: C6_8  and  C7_9 
REMARK    3  A    between atoms: C7_9  and  N2_10 
REMARK    4  A    between atoms: N4_18  and  C14_19 
ROOT
HETATM    1  N2  UNL     1      25.466   2.797  51.423  1.00  0.00    -0.374 N 
HETATM    2  C8  UNL     1      26.356   2.478  50.318  1.00  0.00     0.085 C 
HETATM    3  C9  UNL     1      26.491   3.604  49.578  1.00  0.00     0.018 C 
HETATM    4  C10 UNL     1      25.678   4.654  50.221  1.00  0.00     0.138 C 
HETATM    5  C11 UNL     1      24.589   3.742  50.763  1.00  0.00     0.151 C 
HETATM    6  C12 UNL     1      23.741   4.562  51.613  1.00  0.00     0.113 C 
HETATM    7  N3  UNL     1      23.280   5.585  50.947  1.00  0.00    -0.284 NA
HETATM    8  C13 UNL     1      23.655   5.749  49.544  1.00  0.00     0.273 C 
HETATM    9  N4  UNL     1      25.098   5.648  49.399  1.00  0.00    -0.352 N 
ENDROOT
BRANCH   1  10
HETATM   10  C7  UNL     1      25.557   2.246  52.750  1.00  0.00     0.164 C 
BRANCH  10  11
HETATM   11  C6  UNL     1      26.463   1.100  52.874  1.00  0.00    -0.014 A 
HETATM   12  C1  UNL     1      27.712   1.355  53.408  1.00  0.00     0.035 A 
HETATM   13  C2  UNL     1      28.632   0.342  53.565  1.00  0.00     0.053 A 
HETATM   14  C3  UNL     1      28.269  -0.939  53.172  1.00  0.00     0.036 A 
HETATM   15 CL1  UNL     1      29.388  -2.259  53.347  1.00  0.00    -0.084 Cl
HETATM   16  C4  UNL     1      27.038  -1.216  52.642  1.00  0.00     0.024 A 
HETATM   17  C5  UNL     1      26.114  -0.183  52.487  1.00  0.00     0.013 A 
BRANCH  12  18
HETATM   18  N1  UNL     1      28.165   2.633  53.834  1.00  0.00    -0.399 N 
HETATM   19  H1  UNL     1      28.734   2.881  54.687  1.00  0.00     0.156 HD
HETATM   20  H2  UNL     1      27.925   3.465  53.254  1.00  0.00     0.156 HD
ENDBRANCH  12  18
ENDBRANCH  10  11
ENDBRANCH   1  10
BRANCH   9  21
HETATM   21  C14 UNL     1      25.855   6.473  48.517  1.00  0.00     0.033 A 
HETATM   22  C15 UNL     1      25.271   7.407  47.686  1.00  0.00     0.029 A 
HETATM   23  C16 UNL     1      25.991   8.223  46.827  1.00  0.00     0.004 A 
HETATM   24  C17 UNL     1      27.383   8.088  46.805  1.00  0.00     0.019 A 
HETATM   25  C18 UNL     1      27.990   7.145  47.640  1.00  0.00     0.013 A 
HETATM   26 BR1  UNL     1      29.893   6.994  47.577  1.00  0.00    -0.051 Br
HETATM   27  C19 UNL     1      27.205   6.367  48.471  1.00  0.00     0.048 A 
ENDBRANCH   9  21
TORSDOF 4
ENDMDL
MODEL 5
REMARK VINA RESULT:      -8.4      5.041      7.344
REMARK  4 active torsions:
REMARK  status: ('A' for Active; 'I' for Inactive)
REMARK    1  A    between atoms: N1_1  and  C1_2 
REMARK    2  A    between atoms: C6_8  and  C7_9 
REMARK    3  A    between atoms: C7_9  and  N2_10 
REMARK    4  A    between atoms: N4_18  and  C14_19 
ROOT
HETATM    1  N2  UNL     1      25.496   2.840  51.396  1.00  0.00    -0.374 N 
HETATM    2  C8  UNL     1      26.395   2.517  50.300  1.00  0.00     0.085 C 
HETATM    3  C9  UNL     1      26.549   3.644  49.566  1.00  0.00     0.018 C 
HETATM    4  C10 UNL     1      25.738   4.699  50.204  1.00  0.00     0.138 C 
HETATM    5  C11 UNL     1      24.634   3.795  50.730  1.00  0.00     0.151 C 
HETATM    6  C12 UNL     1      23.784   4.619  51.574  1.00  0.00     0.113 C 
HETATM    7  N3  UNL     1      23.341   5.649  50.907  1.00  0.00    -0.284 NA
HETATM    8  C13 UNL     1      23.732   5.816  49.509  1.00  0.00     0.273 C 
HETATM    9  N4  UNL     1      25.177   5.701  49.380  1.00  0.00    -0.352 N 
ENDROOT
BRANCH   1  10
HETATM   10  C7  UNL     1      25.567   2.282  52.721  1.00  0.00     0.164 C 
BRANCH  10  11
HETATM   11  C6  UNL     1      26.468   1.133  52.853  1.00  0.00    -0.014 A 
HETATM   12  C1  UNL     1      27.707   1.380  53.411  1.00  0.00     0.035 A 
HETATM   13  C2  UNL     1      28.622   0.363  53.577  1.00  0.00     0.053 A 
HETATM   14  C3  UNL     1      28.263  -0.914  53.167  1.00  0.00     0.036 A 
HETATM   15 CL1  UNL     1      29.376  -2.238  53.352  1.00  0.00    -0.084 Cl
HETATM   16  C4  UNL     1      27.041  -1.183  52.612  1.00  0.00     0.024 A 
HETATM   17  C5  UNL     1      26.123  -0.146  52.449  1.00  0.00     0.013 A 
BRANCH  12  18
HETATM   18  N1  UNL     1      28.155   2.654  53.856  1.00  0.00    -0.399 N 
HETATM   19  H1  UNL     1      27.905   3.169  54.742  1.00  0.00     0.156 HD
HETATM   20  H2  UNL     1      28.823   3.184  53.257  1.00  0.00     0.156 HD
ENDBRANCH  12  18
ENDBRANCH  10  11
ENDBRANCH   1  10
BRANCH   9  21
HETATM   21  C14 UNL     1      25.950   6.523  48.510  1.00  0.00     0.033 A 
HETATM   22  C15 UNL     1      27.330   6.494  48.490  1.00  0.00     0.029 A 
HETATM   23  C16 UNL     1      28.100   7.281  47.646  1.00  0.00     0.004 A 
HETATM   24  C17 UNL     1      27.437   8.149  46.771  1.00  0.00     0.019 A 
HETATM   25  C18 UNL     1      26.039   8.190  46.781  1.00  0.00     0.013 A 
HETATM   26 BR1  UNL     1      25.176   9.390  45.571  1.00  0.00    -0.051 Br
HETATM   27  C19 UNL     1      25.340   7.375  47.651  1.00  0.00     0.048 A 
ENDBRANCH   9  21
TORSDOF 4
ENDMDL
MODEL 6
REMARK VINA RESULT:      -8.4      9.430     11.273
REMARK  4 active torsions:
REMARK  status: ('A' for Active; 'I' for Inactive)
REMARK    1  A    between atoms: N1_1  and  C1_2 
REMARK    2  A    between atoms: C6_8  and  C7_9 
REMARK    3  A    between atoms: C7_9  and  N2_10 
REMARK    4  A    between atoms: N4_18  and  C14_19 
ROOT
HETATM    1  N2  UNL     1      33.008   6.749  47.684  1.00  0.00    -0.374 N 
HETATM    2  C8  UNL     1      32.801   6.894  49.116  1.00  0.00     0.085 C 
HETATM    3  C9  UNL     1      31.496   7.206  49.300  1.00  0.00     0.018 C 
HETATM    4  C10 UNL     1      30.864   7.260  47.968  1.00  0.00     0.138 C 
HETATM    5  C11 UNL     1      32.082   7.753  47.202  1.00  0.00     0.151 C 
HETATM    6  C12 UNL     1      31.735   7.710  45.791  1.00  0.00     0.113 C 
HETATM    7  N3  UNL     1      30.658   8.410  45.564  1.00  0.00    -0.284 NA
HETATM    8  C13 UNL     1      30.001   9.089  46.679  1.00  0.00     0.273 C 
HETATM    9  N4  UNL     1      29.788   8.155  47.774  1.00  0.00    -0.352 N 
ENDROOT
BRANCH   1  10
HETATM   10  C7  UNL     1      33.917   5.820  47.065  1.00  0.00     0.164 C 
BRANCH  10  11
HETATM   11  C6  UNL     1      33.438   4.435  47.020  1.00  0.00    -0.014 A 
HETATM   12  C1  UNL     1      34.053   3.541  47.875  1.00  0.00     0.035 A 
HETATM   13  C2  UNL     1      33.671   2.217  47.904  1.00  0.00     0.053 A 
HETATM   14  C3  UNL     1      32.654   1.810  47.052  1.00  0.00     0.036 A 
HETATM   15 CL1  UNL     1      32.129   0.151  47.046  1.00  0.00    -0.084 Cl
HETATM   16  C4  UNL     1      32.030   2.677  46.197  1.00  0.00     0.024 A 
HETATM   17  C5  UNL     1      32.424   4.015  46.175  1.00  0.00     0.013 A 
BRANCH  12  18
HETATM   18  N1  UNL     1      35.100   3.872  48.777  1.00  0.00    -0.399 N 
HETATM   19  H1  UNL     1      35.710   3.226  49.346  1.00  0.00     0.156 HD
HETATM   20  H2  UNL     1      35.330   4.878  48.926  1.00  0.00     0.156 HD
ENDBRANCH  12  18
ENDBRANCH  10  11
ENDBRANCH   1  10
BRANCH   9  21
HETATM   21  C14 UNL     1      28.607   8.143  48.571  1.00  0.00     0.033 A 
HETATM   22  C15 UNL     1      28.299   9.152  49.462  1.00  0.00     0.029 A 
HETATM   23  C16 UNL     1      27.150   9.161  50.240  1.00  0.00     0.004 A 
HETATM   24  C17 UNL     1      26.262   8.088  50.113  1.00  0.00     0.019 A 
HETATM   25  C18 UNL     1      26.562   7.057  49.216  1.00  0.00     0.013 A 
HETATM   26 BR1  UNL     1      25.321   5.612  49.076  1.00  0.00    -0.051 Br
HETATM   27  C19 UNL     1      27.726   7.119  48.473  1.00  0.00     0.048 A 
ENDBRANCH   9  21
TORSDOF 4
ENDMDL
MODEL 7
REMARK VINA RESULT:      -8.3      1.414      2.323
REMARK  4 active torsions:
REMARK  status: ('A' for Active; 'I' for Inactive)
REMARK    1  A    between atoms: N1_1  and  C1_2 
REMARK    2  A    between atoms: C6_8  and  C7_9 
REMARK    3  A    between atoms: C7_9  and  N2_10 
REMARK    4  A    between atoms: N4_18  and  C14_19 
ROOT
HETATM    1  N2  UNL     1      23.572   1.151  52.464  1.00  0.00    -0.374 N 
HETATM    2  C8  UNL     1      23.296   1.404  51.059  1.00  0.00     0.085 C 
HETATM    3  C9  UNL     1      21.951   1.484  50.926  1.00  0.00     0.018 C 
HETATM    4  C10 UNL     1      21.363   1.281  52.264  1.00  0.00     0.138 C 
HETATM    5  C11 UNL     1      22.425   0.329  52.792  1.00  0.00     0.151 C 
HETATM    6  C12 UNL     1      22.140   0.126  54.204  1.00  0.00     0.113 C 
HETATM    7  N3  UNL     1      20.922  -0.312  54.365  1.00  0.00    -0.284 NA
HETATM    8  C13 UNL     1      20.078  -0.520  53.189  1.00  0.00     0.273 C 
HETATM    9  N4  UNL     1      20.093   0.667  52.350  1.00  0.00    -0.352 N 
ENDROOT
BRANCH   1  10
HETATM   10  C7  UNL     1      24.712   1.646  53.189  1.00  0.00     0.164 C 
BRANCH  10  11
HETATM   11  C6  UNL     1      25.868   0.744  53.203  1.00  0.00    -0.014 A 
HETATM   12  C1  UNL     1      27.074   1.292  53.597  1.00  0.00     0.035 A 
HETATM   13  C2  UNL     1      28.216   0.523  53.642  1.00  0.00     0.053 A 
HETATM   14  C3  UNL     1      28.120  -0.814  53.282  1.00  0.00     0.036 A 
HETATM   15 CL1  UNL     1      29.528  -1.835  53.320  1.00  0.00    -0.084 Cl
HETATM   16  C4  UNL     1      26.937  -1.379  52.889  1.00  0.00     0.024 A 
HETATM   17  C5  UNL     1      25.787  -0.591  52.846  1.00  0.00     0.013 A 
BRANCH  12  18
HETATM   18  N1  UNL     1      27.261   2.647  53.981  1.00  0.00    -0.399 N 
HETATM   19  H1  UNL     1      27.417   3.044  54.946  1.00  0.00     0.156 HD
HETATM   20  H2  UNL     1      27.250   3.381  53.240  1.00  0.00     0.156 HD
ENDBRANCH  12  18
ENDBRANCH  10  11
ENDBRANCH   1  10
BRANCH   9  21
HETATM   21  C14 UNL     1      18.937   1.165  51.682  1.00  0.00     0.033 A 
HETATM   22  C15 UNL     1      18.554   2.490  51.742  1.00  0.00     0.029 A 
HETATM   23  C16 UNL     1      17.437   2.994  51.093  1.00  0.00     0.004 A 
HETATM   24  C17 UNL     1      16.659   2.109  50.339  1.00  0.00     0.019 A 
HETATM   25  C18 UNL     1      17.033   0.763  50.270  1.00  0.00     0.013 A 
HETATM   26 BR1  UNL     1      15.942  -0.411  49.230  1.00  0.00    -0.051 Br
HETATM   27  C19 UNL     1      18.161   0.334  50.944  1.00  0.00     0.048 A 
ENDBRANCH   9  21
TORSDOF 4
ENDMDL
MODEL 8
REMARK VINA RESULT:      -8.1      2.162      3.268
REMARK  4 active torsions:
REMARK  status: ('A' for Active; 'I' for Inactive)
REMARK    1  A    between atoms: N1_1  and  C1_2 
REMARK    2  A    between atoms: C6_8  and  C7_9 
REMARK    3  A    between atoms: C7_9  and  N2_10 
REMARK    4  A    between atoms: N4_18  and  C14_19 
ROOT
HETATM    1  N2  UNL     1      22.626   3.716  51.327  1.00  0.00    -0.374 N 
HETATM    2  C8  UNL     1      21.475   4.114  52.121  1.00  0.00     0.085 C 
HETATM    3  C9  UNL     1      20.489   3.220  51.869  1.00  0.00     0.018 C 
HETATM    4  C10 UNL     1      21.021   2.239  50.904  1.00  0.00     0.138 C 
HETATM    5  C11 UNL     1      21.947   3.190  50.161  1.00  0.00     0.151 C 
HETATM    6  C12 UNL     1      22.735   2.378  49.247  1.00  0.00     0.113 C 
HETATM    7  N3  UNL     1      21.955   1.690  48.460  1.00  0.00    -0.284 NA
HETATM    8  C13 UNL     1      20.506   1.822  48.599  1.00  0.00     0.273 C 
HETATM    9  N4  UNL     1      20.121   1.644  49.990  1.00  0.00    -0.352 N 
ENDROOT
BRANCH   1  10
HETATM   10  C7  UNL     1      24.001   3.867  51.724  1.00  0.00     0.164 C 
BRANCH  10  11
HETATM   11  C6  UNL     1      24.700   2.607  51.998  1.00  0.00    -0.014 A 
HETATM   12  C1  UNL     1      25.987   2.496  51.507  1.00  0.00     0.035 A 
HETATM   13  C2  UNL     1      26.724   1.350  51.714  1.00  0.00     0.053 A 
HETATM   14  C3  UNL     1      26.138   0.315  52.428  1.00  0.00     0.036 A 
HETATM   15 CL1  UNL     1      27.020  -1.155  52.722  1.00  0.00    -0.084 Cl
HETATM   16  C4  UNL     1      24.865   0.402  52.925  1.00  0.00     0.024 A 
HETATM   17  C5  UNL     1      24.128   1.566  52.709  1.00  0.00     0.013 A 
BRANCH  12  18
HETATM   18  N1  UNL     1      26.661   3.505  50.767  1.00  0.00    -0.399 N 
HETATM   19  H1  UNL     1      27.687   3.574  50.529  1.00  0.00     0.156 HD
HETATM   20  H2  UNL     1      26.105   4.301  50.388  1.00  0.00     0.156 HD
ENDBRANCH  12  18
ENDBRANCH  10  11
ENDBRANCH   1  10
BRANCH   9  21
HETATM   21  C14 UNL     1      18.952   0.936  50.393  1.00  0.00     0.033 A 
HETATM   22  C15 UNL     1      17.747   1.049  49.728  1.00  0.00     0.029 A 
HETATM   23  C16 UNL     1      16.601   0.362  50.101  1.00  0.00     0.004 A 
HETATM   24  C17 UNL     1      16.675  -0.487  51.210  1.00  0.00     0.019 A 
HETATM   25  C18 UNL     1      17.888  -0.611  51.895  1.00  0.00     0.013 A 
HETATM   26 BR1  UNL     1      17.944  -1.781  53.403  1.00  0.00    -0.051 Br
HETATM   27  C19 UNL     1      18.989   0.106  51.463  1.00  0.00     0.048 A 
ENDBRANCH   9  21
TORSDOF 4
ENDMDL
MODEL 9
REMARK VINA RESULT:      -8.0      4.640      7.183
REMARK  4 active torsions:
REMARK  status: ('A' for Active; 'I' for Inactive)
REMARK    1  A    between atoms: N1_1  and  C1_2 
REMARK    2  A    between atoms: C6_8  and  C7_9 
REMARK    3  A    between atoms: C7_9  and  N2_10 
REMARK    4  A    between atoms: N4_18  and  C14_19 
ROOT
HETATM    1  N2  UNL     1      22.954   2.739  51.227  1.00  0.00    -0.374 N 
HETATM    2  C8  UNL     1      23.558   2.288  49.984  1.00  0.00     0.085 C 
HETATM    3  C9  UNL     1      24.179   3.358  49.432  1.00  0.00     0.018 C 
HETATM    4  C10 UNL     1      23.968   4.504  50.337  1.00  0.00     0.138 C 
HETATM    5  C11 UNL     1      22.597   4.091  50.848  1.00  0.00     0.151 C 
HETATM    6  C12 UNL     1      22.256   5.010  51.921  1.00  0.00     0.113 C 
HETATM    7  N3  UNL     1      22.304   6.243  51.498  1.00  0.00    -0.284 NA
HETATM    8  C13 UNL     1      22.668   6.506  50.107  1.00  0.00     0.273 C 
HETATM    9  N4  UNL     1      23.893   5.797  49.771  1.00  0.00    -0.352 N 
ENDROOT
BRANCH   1  10
HETATM   10  C7  UNL     1      22.820   1.946  52.421  1.00  0.00     0.164 C 
BRANCH  10  11
HETATM   11  C6  UNL     1      24.090   1.543  53.033  1.00  0.00    -0.014 A 
HETATM   12  C1  UNL     1      24.207   0.214  53.391  1.00  0.00     0.035 A 
HETATM   13  C2  UNL     1      25.363  -0.260  53.972  1.00  0.00     0.053 A 
HETATM   14  C3  UNL     1      26.402   0.634  54.188  1.00  0.00     0.036 A 
HETATM   15 CL1  UNL     1      27.886   0.093  54.917  1.00  0.00    -0.084 Cl
HETATM   16  C4  UNL     1      26.309   1.955  53.841  1.00  0.00     0.024 A 
HETATM   17  C5  UNL     1      25.135   2.424  53.254  1.00  0.00     0.013 A 
BRANCH  12  18
HETATM   18  N1  UNL     1      23.195  -0.767  53.208  1.00  0.00    -0.399 N 
HETATM   19  H1  UNL     1      23.054  -1.426  52.395  1.00  0.00     0.156 HD
HETATM   20  H2  UNL     1      22.476  -0.886  53.952  1.00  0.00     0.156 HD
ENDBRANCH  12  18
ENDBRANCH  10  11
ENDBRANCH   1  10
BRANCH   9  21
HETATM   21  C14 UNL     1      24.919   6.355  48.954  1.00  0.00     0.033 A 
HETATM   22  C15 UNL     1      24.690   7.398  48.080  1.00  0.00     0.029 A 
HETATM   23  C16 UNL     1      25.677   7.958  47.282  1.00  0.00     0.004 A 
HETATM   24  C17 UNL     1      26.970   7.434  47.372  1.00  0.00     0.019 A 
HETATM   25  C18 UNL     1      27.218   6.376  48.252  1.00  0.00     0.013 A 
HETATM   26 BR1  UNL     1      28.998   5.691  48.342  1.00  0.00    -0.051 Br
HETATM   27  C19 UNL     1      26.182   5.870  49.016  1.00  0.00     0.048 A 
ENDBRANCH   9  21
TORSDOF 4
ENDMDL
