MODEL 1
REMARK VINA RESULT:      -9.0      0.000      0.000
REMARK  1 active torsions:
REMARK  status: ('A' for Active; 'I' for Inactive)
REMARK    1  A    between atoms: C7_7  and  N1_8 
ROOT
HETATM    1  C1  UNL     1      26.533   6.030  48.604  1.00  0.00     0.018 C 
HETATM    2  C2  UNL     1      25.738   5.602  49.365  1.00  0.00    -0.078 C 
HETATM    3  C3  UNL     1      24.767   5.104  50.297  1.00  0.00     0.019 A 
HETATM    4  C4  UNL     1      24.162   5.834  51.318  1.00  0.00     0.021 A 
HETATM    5  C5  UNL     1      23.228   5.300  52.178  1.00  0.00     0.004 A 
HETATM    6  C6  UNL     1      22.888   3.974  52.006  1.00  0.00     0.030 A 
HETATM    7  C7  UNL     1      23.433   3.146  51.016  1.00  0.00     0.039 A 
HETATM    8  C20 UNL     1      24.338   3.799  50.240  1.00  0.00     0.050 A 
ENDROOT
BRANCH   7   9
HETATM    9  N1  UNL     1      23.011   1.798  50.926  1.00  0.00    -0.313 N 
HETATM   10  C8  UNL     1      22.081   1.234  49.984  1.00  0.00     0.276 C 
HETATM   11  N2  UNL     1      20.713   1.676  50.048  1.00  0.00    -0.292 N 
HETATM   12  C9  UNL     1      20.015   2.896  49.818  1.00  0.00     0.175 C 
HETATM   13  N3  UNL     1      19.884   0.651  50.456  1.00  0.00    -0.192 NA
HETATM   14  C10 UNL     1      19.553   0.215  51.591  1.00  0.00     0.116 C 
HETATM   15  C11 UNL     1      19.326  -0.107  53.075  1.00  0.00     0.087 C 
HETATM   16  C12 UNL     1      20.691  -0.457  53.615  1.00  0.00    -0.052 A 
HETATM   17  C13 UNL     1      21.310  -1.218  54.579  1.00  0.00     0.010 A 
HETATM   18  C19 UNL     1      21.695   0.163  52.924  1.00  0.00     0.025 A 
HETATM   19  C14 UNL     1      22.677  -1.227  54.672  1.00  0.00     0.033 A 
HETATM   20  C15 UNL     1      23.541  -0.501  53.840  1.00  0.00     0.072 A 
HETATM   21  N4  UNL     1      24.891  -0.559  53.973  1.00  0.00    -0.241 NA
HETATM   22  C18 UNL     1      23.044   0.299  52.837  1.00  0.00     0.039 A 
HETATM   23  C16 UNL     1      25.594   0.187  53.090  1.00  0.00     0.236 A 
HETATM   24  N5  UNL     1      25.059   0.969  52.103  1.00  0.00    -0.223 NA
HETATM   25  C17 UNL     1      23.728   1.050  51.942  1.00  0.00     0.145 A 
ENDBRANCH   7   9
TORSDOF 1
ENDMDL
MODEL 2
REMARK VINA RESULT:      -8.5      2.111      4.261
REMARK  1 active torsions:
REMARK  status: ('A' for Active; 'I' for Inactive)
REMARK    1  A    between atoms: C7_7  and  N1_8 
ROOT
HETATM    1  C1  UNL     1      22.667   6.888  46.679  1.00  0.00     0.018 C 
HETATM    2  C2  UNL     1      22.632   5.829  47.198  1.00  0.00    -0.078 C 
HETATM    3  C3  UNL     1      22.588   4.530  47.807  1.00  0.00     0.019 A 
HETATM    4  C4  UNL     1      22.232   3.340  47.176  1.00  0.00     0.021 A 
HETATM    5  C5  UNL     1      22.217   2.121  47.815  1.00  0.00     0.004 A 
HETATM    6  C6  UNL     1      22.573   2.095  49.148  1.00  0.00     0.030 A 
HETATM    7  C7  UNL     1      22.946   3.227  49.883  1.00  0.00     0.039 A 
HETATM    8  C20 UNL     1      22.918   4.360  49.131  1.00  0.00     0.050 A 
ENDROOT
BRANCH   7   9
HETATM    9  N1  UNL     1      23.296   3.089  51.247  1.00  0.00    -0.313 N 
HETATM   10  C8  UNL     1      24.501   3.539  51.891  1.00  0.00     0.276 C 
HETATM   11  N2  UNL     1      25.741   2.927  51.492  1.00  0.00    -0.292 N 
HETATM   12  C9  UNL     1      26.535   2.888  50.310  1.00  0.00     0.175 C 
HETATM   13  N3  UNL     1      26.273   2.178  52.521  1.00  0.00    -0.192 NA
HETATM   14  C10 UNL     1      26.081   0.994  52.908  1.00  0.00     0.116 C 
HETATM   15  C11 UNL     1      25.657  -0.460  53.160  1.00  0.00     0.087 C 
HETATM   16  C12 UNL     1      24.174  -0.396  53.435  1.00  0.00    -0.052 A 
HETATM   17  C13 UNL     1      23.173  -1.040  54.123  1.00  0.00     0.010 A 
HETATM   18  C19 UNL     1      23.580   0.670  52.818  1.00  0.00     0.025 A 
HETATM   19  C14 UNL     1      21.891  -0.558  54.081  1.00  0.00     0.033 A 
HETATM   20  C15 UNL     1      21.488   0.582  53.371  1.00  0.00     0.072 A 
HETATM   21  N4  UNL     1      20.204   1.020  53.376  1.00  0.00    -0.241 NA
HETATM   22  C18 UNL     1      22.397   1.315  52.641  1.00  0.00     0.039 A 
HETATM   23  C16 UNL     1      19.969   2.140  52.654  1.00  0.00     0.236 A 
HETATM   24  N5  UNL     1      20.904   2.842  51.943  1.00  0.00    -0.223 NA
HETATM   25  C17 UNL     1      22.184   2.437  51.916  1.00  0.00     0.145 A 
ENDBRANCH   7   9
TORSDOF 1
ENDMDL
MODEL 3
REMARK VINA RESULT:      -8.1      2.081      5.310
REMARK  1 active torsions:
REMARK  status: ('A' for Active; 'I' for Inactive)
REMARK    1  A    between atoms: C7_7  and  N1_8 
ROOT
HETATM    1  C1  UNL     1      16.188   3.589  51.836  1.00  0.00     0.018 C 
HETATM    2  C2  UNL     1      17.210   3.082  51.533  1.00  0.00    -0.078 C 
HETATM    3  C3  UNL     1      18.441   2.457  51.144  1.00  0.00     0.019 A 
HETATM    4  C4  UNL     1      18.605   1.544  50.104  1.00  0.00     0.021 A 
HETATM    5  C5  UNL     1      19.818   0.984  49.773  1.00  0.00     0.004 A 
HETATM    6  C6  UNL     1      20.917   1.355  50.520  1.00  0.00     0.030 A 
HETATM    7  C7  UNL     1      20.871   2.262  51.587  1.00  0.00     0.039 A 
HETATM    8  C20 UNL     1      19.615   2.736  51.803  1.00  0.00     0.050 A 
ENDROOT
BRANCH   7   9
HETATM    9  N1  UNL     1      22.059   2.577  52.287  1.00  0.00    -0.313 N 
HETATM   10  C8  UNL     1      22.720   3.853  52.359  1.00  0.00     0.276 C 
HETATM   11  N2  UNL     1      23.271   4.391  51.144  1.00  0.00    -0.292 N 
HETATM   12  C9  UNL     1      22.757   4.867  49.904  1.00  0.00     0.175 C 
HETATM   13  N3  UNL     1      24.649   4.431  51.205  1.00  0.00    -0.192 NA
HETATM   14  C10 UNL     1      25.544   3.578  50.960  1.00  0.00     0.116 C 
HETATM   15  C11 UNL     1      26.411   2.363  50.599  1.00  0.00     0.087 C 
HETATM   16  C12 UNL     1      25.998   1.283  51.569  1.00  0.00    -0.052 A 
HETATM   17  C13 UNL     1      26.480   0.171  52.218  1.00  0.00     0.010 A 
HETATM   18  C19 UNL     1      24.705   1.432  51.989  1.00  0.00     0.025 A 
HETATM   19  C14 UNL     1      25.673  -0.522  53.083  1.00  0.00     0.033 A 
HETATM   20  C15 UNL     1      24.345  -0.189  53.379  1.00  0.00     0.072 A 
HETATM   21  N4  UNL     1      23.597  -0.907  54.255  1.00  0.00    -0.241 NA
HETATM   22  C18 UNL     1      23.746   0.904  52.793  1.00  0.00     0.039 A 
HETATM   23  C16 UNL     1      22.336  -0.456  54.448  1.00  0.00     0.236 A 
HETATM   24  N5  UNL     1      21.779   0.638  53.846  1.00  0.00    -0.223 NA
HETATM   25  C17 UNL     1      22.489   1.373  52.975  1.00  0.00     0.145 A 
ENDBRANCH   7   9
TORSDOF 1
ENDMDL
MODEL 4
REMARK VINA RESULT:      -7.8      8.949     12.838
REMARK  1 active torsions:
REMARK  status: ('A' for Active; 'I' for Inactive)
REMARK    1  A    between atoms: C7_7  and  N1_8 
ROOT
HETATM    1  C1  UNL     1      27.726   5.154  48.469  1.00  0.00     0.018 C 
HETATM    2  C2  UNL     1      28.479   6.057  48.371  1.00  0.00    -0.078 C 
HETATM    3  C3  UNL     1      29.382   7.167  48.267  1.00  0.00     0.019 A 
HETATM    4  C4  UNL     1      29.187   8.436  48.810  1.00  0.00     0.021 A 
HETATM    5  C5  UNL     1      30.098   9.460  48.683  1.00  0.00     0.004 A 
HETATM    6  C6  UNL     1      31.256   9.200  47.980  1.00  0.00     0.030 A 
HETATM    7  C7  UNL     1      31.557   7.965  47.391  1.00  0.00     0.039 A 
HETATM    8  C20 UNL     1      30.575   7.048  47.593  1.00  0.00     0.050 A 
ENDROOT
BRANCH   7   9
HETATM    9  N1  UNL     1      32.777   7.805  46.693  1.00  0.00    -0.313 N 
HETATM   10  C8  UNL     1      33.237   8.551  45.552  1.00  0.00     0.276 C 
HETATM   11  N2  UNL     1      32.496   8.422  44.325  1.00  0.00    -0.292 N 
HETATM   12  C9  UNL     1      31.191   8.768  43.870  1.00  0.00     0.175 C 
HETATM   13  N3  UNL     1      33.248   7.781  43.362  1.00  0.00    -0.192 NA
HETATM   14  C10 UNL     1      33.448   6.566  43.098  1.00  0.00     0.116 C 
HETATM   15  C11 UNL     1      33.517   5.034  43.004  1.00  0.00     0.087 C 
HETATM   16  C12 UNL     1      34.090   4.584  44.326  1.00  0.00    -0.052 A 
HETATM   17  C13 UNL     1      34.839   3.580  44.893  1.00  0.00     0.010 A 
HETATM   18  C19 UNL     1      33.804   5.458  45.338  1.00  0.00     0.025 A 
HETATM   19  C14 UNL     1      35.140   3.621  46.230  1.00  0.00     0.033 A 
HETATM   20  C15 UNL     1      34.739   4.636  47.109  1.00  0.00     0.072 A 
HETATM   21  N4  UNL     1      35.079   4.630  48.423  1.00  0.00    -0.241 NA
HETATM   22  C18 UNL     1      33.985   5.698  46.663  1.00  0.00     0.039 A 
HETATM   23  C16 UNL     1      34.629   5.683  49.145  1.00  0.00     0.236 A 
HETATM   24  N5  UNL     1      33.882   6.721  48.660  1.00  0.00    -0.223 NA
HETATM   25  C17 UNL     1      33.528   6.760  47.365  1.00  0.00     0.145 A 
ENDBRANCH   7   9
TORSDOF 1
ENDMDL
MODEL 5
REMARK VINA RESULT:      -7.8      1.714      2.195
REMARK  1 active torsions:
REMARK  status: ('A' for Active; 'I' for Inactive)
REMARK    1  A    between atoms: C7_7  and  N1_8 
ROOT
HETATM    1  C1  UNL     1      23.542   7.675  46.619  1.00  0.00     0.018 C 
HETATM    2  C2  UNL     1      23.392   7.083  47.629  1.00  0.00    -0.078 C 
HETATM    3  C3  UNL     1      23.202   6.384  48.868  1.00  0.00     0.019 A 
HETATM    4  C4  UNL     1      22.939   6.967  50.106  1.00  0.00     0.021 A 
HETATM    5  C5  UNL     1      22.758   6.240  51.261  1.00  0.00     0.004 A 
HETATM    6  C6  UNL     1      22.845   4.866  51.169  1.00  0.00     0.030 A 
HETATM    7  C7  UNL     1      23.106   4.173  49.980  1.00  0.00     0.039 A 
HETATM    8  C20 UNL     1      23.263   5.012  48.921  1.00  0.00     0.050 A 
ENDROOT
BRANCH   7   9
HETATM    9  N1  UNL     1      23.172   2.760  49.996  1.00  0.00    -0.313 N 
HETATM   10  C8  UNL     1      22.255   1.834  49.386  1.00  0.00     0.276 C 
HETATM   11  N2  UNL     1      20.908   1.795  49.890  1.00  0.00    -0.292 N 
HETATM   12  C9  UNL     1      19.795   2.684  49.921  1.00  0.00     0.175 C 
HETATM   13  N3  UNL     1      20.652   0.592  50.516  1.00  0.00    -0.192 NA
HETATM   14  C10 UNL     1      20.856   0.174  51.686  1.00  0.00     0.116 C 
HETATM   15  C11 UNL     1      21.220  -0.072  53.158  1.00  0.00     0.087 C 
HETATM   16  C12 UNL     1      22.717   0.106  53.229  1.00  0.00    -0.052 A 
HETATM   17  C13 UNL     1      23.824  -0.313  53.929  1.00  0.00     0.010 A 
HETATM   18  C19 UNL     1      23.181   0.963  52.270  1.00  0.00     0.025 A 
HETATM   19  C14 UNL     1      25.068   0.146  53.583  1.00  0.00     0.033 A 
HETATM   20  C15 UNL     1      25.328   1.042  52.538  1.00  0.00     0.072 A 
HETATM   21  N4  UNL     1      26.586   1.453  52.235  1.00  0.00    -0.241 NA
HETATM   22  C18 UNL     1      24.304   1.536  51.763  1.00  0.00     0.039 A 
HETATM   23  C16 UNL     1      26.681   2.311  51.191  1.00  0.00     0.236 A 
HETATM   24  N5  UNL     1      25.634   2.776  50.443  1.00  0.00    -0.223 NA
HETATM   25  C17 UNL     1      24.377   2.390  50.715  1.00  0.00     0.145 A 
ENDBRANCH   7   9
TORSDOF 1
ENDMDL
MODEL 6
REMARK VINA RESULT:      -7.8      1.722      4.006
REMARK  1 active torsions:
REMARK  status: ('A' for Active; 'I' for Inactive)
REMARK    1  A    between atoms: C7_7  and  N1_8 
ROOT
HETATM    1  C1  UNL     1      25.140   7.001  48.205  1.00  0.00     0.018 C 
HETATM    2  C2  UNL     1      24.640   5.992  48.556  1.00  0.00    -0.078 C 
HETATM    3  C3  UNL     1      24.030   4.757  48.960  1.00  0.00     0.019 A 
HETATM    4  C4  UNL     1      23.414   3.833  48.119  1.00  0.00     0.021 A 
HETATM    5  C5  UNL     1      22.853   2.658  48.568  1.00  0.00     0.004 A 
HETATM    6  C6  UNL     1      22.911   2.401  49.922  1.00  0.00     0.030 A 
HETATM    7  C7  UNL     1      23.503   3.257  50.860  1.00  0.00     0.039 A 
HETATM    8  C20 UNL     1      24.016   4.375  50.281  1.00  0.00     0.050 A 
ENDROOT
BRANCH   7   9
HETATM    9  N1  UNL     1      23.511   2.895  52.228  1.00  0.00    -0.313 N 
HETATM   10  C8  UNL     1      24.564   3.111  53.184  1.00  0.00     0.276 C 
HETATM   11  N2  UNL     1      25.809   2.421  52.975  1.00  0.00    -0.292 N 
HETATM   12  C9  UNL     1      26.852   2.451  52.006  1.00  0.00     0.175 C 
HETATM   13  N3  UNL     1      26.021   1.482  53.964  1.00  0.00    -0.192 NA
HETATM   14  C10 UNL     1      25.649   0.286  54.106  1.00  0.00     0.116 C 
HETATM   15  C11 UNL     1      25.061  -1.130  54.024  1.00  0.00     0.087 C 
HETATM   16  C12 UNL     1      23.565  -0.933  53.973  1.00  0.00    -0.052 A 
HETATM   17  C13 UNL     1      22.382  -1.545  54.313  1.00  0.00     0.010 A 
HETATM   18  C19 UNL     1      23.221   0.268  53.418  1.00  0.00     0.025 A 
HETATM   19  C14 UNL     1      21.189  -0.916  54.067  1.00  0.00     0.033 A 
HETATM   20  C15 UNL     1      21.058   0.348  53.476  1.00  0.00     0.072 A 
HETATM   21  N4  UNL     1      19.848   0.926  53.269  1.00  0.00    -0.241 NA
HETATM   22  C18 UNL     1      22.169   1.063  53.090  1.00  0.00     0.039 A 
HETATM   23  C16 UNL     1      19.881   2.154  52.699  1.00  0.00     0.236 A 
HETATM   24  N5  UNL     1      21.010   2.833  52.332  1.00  0.00    -0.223 NA
HETATM   25  C17 UNL     1      22.224   2.291  52.524  1.00  0.00     0.145 A 
ENDBRANCH   7   9
TORSDOF 1
ENDMDL
MODEL 7
REMARK VINA RESULT:      -7.7      2.087      5.311
REMARK  1 active torsions:
REMARK  status: ('A' for Active; 'I' for Inactive)
REMARK    1  A    between atoms: C7_7  and  N1_8 
ROOT
HETATM    1  C1  UNL     1      27.531  -2.677  52.499  1.00  0.00     0.018 C 
HETATM    2  C2  UNL     1      27.297  -1.538  52.701  1.00  0.00    -0.078 C 
HETATM    3  C3  UNL     1      27.037  -0.149  52.951  1.00  0.00     0.019 A 
HETATM    4  C4  UNL     1      27.932   0.767  53.499  1.00  0.00     0.021 A 
HETATM    5  C5  UNL     1      27.624   2.093  53.707  1.00  0.00     0.004 A 
HETATM    6  C6  UNL     1      26.360   2.517  53.350  1.00  0.00     0.030 A 
HETATM    7  C7  UNL     1      25.380   1.685  52.794  1.00  0.00     0.039 A 
HETATM    8  C20 UNL     1      25.817   0.407  52.644  1.00  0.00     0.050 A 
ENDROOT
BRANCH   7   9
HETATM    9  N1  UNL     1      24.115   2.224  52.462  1.00  0.00    -0.313 N 
HETATM   10  C8  UNL     1      22.881   2.069  53.185  1.00  0.00     0.276 C 
HETATM   11  N2  UNL     1      22.317   0.748  53.269  1.00  0.00    -0.292 N 
HETATM   12  C9  UNL     1      22.682  -0.490  53.873  1.00  0.00     0.175 C 
HETATM   13  N3  UNL     1      21.131   0.674  52.567  1.00  0.00    -0.192 NA
HETATM   14  C10 UNL     1      20.865   0.459  51.354  1.00  0.00     0.116 C 
HETATM   15  C11 UNL     1      20.829   0.179  49.845  1.00  0.00     0.087 C 
HETATM   16  C12 UNL     1      21.598   1.315  49.215  1.00  0.00    -0.052 A 
HETATM   17  C13 UNL     1      21.681   2.055  48.059  1.00  0.00     0.010 A 
HETATM   18  C19 UNL     1      22.541   1.831  50.060  1.00  0.00     0.025 A 
HETATM   19  C14 UNL     1      22.593   3.073  47.960  1.00  0.00     0.033 A 
HETATM   20  C15 UNL     1      23.487   3.447  48.972  1.00  0.00     0.072 A 
HETATM   21  N4  UNL     1      24.362   4.474  48.821  1.00  0.00    -0.241 NA
HETATM   22  C18 UNL     1      23.504   2.783  50.178  1.00  0.00     0.039 A 
HETATM   23  C16 UNL     1      25.154   4.725  49.890  1.00  0.00     0.236 A 
HETATM   24  N5  UNL     1      25.136   4.040  51.074  1.00  0.00    -0.223 NA
HETATM   25  C17 UNL     1      24.284   3.019  51.259  1.00  0.00     0.145 A 
ENDBRANCH   7   9
TORSDOF 1
ENDMDL
MODEL 8
REMARK VINA RESULT:      -7.6      2.024      5.499
REMARK  1 active torsions:
REMARK  status: ('A' for Active; 'I' for Inactive)
REMARK    1  A    between atoms: C7_7  and  N1_8 
ROOT
HETATM    1  C1  UNL     1      26.092  -0.722  52.855  1.00  0.00     0.018 C 
HETATM    2  C2  UNL     1      24.970  -0.451  53.102  1.00  0.00    -0.078 C 
HETATM    3  C3  UNL     1      23.607  -0.136  53.421  1.00  0.00     0.019 A 
HETATM    4  C4  UNL     1      22.817  -0.784  54.369  1.00  0.00     0.021 A 
HETATM    5  C5  UNL     1      21.514  -0.428  54.636  1.00  0.00     0.004 A 
HETATM    6  C6  UNL     1      20.980   0.623  53.920  1.00  0.00     0.030 A 
HETATM    7  C7  UNL     1      21.680   1.344  52.944  1.00  0.00     0.039 A 
HETATM    8  C20 UNL     1      22.951   0.889  52.782  1.00  0.00     0.050 A 
ENDROOT
BRANCH   7   9
HETATM    9  N1  UNL     1      21.037   2.408  52.268  1.00  0.00    -0.313 N 
HETATM   10  C8  UNL     1      19.633   2.542  51.983  1.00  0.00     0.276 C 
HETATM   11  N2  UNL     1      19.039   1.589  51.085  1.00  0.00    -0.292 N 
HETATM   12  C9  UNL     1      18.775   0.188  51.098  1.00  0.00     0.175 C 
HETATM   13  N3  UNL     1      18.647   2.197  49.910  1.00  0.00    -0.192 NA
HETATM   14  C10 UNL     1      19.256   2.475  48.843  1.00  0.00     0.116 C 
HETATM   15  C11 UNL     1      20.229   2.693  47.675  1.00  0.00     0.087 C 
HETATM   16  C12 UNL     1      21.325   3.568  48.234  1.00  0.00    -0.052 A 
HETATM   17  C13 UNL     1      22.242   4.522  47.862  1.00  0.00     0.010 A 
HETATM   18  C19 UNL     1      21.487   3.396  49.581  1.00  0.00     0.025 A 
HETATM   19  C14 UNL     1      23.070   5.081  48.801  1.00  0.00     0.033 A 
HETATM   20  C15 UNL     1      23.069   4.755  50.164  1.00  0.00     0.072 A 
HETATM   21  N4  UNL     1      23.906   5.351  51.051  1.00  0.00    -0.241 NA
HETATM   22  C18 UNL     1      22.198   3.812  50.662  1.00  0.00     0.039 A 
HETATM   23  C16 UNL     1      23.780   4.941  52.335  1.00  0.00     0.236 A 
HETATM   24  N5  UNL     1      22.897   4.001  52.789  1.00  0.00    -0.223 NA
HETATM   25  C17 UNL     1      22.053   3.391  51.940  1.00  0.00     0.145 A 
ENDBRANCH   7   9
TORSDOF 1
ENDMDL
MODEL 9
REMARK VINA RESULT:      -7.3      2.025      4.252
REMARK  1 active torsions:
REMARK  status: ('A' for Active; 'I' for Inactive)
REMARK    1  A    between atoms: C7_7  and  N1_8 
ROOT
HETATM    1  C1  UNL     1      21.664   3.618  46.168  1.00  0.00     0.018 C 
HETATM    2  C2  UNL     1      22.270   3.999  47.106  1.00  0.00    -0.078 C 
HETATM    3  C3  UNL     1      23.015   4.480  48.235  1.00  0.00     0.019 A 
HETATM    4  C4  UNL     1      23.954   5.509  48.219  1.00  0.00     0.021 A 
HETATM    5  C5  UNL     1      24.631   5.932  49.341  1.00  0.00     0.004 A 
HETATM    6  C6  UNL     1      24.354   5.293  50.531  1.00  0.00     0.030 A 
HETATM    7  C7  UNL     1      23.431   4.247  50.666  1.00  0.00     0.039 A 
HETATM    8  C20 UNL     1      22.837   3.933  49.484  1.00  0.00     0.050 A 
ENDROOT
BRANCH   7   9
HETATM    9  N1  UNL     1      23.220   3.662  51.936  1.00  0.00    -0.313 N 
HETATM   10  C8  UNL     1      24.187   3.477  52.985  1.00  0.00     0.276 C 
HETATM   11  N2  UNL     1      25.283   2.580  52.734  1.00  0.00    -0.292 N 
HETATM   12  C9  UNL     1      26.409   2.550  51.861  1.00  0.00     0.175 C 
HETATM   13  N3  UNL     1      25.197   1.461  53.537  1.00  0.00    -0.192 NA
HETATM   14  C10 UNL     1      24.579   0.369  53.423  1.00  0.00     0.116 C 
HETATM   15  C11 UNL     1      23.731  -0.851  53.032  1.00  0.00     0.087 C 
HETATM   16  C12 UNL     1      22.320  -0.329  52.919  1.00  0.00    -0.052 A 
HETATM   17  C13 UNL     1      21.009  -0.719  53.054  1.00  0.00     0.010 A 
HETATM   18  C19 UNL     1      22.284   0.996  52.581  1.00  0.00     0.025 A 
HETATM   19  C14 UNL     1      19.999   0.186  52.853  1.00  0.00     0.033 A 
HETATM   20  C15 UNL     1      20.188   1.531  52.507  1.00  0.00     0.072 A 
HETATM   21  N4  UNL     1      19.147   2.385  52.332  1.00  0.00    -0.241 NA
HETATM   22  C18 UNL     1      21.454   2.044  52.341  1.00  0.00     0.039 A 
HETATM   23  C16 UNL     1      19.486   3.655  52.011  1.00  0.00     0.236 A 
HETATM   24  N5  UNL     1      20.761   4.126  51.858  1.00  0.00    -0.223 NA
HETATM   25  C17 UNL     1      21.814   3.310  52.024  1.00  0.00     0.145 A 
ENDBRANCH   7   9
TORSDOF 1
ENDMDL
