MODEL 1
REMARK VINA RESULT:      -7.9      0.000      0.000
REMARK  4 active torsions:
REMARK  status: ('A' for Active; 'I' for Inactive)
REMARK    1  A    between atoms: O1_1  and  C1_2 
REMARK    2  A    between atoms: C3_4  and  N1_5 
REMARK    3  A    between atoms: N1_5  and  C4_6 
REMARK    4  A    between atoms: C5_7  and  C6_8 
ROOT
HETATM    1  C1  UNL     1      24.905  -0.773  55.060  1.00  0.00     0.061 C 
HETATM    2  C2  UNL     1      25.945   0.108  54.746  1.00  0.00     0.062 C 
HETATM    3  C3  UNL     1      26.355   1.170  53.783  1.00  0.00     0.034 C 
HETATM    4  C7  UNL     1      26.102   1.920  52.772  1.00  0.00     0.029 C 
HETATM    5  C8  UNL     1      25.523   2.603  51.651  1.00  0.00     0.005 C 
HETATM    6  C9  UNL     1      24.372   2.732  50.945  1.00  0.00     0.039 C 
HETATM    7  C10 UNL     1      23.387   1.869  51.622  1.00  0.00     0.093 A 
HETATM    8  N2  UNL     1      23.832   0.911  52.232  1.00  0.00    -0.264 NA
HETATM    9  C11 UNL     1      23.198   0.191  53.052  1.00  0.00     0.111 A 
HETATM   10  C12 UNL     1      24.358  -0.403  53.301  1.00  0.00     0.053 A 
HETATM   11  C13 UNL     1      23.579  -0.905  54.281  1.00  0.00     0.066 A 
HETATM   12  C14 UNL     1      22.516  -1.179  55.075  1.00  0.00    -0.006 A 
HETATM   13  C15 UNL     1      21.450  -0.429  54.550  1.00  0.00     0.014 A 
HETATM   14  C16 UNL     1      21.910   0.322  53.425  1.00  0.00     0.017 A 
HETATM   15  S1  UNL     1      21.541   1.847  52.285  1.00  0.00    -0.073 SA
ENDROOT
BRANCH   3  16
HETATM   16  N1  UNL     1      27.736   1.465  54.170  1.00  0.00    -0.366 N 
HETATM   17  H3  UNL     1      28.183   1.875  55.005  1.00  0.00     0.165 HD
BRANCH  16  18
HETATM   18  C4  UNL     1      29.008   1.317  53.630  1.00  0.00     0.085 C 
HETATM   19  C5  UNL     1      29.813   0.259  53.538  1.00  0.00     0.000 C 
BRANCH  19  20
HETATM   20  C6  UNL     1      29.858  -1.167  53.890  1.00  0.00     0.108 C 
HETATM   21  I1  UNL     1      28.300  -2.262  52.900  1.00  0.00    -0.086 I 
ENDBRANCH  19  20
ENDBRANCH  16  18
ENDBRANCH   3  16
BRANCH   1  22
HETATM   22  O1  UNL     1      24.992  -1.612  56.118  1.00  0.00    -0.364 OA
HETATM   23  H1  UNL     1      24.319  -1.869  56.798  1.00  0.00     0.217 HD
ENDBRANCH   1  22
TORSDOF 4
ENDMDL
MODEL 2
REMARK VINA RESULT:      -7.3      3.302      5.726
REMARK  4 active torsions:
REMARK  status: ('A' for Active; 'I' for Inactive)
REMARK    1  A    between atoms: O1_1  and  C1_2 
REMARK    2  A    between atoms: C3_4  and  N1_5 
REMARK    3  A    between atoms: N1_5  and  C4_6 
REMARK    4  A    between atoms: C5_7  and  C6_8 
ROOT
HETATM    1  C1  UNL     1      26.708   2.123  52.100  1.00  0.00     0.061 C 
HETATM    2  C2  UNL     1      25.478   2.524  51.570  1.00  0.00     0.062 C 
HETATM    3  C3  UNL     1      24.039   2.140  51.477  1.00  0.00     0.034 C 
HETATM    4  C7  UNL     1      23.072   1.350  51.775  1.00  0.00     0.029 C 
HETATM    5  C8  UNL     1      22.228   0.307  52.283  1.00  0.00     0.005 C 
HETATM    6  C9  UNL     1      22.219  -0.764  53.115  1.00  0.00     0.039 C 
HETATM    7  C10 UNL     1      23.569  -0.823  53.706  1.00  0.00     0.093 A 
HETATM    8  N2  UNL     1      24.475  -0.352  53.040  1.00  0.00    -0.264 NA
HETATM    9  C11 UNL     1      25.644  -0.099  53.445  1.00  0.00     0.111 A 
HETATM   10  C12 UNL     1      25.846   0.461  52.259  1.00  0.00     0.053 A 
HETATM   11  C13 UNL     1      26.949   0.845  52.933  1.00  0.00     0.066 A 
HETATM   12  C14 UNL     1      27.880   1.007  53.903  1.00  0.00    -0.006 A 
HETATM   13  C15 UNL     1      27.399   0.289  55.012  1.00  0.00     0.014 A 
HETATM   14  C16 UNL     1      26.137  -0.294  54.684  1.00  0.00     0.017 A 
HETATM   15  S1  UNL     1      24.505  -1.045  55.415  1.00  0.00    -0.073 SA
ENDROOT
BRANCH   3  16
HETATM   16  N1  UNL     1      23.477   3.144  50.570  1.00  0.00    -0.366 N 
HETATM   17  H3  UNL     1      23.130   4.108  50.683  1.00  0.00     0.165 HD
BRANCH  16  18
HETATM   18  C4  UNL     1      23.190   3.257  49.215  1.00  0.00     0.085 C 
HETATM   19  C5  UNL     1      22.378   2.560  48.422  1.00  0.00     0.000 C 
BRANCH  19  20
HETATM   20  C6  UNL     1      21.439   1.430  48.467  1.00  0.00     0.108 C 
HETATM   21  I1  UNL     1      19.685   1.923  49.603  1.00  0.00    -0.086 I 
ENDBRANCH  19  20
ENDBRANCH  16  18
ENDBRANCH   3  16
BRANCH   1  22
HETATM   22  O1  UNL     1      27.827   2.859  51.911  1.00  0.00    -0.364 OA
HETATM   23  H1  UNL     1      28.781   2.640  52.065  1.00  0.00     0.217 HD
ENDBRANCH   1  22
TORSDOF 4
ENDMDL
MODEL 3
REMARK VINA RESULT:      -7.3      2.274      3.900
REMARK  4 active torsions:
REMARK  status: ('A' for Active; 'I' for Inactive)
REMARK    1  A    between atoms: O1_1  and  C1_2 
REMARK    2  A    between atoms: C3_4  and  N1_5 
REMARK    3  A    between atoms: N1_5  and  C4_6 
REMARK    4  A    between atoms: C5_7  and  C6_8 
ROOT
HETATM    1  C1  UNL     1      25.112   1.825  51.534  1.00  0.00     0.061 C 
HETATM    2  C2  UNL     1      25.482   0.713  52.295  1.00  0.00     0.062 C 
HETATM    3  C3  UNL     1      24.972  -0.270  53.294  1.00  0.00     0.034 C 
HETATM    4  C7  UNL     1      24.016  -0.739  54.013  1.00  0.00     0.029 C 
HETATM    5  C8  UNL     1      22.771  -1.023  54.666  1.00  0.00     0.005 C 
HETATM    6  C9  UNL     1      21.463  -0.667  54.694  1.00  0.00     0.039 C 
HETATM    7  C10 UNL     1      21.304   0.358  53.646  1.00  0.00     0.093 A 
HETATM    8  N2  UNL     1      22.294   1.019  53.377  1.00  0.00    -0.264 NA
HETATM    9  C11 UNL     1      22.435   1.775  52.377  1.00  0.00     0.111 A 
HETATM   10  C12 UNL     1      23.696   1.918  52.766  1.00  0.00     0.053 A 
HETATM   11  C13 UNL     1      23.719   2.494  51.547  1.00  0.00     0.066 A 
HETATM   12  C14 UNL     1      23.347   2.976  50.336  1.00  0.00    -0.006 A 
HETATM   13  C15 UNL     1      21.973   2.698  50.227  1.00  0.00     0.014 A 
HETATM   14  C16 UNL     1      21.535   2.014  51.402  1.00  0.00     0.017 A 
HETATM   15  S1  UNL     1      20.151   0.878  52.147  1.00  0.00    -0.073 SA
ENDROOT
BRANCH   3  16
HETATM   16  N1  UNL     1      26.161  -1.051  53.643  1.00  0.00    -0.366 N 
HETATM   17  H3  UNL     1      26.439  -1.622  54.455  1.00  0.00     0.165 HD
BRANCH  16  18
HETATM   18  C4  UNL     1      27.380  -1.378  53.062  1.00  0.00     0.085 C 
HETATM   19  C5  UNL     1      28.613  -0.917  53.274  1.00  0.00     0.000 C 
BRANCH  19  20
HETATM   20  C6  UNL     1      29.335   0.057  54.105  1.00  0.00     0.108 C 
HETATM   21  I1  UNL     1      28.647   2.056  53.733  1.00  0.00    -0.086 I 
ENDBRANCH  19  20
ENDBRANCH  16  18
ENDBRANCH   3  16
BRANCH   1  22
HETATM   22  O1  UNL     1      25.987   2.424  50.695  1.00  0.00    -0.364 OA
HETATM   23  H1  UNL     1      26.792   2.972  50.880  1.00  0.00     0.217 HD
ENDBRANCH   1  22
TORSDOF 4
ENDMDL
MODEL 4
REMARK VINA RESULT:      -7.3      2.994      4.818
REMARK  4 active torsions:
REMARK  status: ('A' for Active; 'I' for Inactive)
REMARK    1  A    between atoms: O1_1  and  C1_2 
REMARK    2  A    between atoms: C3_4  and  N1_5 
REMARK    3  A    between atoms: N1_5  and  C4_6 
REMARK    4  A    between atoms: C5_7  and  C6_8 
ROOT
HETATM    1  C1  UNL     1      25.427   2.251  53.491  1.00  0.00     0.061 C 
HETATM    2  C2  UNL     1      24.494   3.212  53.088  1.00  0.00     0.062 C 
HETATM    3  C3  UNL     1      23.112   3.380  52.553  1.00  0.00     0.034 C 
HETATM    4  C7  UNL     1      21.991   2.878  52.178  1.00  0.00     0.029 C 
HETATM    5  C8  UNL     1      20.883   2.030  51.847  1.00  0.00     0.005 C 
HETATM    6  C9  UNL     1      20.456   0.743  51.901  1.00  0.00     0.039 C 
HETATM    7  C10 UNL     1      21.534  -0.009  52.568  1.00  0.00     0.093 A 
HETATM    8  N2  UNL     1      22.662   0.442  52.455  1.00  0.00    -0.264 NA
HETATM    9  C11 UNL     1      23.675   0.090  53.121  1.00  0.00     0.111 A 
HETATM   10  C12 UNL     1      24.313   1.088  52.523  1.00  0.00     0.053 A 
HETATM   11  C13 UNL     1      25.202   0.723  53.469  1.00  0.00     0.066 A 
HETATM   12  C14 UNL     1      25.806   0.079  54.497  1.00  0.00    -0.006 A 
HETATM   13  C15 UNL     1      24.904  -0.923  54.895  1.00  0.00     0.014 A 
HETATM   14  C16 UNL     1      23.729  -0.849  54.087  1.00  0.00     0.017 A 
HETATM   15  S1  UNL     1      21.857  -1.342  53.970  1.00  0.00    -0.073 SA
ENDROOT
BRANCH   3  16
HETATM   16  N1  UNL     1      23.015   4.819  52.304  1.00  0.00    -0.366 N 
HETATM   17  H3  UNL     1      22.538   5.604  52.773  1.00  0.00     0.165 HD
BRANCH  16  18
HETATM   18  C4  UNL     1      23.511   5.739  51.388  1.00  0.00     0.085 C 
HETATM   19  C5  UNL     1      24.057   5.580  50.182  1.00  0.00     0.000 C 
BRANCH  19  20
HETATM   20  C6  UNL     1      24.419   4.521  49.230  1.00  0.00     0.108 C 
HETATM   21  I1  UNL     1      26.307   3.634  49.734  1.00  0.00    -0.086 I 
ENDBRANCH  19  20
ENDBRANCH  16  18
ENDBRANCH   3  16
BRANCH   1  22
HETATM   22  O1  UNL     1      26.649   2.608  53.948  1.00  0.00    -0.364 OA
HETATM   23  H1  UNL     1      27.172   3.439  53.819  1.00  0.00     0.217 HD
ENDBRANCH   1  22
TORSDOF 4
ENDMDL
MODEL 5
REMARK VINA RESULT:      -7.3      3.181      5.720
REMARK  4 active torsions:
REMARK  status: ('A' for Active; 'I' for Inactive)
REMARK    1  A    between atoms: O1_1  and  C1_2 
REMARK    2  A    between atoms: C3_4  and  N1_5 
REMARK    3  A    between atoms: N1_5  and  C4_6 
REMARK    4  A    between atoms: C5_7  and  C6_8 
ROOT
HETATM    1  C1  UNL     1      26.469   2.144  51.894  1.00  0.00     0.061 C 
HETATM    2  C2  UNL     1      25.189   2.487  51.449  1.00  0.00     0.062 C 
HETATM    3  C3  UNL     1      23.763   2.050  51.471  1.00  0.00     0.034 C 
HETATM    4  C7  UNL     1      22.851   1.232  51.856  1.00  0.00     0.029 C 
HETATM    5  C8  UNL     1      22.086   0.172  52.446  1.00  0.00     0.005 C 
HETATM    6  C9  UNL     1      22.179  -0.879  53.299  1.00  0.00     0.039 C 
HETATM    7  C10 UNL     1      23.569  -0.875  53.790  1.00  0.00     0.093 A 
HETATM    8  N2  UNL     1      24.406  -0.387  53.048  1.00  0.00    -0.264 NA
HETATM    9  C11 UNL     1      25.591  -0.082  53.361  1.00  0.00     0.111 A 
HETATM   10  C12 UNL     1      25.684   0.456  52.151  1.00  0.00     0.053 A 
HETATM   11  C13 UNL     1      26.818   0.895  52.734  1.00  0.00     0.066 A 
HETATM   12  C14 UNL     1      27.812   1.114  53.629  1.00  0.00    -0.006 A 
HETATM   13  C15 UNL     1      27.440   0.405  54.785  1.00  0.00     0.014 A 
HETATM   14  C16 UNL     1      26.180  -0.231  54.564  1.00  0.00     0.017 A 
HETATM   15  S1  UNL     1      24.636  -1.023  55.429  1.00  0.00    -0.073 SA
ENDROOT
BRANCH   3  16
HETATM   16  N1  UNL     1      23.098   3.010  50.588  1.00  0.00    -0.366 N 
HETATM   17  H3  UNL     1      22.482   3.824  50.736  1.00  0.00     0.165 HD
BRANCH  16  18
HETATM   18  C4  UNL     1      23.016   3.264  49.224  1.00  0.00     0.085 C 
HETATM   19  C5  UNL     1      23.310   4.348  48.506  1.00  0.00     0.000 C 
BRANCH  19  20
HETATM   20  C6  UNL     1      23.815   5.718  48.672  1.00  0.00     0.108 C 
HETATM   21  I1  UNL     1      25.905   5.721  49.161  1.00  0.00    -0.086 I 
ENDBRANCH  19  20
ENDBRANCH  16  18
ENDBRANCH   3  16
BRANCH   1  22
HETATM   22  O1  UNL     1      27.542   2.915  51.608  1.00  0.00    -0.364 OA
HETATM   23  H1  UNL     1      28.232   2.829  50.902  1.00  0.00     0.217 HD
ENDBRANCH   1  22
TORSDOF 4
ENDMDL
MODEL 6
REMARK VINA RESULT:      -7.2      3.058      4.145
REMARK  4 active torsions:
REMARK  status: ('A' for Active; 'I' for Inactive)
REMARK    1  A    between atoms: O1_1  and  C1_2 
REMARK    2  A    between atoms: C3_4  and  N1_5 
REMARK    3  A    between atoms: N1_5  and  C4_6 
REMARK    4  A    between atoms: C5_7  and  C6_8 
ROOT
HETATM    1  C1  UNL     1      25.985   0.487  54.140  1.00  0.00     0.061 C 
HETATM    2  C2  UNL     1      25.859   1.490  53.175  1.00  0.00     0.062 C 
HETATM    3  C3  UNL     1      24.971   1.991  52.085  1.00  0.00     0.034 C 
HETATM    4  C7  UNL     1      23.888   1.908  51.401  1.00  0.00     0.029 C 
HETATM    5  C8  UNL     1      22.615   1.560  50.839  1.00  0.00     0.005 C 
HETATM    6  C9  UNL     1      21.556   0.727  51.003  1.00  0.00     0.039 C 
HETATM    7  C10 UNL     1      21.849  -0.060  52.215  1.00  0.00     0.093 A 
HETATM    8  N2  UNL     1      23.027  -0.224  52.486  1.00  0.00    -0.264 NA
HETATM    9  C11 UNL     1      23.487  -0.661  53.577  1.00  0.00     0.111 A 
HETATM   10  C12 UNL     1      24.688  -0.377  53.091  1.00  0.00     0.053 A 
HETATM   11  C13 UNL     1      24.974  -0.656  54.379  1.00  0.00     0.066 A 
HETATM   12  C14 UNL     1      24.859  -1.005  55.683  1.00  0.00    -0.006 A 
HETATM   13  C15 UNL     1      23.492  -1.265  55.884  1.00  0.00     0.014 A 
HETATM   14  C16 UNL     1      22.784  -1.040  54.664  1.00  0.00     0.017 A 
HETATM   15  S1  UNL     1      21.041  -0.690  53.888  1.00  0.00    -0.073 SA
ENDROOT
BRANCH   3  16
HETATM   16  N1  UNL     1      25.741   3.088  51.496  1.00  0.00    -0.366 N 
HETATM   17  H3  UNL     1      25.987   4.043  51.797  1.00  0.00     0.165 HD
BRANCH  16  18
HETATM   18  C4  UNL     1      26.469   3.324  50.336  1.00  0.00     0.085 C 
HETATM   19  C5  UNL     1      26.506   4.372  49.513  1.00  0.00     0.000 C 
BRANCH  19  20
HETATM   20  C6  UNL     1      25.908   5.702  49.339  1.00  0.00     0.108 C 
HETATM   21  I1  UNL     1      27.258   7.037  48.338  1.00  0.00    -0.086 I 
ENDBRANCH  19  20
ENDBRANCH  16  18
ENDBRANCH   3  16
BRANCH   1  22
HETATM   22  O1  UNL     1      27.050   0.444  54.973  1.00  0.00    -0.364 OA
HETATM   23  H1  UNL     1      27.787  -0.213  55.048  1.00  0.00     0.217 HD
ENDBRANCH   1  22
TORSDOF 4
ENDMDL
MODEL 7
REMARK VINA RESULT:      -7.0      3.185      5.756
REMARK  4 active torsions:
REMARK  status: ('A' for Active; 'I' for Inactive)
REMARK    1  A    between atoms: O1_1  and  C1_2 
REMARK    2  A    between atoms: C3_4  and  N1_5 
REMARK    3  A    between atoms: N1_5  and  C4_6 
REMARK    4  A    between atoms: C5_7  and  C6_8 
ROOT
HETATM    1  C1  UNL     1      25.411  -0.035  54.425  1.00  0.00     0.061 C 
HETATM    2  C2  UNL     1      24.170  -0.406  53.899  1.00  0.00     0.062 C 
HETATM    3  C3  UNL     1      23.135  -0.014  52.899  1.00  0.00     0.034 C 
HETATM    4  C7  UNL     1      22.723   0.763  51.964  1.00  0.00     0.029 C 
HETATM    5  C8  UNL     1      22.556   1.782  50.968  1.00  0.00     0.005 C 
HETATM    6  C9  UNL     1      23.199   2.811  50.361  1.00  0.00     0.039 C 
HETATM    7  C10 UNL     1      24.553   2.836  50.942  1.00  0.00     0.093 A 
HETATM    8  N2  UNL     1      24.668   2.396  52.074  1.00  0.00    -0.264 NA
HETATM    9  C11 UNL     1      25.751   2.120  52.659  1.00  0.00     0.111 A 
HETATM   10  C12 UNL     1      25.002   1.619  53.634  1.00  0.00     0.053 A 
HETATM   11  C13 UNL     1      26.233   1.199  53.992  1.00  0.00     0.066 A 
HETATM   12  C14 UNL     1      27.570   0.987  54.017  1.00  0.00    -0.006 A 
HETATM   13  C15 UNL     1      28.078   1.651  52.887  1.00  0.00     0.014 A 
HETATM   14  C16 UNL     1      27.000   2.252  52.169  1.00  0.00     0.017 A 
HETATM   15  S1  UNL     1      26.449   2.971  50.454  1.00  0.00    -0.073 SA
ENDROOT
BRANCH   3  16
HETATM   16  N1  UNL     1      22.051  -0.970  53.138  1.00  0.00    -0.366 N 
HETATM   17  H3  UNL     1      21.868  -1.943  52.851  1.00  0.00     0.165 HD
BRANCH  16  18
HETATM   18  C4  UNL     1      20.852  -1.008  53.840  1.00  0.00     0.085 C 
HETATM   19  C5  UNL     1      19.603  -0.723  53.472  1.00  0.00     0.000 C 
BRANCH  19  20
HETATM   20  C6  UNL     1      18.838  -0.269  52.303  1.00  0.00     0.108 C 
HETATM   21  I1  UNL     1      16.784  -0.878  52.433  1.00  0.00    -0.086 I 
ENDBRANCH  19  20
ENDBRANCH  16  18
ENDBRANCH   3  16
BRANCH   1  22
HETATM   22  O1  UNL     1      26.009  -0.765  55.395  1.00  0.00    -0.364 OA
HETATM   23  H1  UNL     1      25.858  -1.698  55.689  1.00  0.00     0.217 HD
ENDBRANCH   1  22
TORSDOF 4
ENDMDL
MODEL 8
REMARK VINA RESULT:      -6.7      3.474      6.312
REMARK  4 active torsions:
REMARK  status: ('A' for Active; 'I' for Inactive)
REMARK    1  A    between atoms: O1_1  and  C1_2 
REMARK    2  A    between atoms: C3_4  and  N1_5 
REMARK    3  A    between atoms: N1_5  and  C4_6 
REMARK    4  A    between atoms: C5_7  and  C6_8 
ROOT
HETATM    1  C1  UNL     1      25.114   3.263  51.405  1.00  0.00     0.061 C 
HETATM    2  C2  UNL     1      23.752   3.471  51.647  1.00  0.00     0.062 C 
HETATM    3  C3  UNL     1      22.526   2.819  52.189  1.00  0.00     0.034 C 
HETATM    4  C7  UNL     1      21.946   1.816  52.744  1.00  0.00     0.029 C 
HETATM    5  C8  UNL     1      21.606   0.566  53.360  1.00  0.00     0.005 C 
HETATM    6  C9  UNL     1      22.146  -0.584  53.835  1.00  0.00     0.039 C 
HETATM    7  C10 UNL     1      23.603  -0.444  53.661  1.00  0.00     0.093 A 
HETATM    8  N2  UNL     1      23.976   0.285  52.757  1.00  0.00    -0.264 NA
HETATM    9  C11 UNL     1      25.149   0.715  52.582  1.00  0.00     0.111 A 
HETATM   10  C12 UNL     1      24.645   1.454  51.602  1.00  0.00     0.053 A 
HETATM   11  C13 UNL     1      25.888   1.963  51.715  1.00  0.00     0.066 A 
HETATM   12  C14 UNL     1      27.164   2.183  52.113  1.00  0.00    -0.006 A 
HETATM   13  C15 UNL     1      27.409   1.244  53.130  1.00  0.00     0.014 A 
HETATM   14  C16 UNL     1      26.232   0.464  53.345  1.00  0.00     0.017 A 
HETATM   15  S1  UNL     1      25.309  -0.692  54.599  1.00  0.00    -0.073 SA
ENDROOT
BRANCH   3  16
HETATM   16  N1  UNL     1      21.470   3.796  51.916  1.00  0.00    -0.366 N 
HETATM   17  H3  UNL     1      20.633   4.119  52.424  1.00  0.00     0.165 HD
BRANCH  16  18
HETATM   18  C4  UNL     1      21.144   4.700  50.912  1.00  0.00     0.085 C 
HETATM   19  C5  UNL     1      20.687   4.520  49.673  1.00  0.00     0.000 C 
BRANCH  19  20
HETATM   20  C6  UNL     1      20.310   3.444  48.747  1.00  0.00     0.108 C 
HETATM   21  I1  UNL     1      21.995   2.205  48.266  1.00  0.00    -0.086 I 
ENDBRANCH  19  20
ENDBRANCH  16  18
ENDBRANCH   3  16
BRANCH   1  22
HETATM   22  O1  UNL     1      25.885   4.230  50.857  1.00  0.00    -0.364 OA
HETATM   23  H1  UNL     1      26.238   4.333  49.937  1.00  0.00     0.217 HD
ENDBRANCH   1  22
TORSDOF 4
ENDMDL
MODEL 9
REMARK VINA RESULT:      -6.6      3.717      6.261
REMARK  4 active torsions:
REMARK  status: ('A' for Active; 'I' for Inactive)
REMARK    1  A    between atoms: O1_1  and  C1_2 
REMARK    2  A    between atoms: C3_4  and  N1_5 
REMARK    3  A    between atoms: N1_5  and  C4_6 
REMARK    4  A    between atoms: C5_7  and  C6_8 
ROOT
HETATM    1  C1  UNL     1      21.990   0.021  52.506  1.00  0.00     0.061 C 
HETATM    2  C2  UNL     1      21.536   0.484  51.268  1.00  0.00     0.062 C 
HETATM    3  C3  UNL     1      21.869   1.411  50.148  1.00  0.00     0.034 C 
HETATM    4  C7  UNL     1      22.662   2.259  49.598  1.00  0.00     0.029 C 
HETATM    5  C8  UNL     1      23.736   3.143  49.250  1.00  0.00     0.005 C 
HETATM    6  C9  UNL     1      24.971   3.545  49.643  1.00  0.00     0.039 C 
HETATM    7  C10 UNL     1      25.294   2.742  50.836  1.00  0.00     0.093 A 
HETATM    8  N2  UNL     1      24.348   2.347  51.498  1.00  0.00    -0.264 NA
HETATM    9  C11 UNL     1      24.389   1.473  52.408  1.00  0.00     0.111 A 
HETATM   10  C12 UNL     1      23.065   1.560  52.438  1.00  0.00     0.053 A 
HETATM   11  C13 UNL     1      23.286   0.478  53.211  1.00  0.00     0.066 A 
HETATM   12  C14 UNL     1      23.895  -0.514  53.905  1.00  0.00    -0.006 A 
HETATM   13  C15 UNL     1      25.273  -0.326  53.699  1.00  0.00     0.014 A 
HETATM   14  C16 UNL     1      25.473   0.798  52.841  1.00  0.00     0.017 A 
HETATM   15  S1  UNL     1      26.725   1.670  51.644  1.00  0.00    -0.073 SA
ENDROOT
BRANCH   3  16
HETATM   16  N1  UNL     1      20.694   1.332  49.278  1.00  0.00    -0.366 N 
HETATM   17  H3  UNL     1      20.406   0.713  48.505  1.00  0.00     0.165 HD
BRANCH  16  18
HETATM   18  C4  UNL     1      19.487   2.002  49.120  1.00  0.00     0.085 C 
HETATM   19  C5  UNL     1      18.485   2.232  49.968  1.00  0.00     0.000 C 
BRANCH  19  20
HETATM   20  C6  UNL     1      18.090   1.969  51.358  1.00  0.00     0.108 C 
HETATM   21  I1  UNL     1      17.604  -0.101  51.649  1.00  0.00    -0.086 I 
ENDBRANCH  19  20
ENDBRANCH  16  18
ENDBRANCH   3  16
BRANCH   1  22
HETATM   22  O1  UNL     1      21.294  -0.902  53.208  1.00  0.00    -0.364 OA
HETATM   23  H1  UNL     1      21.421  -1.881  53.296  1.00  0.00     0.217 HD
ENDBRANCH   1  22
TORSDOF 4
ENDMDL
