MODEL 1
REMARK VINA RESULT:      -8.2      0.000      0.000
REMARK  6 active torsions:
REMARK  status: ('A' for Active; 'I' for Inactive)
REMARK    1  A    between atoms: C2_2  and  N1_3 
REMARK    2  A    between atoms: N1_3  and  C3_4 
REMARK    3  A    between atoms: C11_13  and  C12_14 
REMARK       I    between atoms: C12_14  and  N2_16 
REMARK    4  A    between atoms: N2_16  and  C13_17 
REMARK    5  A    between atoms: C13_17  and  C14_18 
REMARK    6  A    between atoms: C14_18  and  N3_19 
ROOT
HETATM    1  C3  UNL     1      16.175  -0.595  52.083  1.00  0.00     0.147 A 
HETATM    2  C4  UNL     1      16.674  -1.657  52.986  1.00  0.00     0.046 A 
HETATM    3  C5  UNL     1      17.851  -1.936  53.516  1.00  0.00     0.141 A 
HETATM    4  F1  UNL     1      18.199  -2.942  54.336  1.00  0.00    -0.204 F 
HETATM    5  C6  UNL     1      18.874  -0.957  53.100  1.00  0.00     0.077 A 
HETATM    6  C7  UNL     1      18.513   0.044  52.281  1.00  0.00    -0.026 A 
HETATM    7  C8  UNL     1      19.410   1.112  51.766  1.00  0.00     0.006 C 
HETATM    8  C9  UNL     1      20.722   1.110  51.454  1.00  0.00    -0.021 C 
HETATM    9  C10 UNL     1      21.833   0.131  51.466  1.00  0.00     0.073 C 
HETATM   10  C11 UNL     1      22.233  -0.274  52.861  1.00  0.00     0.035 C 
HETATM   11  C17 UNL     1      21.371  -0.894  53.659  1.00  0.00     0.018 C 
HETATM   12  C18 UNL     1      22.148  -1.116  54.925  1.00  0.00     0.069 C 
HETATM   13  N6  UNL     1      20.056  -1.396  53.757  1.00  0.00    -0.356 N 
HETATM   14  C19 UNL     1      17.222   0.388  51.686  1.00  0.00     0.073 A 
HETATM   15  H19 UNL     1      19.935  -2.188  54.398  1.00  0.00     0.166 HD
ENDROOT
BRANCH  10  16
HETATM   16  C12 UNL     1      23.570   0.100  53.148  1.00  0.00     0.249 C 
HETATM   17  O1  UNL     1      23.933   1.163  52.531  1.00  0.00    -0.268 OA
HETATM   18  N2  UNL     1      24.818  -0.021  53.754  1.00  0.00    -0.355 N 
HETATM   19  H9  UNL     1      24.813  -0.863  54.357  1.00  0.00     0.162 HD
BRANCH  18  20
HETATM   20  C13 UNL     1      25.934   0.844  53.599  1.00  0.00     0.144 C 
BRANCH  20  21
HETATM   21  C14 UNL     1      27.037   0.717  54.585  1.00  0.00     0.172 C 
BRANCH  21  22
HETATM   22  N3  UNL     1      28.064  -0.207  54.079  1.00  0.00    -0.260 N 
HETATM   23  C15 UNL     1      29.375  -0.023  53.951  1.00  0.00     0.135 A 
HETATM   24  C16 UNL     1      29.790  -1.225  53.434  1.00  0.00     0.161 A 
HETATM   25  N4  UNL     1      28.740  -2.046  53.282  1.00  0.00    -0.143 NA
HETATM   26  N5  UNL     1      27.663  -1.402  53.688  1.00  0.00    -0.067 NA
ENDBRANCH  21  22
ENDBRANCH  20  21
ENDBRANCH  18  20
ENDBRANCH  10  16
BRANCH   1  27
HETATM   27  N1  UNL     1      14.991   0.046  52.638  1.00  0.00    -0.243 NA
BRANCH  27  28
HETATM   28  C2  UNL     1      14.656   1.225  52.239  1.00  0.00    -0.049 C 
HETATM   29  C1  UNL     1      14.151   2.283  51.630  1.00  0.00     0.119 C 
ENDBRANCH  27  28
ENDBRANCH   1  27
TORSDOF 6
ENDMDL
MODEL 2
REMARK VINA RESULT:      -8.1      3.433     10.018
REMARK  6 active torsions:
REMARK  status: ('A' for Active; 'I' for Inactive)
REMARK    1  A    between atoms: C2_2  and  N1_3 
REMARK    2  A    between atoms: N1_3  and  C3_4 
REMARK    3  A    between atoms: C11_13  and  C12_14 
REMARK       I    between atoms: C12_14  and  N2_16 
REMARK    4  A    between atoms: N2_16  and  C13_17 
REMARK    5  A    between atoms: C13_17  and  C14_18 
REMARK    6  A    between atoms: C14_18  and  N3_19 
ROOT
HETATM    1  C3  UNL     1      26.724  -0.652  53.295  1.00  0.00     0.147 A 
HETATM    2  C4  UNL     1      26.980   0.351  52.237  1.00  0.00     0.046 A 
HETATM    3  C5  UNL     1      26.225   1.225  51.597  1.00  0.00     0.141 A 
HETATM    4  F1  UNL     1      26.564   2.102  50.637  1.00  0.00    -0.204 F 
HETATM    5  C6  UNL     1      24.825   1.168  52.059  1.00  0.00     0.077 A 
HETATM    6  C7  UNL     1      24.499   0.288  53.020  1.00  0.00    -0.026 A 
HETATM    7  C8  UNL     1      23.143   0.096  53.601  1.00  0.00     0.006 C 
HETATM    8  C9  UNL     1      21.912   0.220  53.065  1.00  0.00    -0.021 C 
HETATM    9  C10 UNL     1      21.337   0.574  51.747  1.00  0.00     0.073 C 
HETATM   10  C11 UNL     1      21.565   2.019  51.387  1.00  0.00     0.035 C 
HETATM   11  C17 UNL     1      22.796   2.494  51.237  1.00  0.00     0.018 C 
HETATM   12  C18 UNL     1      22.585   3.939  50.887  1.00  0.00     0.069 C 
HETATM   13  N6  UNL     1      24.167   2.162  51.285  1.00  0.00    -0.356 N 
HETATM   14  C19 UNL     1      25.308  -0.684  53.755  1.00  0.00     0.073 A 
HETATM   15  H19 UNL     1      24.776   2.722  50.680  1.00  0.00     0.166 HD
ENDROOT
BRANCH  10  16
HETATM   16  C12 UNL     1      20.340   2.721  51.257  1.00  0.00     0.249 C 
HETATM   17  O1  UNL     1      19.833   3.053  52.386  1.00  0.00    -0.268 OA
HETATM   18  N2  UNL     1      19.282   3.307  50.566  1.00  0.00    -0.355 N 
HETATM   19  H9  UNL     1      19.437   3.179  49.551  1.00  0.00     0.162 HD
BRANCH  18  20
HETATM   20  C13 UNL     1      18.160   3.978  51.125  1.00  0.00     0.144 C 
BRANCH  20  21
HETATM   21  C14 UNL     1      16.819   3.611  50.606  1.00  0.00     0.172 C 
BRANCH  21  22
HETATM   22  N3  UNL     1      15.806   3.781  51.658  1.00  0.00    -0.260 N 
HETATM   23  C15 UNL     1      14.523   3.432  51.659  1.00  0.00     0.135 A 
HETATM   24  C16 UNL     1      14.106   3.844  52.900  1.00  0.00     0.161 A 
HETATM   25  N4  UNL     1      15.130   4.403  53.564  1.00  0.00    -0.143 NA
HETATM   26  N5  UNL     1      16.189   4.360  52.781  1.00  0.00    -0.067 NA
ENDBRANCH  21  22
ENDBRANCH  20  21
ENDBRANCH  18  20
ENDBRANCH  10  16
BRANCH   1  27
HETATM   27  N1  UNL     1      27.664  -0.496  54.397  1.00  0.00    -0.243 NA
BRANCH  27  28
HETATM   28  C2  UNL     1      28.931  -0.508  54.164  1.00  0.00    -0.049 C 
HETATM   29  C1  UNL     1      30.156  -0.710  53.709  1.00  0.00     0.119 C 
ENDBRANCH  27  28
ENDBRANCH   1  27
TORSDOF 6
ENDMDL
MODEL 3
REMARK VINA RESULT:      -8.1      2.491      9.542
REMARK  6 active torsions:
REMARK  status: ('A' for Active; 'I' for Inactive)
REMARK    1  A    between atoms: C2_2  and  N1_3 
REMARK    2  A    between atoms: N1_3  and  C3_4 
REMARK    3  A    between atoms: C11_13  and  C12_14 
REMARK       I    between atoms: C12_14  and  N2_16 
REMARK    4  A    between atoms: N2_16  and  C13_17 
REMARK    5  A    between atoms: C13_17  and  C14_18 
REMARK    6  A    between atoms: C14_18  and  N3_19 
ROOT
HETATM    1  C3  UNL     1      28.243   1.053  53.914  1.00  0.00     0.147 A 
HETATM    2  C4  UNL     1      27.473   0.270  54.907  1.00  0.00     0.046 A 
HETATM    3  C5  UNL     1      26.212  -0.111  55.000  1.00  0.00     0.141 A 
HETATM    4  F1  UNL     1      25.608  -0.831  55.960  1.00  0.00    -0.204 F 
HETATM    5  C6  UNL     1      25.421   0.360  53.846  1.00  0.00     0.077 A 
HETATM    6  C7  UNL     1      26.037   1.077  52.892  1.00  0.00    -0.026 A 
HETATM    7  C8  UNL     1      25.396   1.629  51.668  1.00  0.00     0.006 C 
HETATM    8  C9  UNL     1      24.148   2.082  51.435  1.00  0.00    -0.021 C 
HETATM    9  C10 UNL     1      22.896   2.246  52.209  1.00  0.00     0.073 C 
HETATM   10  C11 UNL     1      22.274   0.928  52.590  1.00  0.00     0.035 C 
HETATM   11  C17 UNL     1      22.921   0.076  53.377  1.00  0.00     0.018 C 
HETATM   12  C18 UNL     1      21.975  -1.082  53.508  1.00  0.00     0.069 C 
HETATM   13  N6  UNL     1      24.114  -0.138  54.100  1.00  0.00    -0.356 N 
HETATM   14  C19 UNL     1      27.428   1.507  52.753  1.00  0.00     0.073 A 
HETATM   15  H19 UNL     1      24.026  -0.743  54.922  1.00  0.00     0.166 HD
ENDROOT
BRANCH  10  16
HETATM   16  C12 UNL     1      20.993   0.769  52.004  1.00  0.00     0.249 C 
HETATM   17  O1  UNL     1      21.030   0.747  50.722  1.00  0.00    -0.268 OA
HETATM   18  N2  UNL     1      19.609   0.612  52.004  1.00  0.00    -0.355 N 
HETATM   19  H9  UNL     1      19.278   0.598  52.985  1.00  0.00     0.162 HD
BRANCH  18  20
HETATM   20  C13 UNL     1      18.760   0.488  50.872  1.00  0.00     0.144 C 
BRANCH  20  21
HETATM   21  C14 UNL     1      17.295   0.481  51.116  1.00  0.00     0.172 C 
BRANCH  21  22
HETATM   22  N3  UNL     1      16.843   1.821  51.518  1.00  0.00    -0.260 N 
HETATM   23  C15 UNL     1      15.627   2.234  51.864  1.00  0.00     0.135 A 
HETATM   24  C16 UNL     1      15.832   3.564  52.130  1.00  0.00     0.161 A 
HETATM   25  N4  UNL     1      17.124   3.876  51.937  1.00  0.00    -0.143 NA
HETATM   26  N5  UNL     1      17.749   2.781  51.555  1.00  0.00    -0.067 NA
ENDBRANCH  21  22
ENDBRANCH  20  21
ENDBRANCH  18  20
ENDBRANCH  10  16
BRANCH   1  27
HETATM   27  N1  UNL     1      29.443   0.336  53.505  1.00  0.00    -0.243 NA
BRANCH  27  28
HETATM   28  C2  UNL     1      29.458  -0.953  53.528  1.00  0.00    -0.049 C 
HETATM   29  C1  UNL     1      29.423  -2.246  53.258  1.00  0.00     0.119 C 
ENDBRANCH  27  28
ENDBRANCH   1  27
TORSDOF 6
ENDMDL
MODEL 4
REMARK VINA RESULT:      -8.0      2.413      9.282
REMARK  6 active torsions:
REMARK  status: ('A' for Active; 'I' for Inactive)
REMARK    1  A    between atoms: C2_2  and  N1_3 
REMARK    2  A    between atoms: N1_3  and  C3_4 
REMARK    3  A    between atoms: C11_13  and  C12_14 
REMARK       I    between atoms: C12_14  and  N2_16 
REMARK    4  A    between atoms: N2_16  and  C13_17 
REMARK    5  A    between atoms: C13_17  and  C14_18 
REMARK    6  A    between atoms: C14_18  and  N3_19 
ROOT
HETATM    1  C3  UNL     1      28.524   0.958  53.974  1.00  0.00     0.147 A 
HETATM    2  C4  UNL     1      27.618   0.245  54.903  1.00  0.00     0.046 A 
HETATM    3  C5  UNL     1      26.322  -0.010  54.910  1.00  0.00     0.141 A 
HETATM    4  F1  UNL     1      25.590  -0.677  55.818  1.00  0.00    -0.204 F 
HETATM    5  C6  UNL     1      25.657   0.550  53.718  1.00  0.00     0.077 A 
HETATM    6  C7  UNL     1      26.400   1.213  52.817  1.00  0.00    -0.026 A 
HETATM    7  C8  UNL     1      25.897   1.840  51.566  1.00  0.00     0.006 C 
HETATM    8  C9  UNL     1      24.716   2.418  51.263  1.00  0.00    -0.021 C 
HETATM    9  C10 UNL     1      23.440   2.697  51.960  1.00  0.00     0.073 C 
HETATM   10  C11 UNL     1      22.668   1.443  52.278  1.00  0.00     0.035 C 
HETATM   11  C17 UNL     1      23.176   0.522  53.089  1.00  0.00     0.018 C 
HETATM   12  C18 UNL     1      22.114  -0.538  53.140  1.00  0.00     0.069 C 
HETATM   13  N6  UNL     1      24.294   0.182  53.881  1.00  0.00    -0.356 N 
HETATM   14  C19 UNL     1      27.833   1.505  52.773  1.00  0.00     0.073 A 
HETATM   15  H19 UNL     1      24.094  -0.421  54.686  1.00  0.00     0.166 HD
ENDROOT
BRANCH  10  16
HETATM   16  C12 UNL     1      21.418   1.420  51.611  1.00  0.00     0.249 C 
HETATM   17  O1  UNL     1      20.541   2.171  52.168  1.00  0.00    -0.268 OA
HETATM   18  N2  UNL     1      20.512   1.028  50.627  1.00  0.00    -0.355 N 
HETATM   19  H9  UNL     1      20.985   0.366  49.987  1.00  0.00     0.162 HD
BRANCH  18  20
HETATM   20  C13 UNL     1      19.161   1.445  50.491  1.00  0.00     0.144 C 
BRANCH  20  21
HETATM   21  C14 UNL     1      18.167   0.416  50.092  1.00  0.00     0.172 C 
BRANCH  21  22
HETATM   22  N3  UNL     1      17.651  -0.276  51.283  1.00  0.00    -0.260 N 
HETATM   23  C15 UNL     1      16.411  -0.666  51.561  1.00  0.00     0.135 A 
HETATM   24  C16 UNL     1      16.555  -1.247  52.796  1.00  0.00     0.161 A 
HETATM   25  N4  UNL     1      17.838  -1.180  53.187  1.00  0.00    -0.143 NA
HETATM   26  N5  UNL     1      18.517  -0.571  52.235  1.00  0.00    -0.067 NA
ENDBRANCH  21  22
ENDBRANCH  20  21
ENDBRANCH  18  20
ENDBRANCH  10  16
BRANCH   1  27
HETATM   27  N1  UNL     1      29.671   0.130  53.628  1.00  0.00    -0.243 NA
BRANCH  27  28
HETATM   28  C2  UNL     1      29.522  -1.143  53.487  1.00  0.00    -0.049 C 
HETATM   29  C1  UNL     1      29.129  -2.368  53.184  1.00  0.00     0.119 C 
ENDBRANCH  27  28
ENDBRANCH   1  27
TORSDOF 6
ENDMDL
MODEL 5
REMARK VINA RESULT:      -8.0      2.696      9.566
REMARK  6 active torsions:
REMARK  status: ('A' for Active; 'I' for Inactive)
REMARK    1  A    between atoms: C2_2  and  N1_3 
REMARK    2  A    between atoms: N1_3  and  C3_4 
REMARK    3  A    between atoms: C11_13  and  C12_14 
REMARK       I    between atoms: C12_14  and  N2_16 
REMARK    4  A    between atoms: N2_16  and  C13_17 
REMARK    5  A    between atoms: C13_17  and  C14_18 
REMARK    6  A    between atoms: C14_18  and  N3_19 
ROOT
HETATM    1  C3  UNL     1      26.362  -0.236  53.762  1.00  0.00     0.147 A 
HETATM    2  C4  UNL     1      25.302  -0.836  54.604  1.00  0.00     0.046 A 
HETATM    3  C5  UNL     1      23.983  -0.773  54.605  1.00  0.00     0.141 A 
HETATM    4  F1  UNL     1      23.103  -1.366  55.429  1.00  0.00    -0.204 F 
HETATM    5  C6  UNL     1      23.484   0.090  53.517  1.00  0.00     0.077 A 
HETATM    6  C7  UNL     1      24.374   0.677  52.700  1.00  0.00    -0.026 A 
HETATM    7  C8  UNL     1      24.048   1.573  51.559  1.00  0.00     0.006 C 
HETATM    8  C9  UNL     1      23.044   2.452  51.366  1.00  0.00    -0.021 C 
HETATM    9  C10 UNL     1      21.864   2.927  52.124  1.00  0.00     0.073 C 
HETATM   10  C11 UNL     1      20.811   1.861  52.283  1.00  0.00     0.035 C 
HETATM   11  C17 UNL     1      21.075   0.742  52.947  1.00  0.00     0.018 C 
HETATM   12  C18 UNL     1      19.790  -0.031  52.876  1.00  0.00     0.069 C 
HETATM   13  N6  UNL     1      22.070   0.039  53.659  1.00  0.00    -0.356 N 
HETATM   14  C19 UNL     1      25.835   0.621  52.664  1.00  0.00     0.073 A 
HETATM   15  H19 UNL     1      21.724  -0.606  54.377  1.00  0.00     0.166 HD
ENDROOT
BRANCH  10  16
HETATM   16  C12 UNL     1      19.598   2.230  51.648  1.00  0.00     0.249 C 
HETATM   17  O1  UNL     1      19.685   2.226  50.368  1.00  0.00    -0.268 OA
HETATM   18  N2  UNL     1      18.264   2.625  51.594  1.00  0.00    -0.355 N 
HETATM   19  H9  UNL     1      17.907   2.717  52.561  1.00  0.00     0.162 HD
BRANCH  18  20
HETATM   20  C13 UNL     1      17.488   2.870  50.429  1.00  0.00     0.144 C 
BRANCH  20  21
HETATM   21  C14 UNL     1      16.657   4.100  50.410  1.00  0.00     0.172 C 
BRANCH  21  22
HETATM   22  N3  UNL     1      15.711   4.089  51.535  1.00  0.00    -0.260 N 
HETATM   23  C15 UNL     1      14.415   3.790  51.546  1.00  0.00     0.135 A 
HETATM   24  C16 UNL     1      14.086   3.958  52.868  1.00  0.00     0.161 A 
HETATM   25  N4  UNL     1      15.168   4.339  53.565  1.00  0.00    -0.143 NA
HETATM   26  N5  UNL     1      16.180   4.419  52.725  1.00  0.00    -0.067 NA
ENDBRANCH  21  22
ENDBRANCH  20  21
ENDBRANCH  18  20
ENDBRANCH  10  16
BRANCH   1  27
HETATM   27  N1  UNL     1      27.282  -1.257  53.280  1.00  0.00    -0.243 NA
BRANCH  27  28
HETATM   28  C2  UNL     1      28.549  -1.117  53.469  1.00  0.00    -0.049 C 
HETATM   29  C1  UNL     1      29.808  -0.716  53.519  1.00  0.00     0.119 C 
ENDBRANCH  27  28
ENDBRANCH   1  27
TORSDOF 6
ENDMDL
MODEL 6
REMARK VINA RESULT:      -7.8      6.433      8.958
REMARK  6 active torsions:
REMARK  status: ('A' for Active; 'I' for Inactive)
REMARK    1  A    between atoms: C2_2  and  N1_3 
REMARK    2  A    between atoms: N1_3  and  C3_4 
REMARK    3  A    between atoms: C11_13  and  C12_14 
REMARK       I    between atoms: C12_14  and  N2_16 
REMARK    4  A    between atoms: N2_16  and  C13_17 
REMARK    5  A    between atoms: C13_17  and  C14_18 
REMARK    6  A    between atoms: C14_18  and  N3_19 
ROOT
HETATM    1  C3  UNL     1      25.670   8.576  47.912  1.00  0.00     0.147 A 
HETATM    2  C4  UNL     1      24.499   8.743  48.802  1.00  0.00     0.046 A 
HETATM    3  C5  UNL     1      23.920   7.983  49.714  1.00  0.00     0.141 A 
HETATM    4  F1  UNL     1      22.843   8.236  50.475  1.00  0.00    -0.204 F 
HETATM    5  C6  UNL     1      24.616   6.690  49.857  1.00  0.00     0.077 A 
HETATM    6  C7  UNL     1      25.693   6.449  49.090  1.00  0.00    -0.026 A 
HETATM    7  C8  UNL     1      26.509   5.206  49.103  1.00  0.00     0.006 C 
HETATM    8  C9  UNL     1      26.181   3.919  49.335  1.00  0.00    -0.021 C 
HETATM    9  C10 UNL     1      24.953   3.159  49.664  1.00  0.00     0.073 C 
HETATM   10  C11 UNL     1      24.433   3.470  51.043  1.00  0.00     0.035 C 
HETATM   11  C17 UNL     1      24.034   4.699  51.356  1.00  0.00     0.018 C 
HETATM   12  C18 UNL     1      23.598   4.582  52.788  1.00  0.00     0.069 C 
HETATM   13  N6  UNL     1      23.880   6.013  50.867  1.00  0.00    -0.356 N 
HETATM   14  C19 UNL     1      26.364   7.269  48.081  1.00  0.00     0.073 A 
HETATM   15  H19 UNL     1      23.132   6.560  51.306  1.00  0.00     0.166 HD
ENDROOT
BRANCH  10  16
HETATM   16  C12 UNL     1      24.450   2.323  51.876  1.00  0.00     0.249 C 
HETATM   17  O1  UNL     1      23.818   1.330  51.369  1.00  0.00    -0.268 OA
HETATM   18  N2  UNL     1      24.776   1.586  53.012  1.00  0.00    -0.355 N 
HETATM   19  H9  UNL     1      25.328   2.186  53.649  1.00  0.00     0.162 HD
BRANCH  18  20
HETATM   20  C13 UNL     1      24.429   0.236  53.286  1.00  0.00     0.144 C 
BRANCH  20  21
HETATM   21  C14 UNL     1      25.243  -0.486  54.296  1.00  0.00     0.172 C 
BRANCH  21  22
HETATM   22  N3  UNL     1      26.656  -0.094  54.181  1.00  0.00    -0.260 N 
HETATM   23  C15 UNL     1      27.613  -0.603  53.412  1.00  0.00     0.135 A 
HETATM   24  C16 UNL     1      28.698   0.170  53.743  1.00  0.00     0.161 A 
HETATM   25  N4  UNL     1      28.349   1.078  54.668  1.00  0.00    -0.143 NA
HETATM   26  N5  UNL     1      27.070   0.907  54.937  1.00  0.00    -0.067 NA
ENDBRANCH  21  22
ENDBRANCH  20  21
ENDBRANCH  18  20
ENDBRANCH  10  16
BRANCH   1  27
HETATM   27  N1  UNL     1      26.578   9.708  48.030  1.00  0.00    -0.243 NA
BRANCH  27  28
HETATM   28  C2  UNL     1      27.471   9.717  48.961  1.00  0.00    -0.049 C 
HETATM   29  C1  UNL     1      28.536   9.552  49.725  1.00  0.00     0.119 C 
ENDBRANCH  27  28
ENDBRANCH   1  27
TORSDOF 6
ENDMDL
MODEL 7
REMARK VINA RESULT:      -7.6      2.112      3.123
REMARK  6 active torsions:
REMARK  status: ('A' for Active; 'I' for Inactive)
REMARK    1  A    between atoms: C2_2  and  N1_3 
REMARK    2  A    between atoms: N1_3  and  C3_4 
REMARK    3  A    between atoms: C11_13  and  C12_14 
REMARK       I    between atoms: C12_14  and  N2_16 
REMARK    4  A    between atoms: N2_16  and  C13_17 
REMARK    5  A    between atoms: C13_17  and  C14_18 
REMARK    6  A    between atoms: C14_18  and  N3_19 
ROOT
HETATM    1  C3  UNL     1      15.625  -0.363  51.831  1.00  0.00     0.147 A 
HETATM    2  C4  UNL     1      16.213   0.675  50.956  1.00  0.00     0.046 A 
HETATM    3  C5  UNL     1      17.441   1.114  50.746  1.00  0.00     0.141 A 
HETATM    4  F1  UNL     1      17.871   2.079  49.915  1.00  0.00    -0.204 F 
HETATM    5  C6  UNL     1      18.421   0.391  51.580  1.00  0.00     0.077 A 
HETATM    6  C7  UNL     1      17.978  -0.572  52.405  1.00  0.00    -0.026 A 
HETATM    7  C8  UNL     1      18.822  -1.395  53.312  1.00  0.00     0.006 C 
HETATM    8  C9  UNL     1      19.960  -1.116  53.979  1.00  0.00    -0.021 C 
HETATM    9  C10 UNL     1      20.864   0.046  54.135  1.00  0.00     0.073 C 
HETATM   10  C11 UNL     1      21.607   0.375  52.866  1.00  0.00     0.035 C 
HETATM   11  C17 UNL     1      20.949   0.739  51.771  1.00  0.00     0.018 C 
HETATM   12  C18 UNL     1      22.035   0.972  50.760  1.00  0.00     0.069 C 
HETATM   13  N6  UNL     1      19.669   0.974  51.227  1.00  0.00    -0.356 N 
HETATM   14  C19 UNL     1      16.633  -1.088  52.654  1.00  0.00     0.073 A 
HETATM   15  H19 UNL     1      19.634   1.660  50.466  1.00  0.00     0.166 HD
ENDROOT
BRANCH  10  16
HETATM   16  C12 UNL     1      23.007   0.231  53.031  1.00  0.00     0.249 C 
HETATM   17  O1  UNL     1      23.368  -0.990  53.183  1.00  0.00    -0.268 OA
HETATM   18  N2  UNL     1      24.324   0.673  53.134  1.00  0.00    -0.355 N 
HETATM   19  H9  UNL     1      24.335   1.704  53.043  1.00  0.00     0.162 HD
BRANCH  18  20
HETATM   20  C13 UNL     1      25.484  -0.125  53.331  1.00  0.00     0.144 C 
BRANCH  20  21
HETATM   21  C14 UNL     1      26.168  -0.021  54.644  1.00  0.00     0.172 C 
BRANCH  21  22
HETATM   22  N3  UNL     1      27.390   0.789  54.515  1.00  0.00    -0.260 N 
HETATM   23  C15 UNL     1      28.658   0.441  54.711  1.00  0.00     0.135 A 
HETATM   24  C16 UNL     1      29.328   1.607  54.439  1.00  0.00     0.161 A 
HETATM   25  N4  UNL     1      28.455   2.569  54.102  1.00  0.00    -0.143 NA
HETATM   26  N5  UNL     1      27.245   2.050  54.151  1.00  0.00    -0.067 NA
ENDBRANCH  21  22
ENDBRANCH  20  21
ENDBRANCH  18  20
ENDBRANCH  10  16
BRANCH   1  27
HETATM   27  N1  UNL     1      14.777  -1.267  51.067  1.00  0.00    -0.243 NA
BRANCH  27  28
HETATM   28  C2  UNL     1      14.783  -2.529  51.332  1.00  0.00    -0.049 C 
HETATM   29  C1  UNL     1      14.533  -3.821  51.453  1.00  0.00     0.119 C 
ENDBRANCH  27  28
ENDBRANCH   1  27
TORSDOF 6
ENDMDL
MODEL 8
REMARK VINA RESULT:      -7.6      5.697      9.917
REMARK  6 active torsions:
REMARK  status: ('A' for Active; 'I' for Inactive)
REMARK    1  A    between atoms: C2_2  and  N1_3 
REMARK    2  A    between atoms: N1_3  and  C3_4 
REMARK    3  A    between atoms: C11_13  and  C12_14 
REMARK       I    between atoms: C12_14  and  N2_16 
REMARK    4  A    between atoms: N2_16  and  C13_17 
REMARK    5  A    between atoms: C13_17  and  C14_18 
REMARK    6  A    between atoms: C14_18  and  N3_19 
ROOT
HETATM    1  C3  UNL     1      26.746   0.386  54.113  1.00  0.00     0.147 A 
HETATM    2  C4  UNL     1      25.336  -0.052  54.223  1.00  0.00     0.046 A 
HETATM    3  C5  UNL     1      24.252   0.148  53.497  1.00  0.00     0.141 A 
HETATM    4  F1  UNL     1      23.001  -0.303  53.690  1.00  0.00    -0.204 F 
HETATM    5  C6  UNL     1      24.538   0.999  52.325  1.00  0.00     0.077 A 
HETATM    6  C7  UNL     1      25.792   1.443  52.142  1.00  0.00    -0.026 A 
HETATM    7  C8  UNL     1      26.255   2.305  51.022  1.00  0.00     0.006 C 
HETATM    8  C9  UNL     1      25.633   3.272  50.318  1.00  0.00    -0.021 C 
HETATM    9  C10 UNL     1      24.297   3.910  50.305  1.00  0.00     0.073 C 
HETATM   10  C11 UNL     1      23.213   2.971  49.843  1.00  0.00     0.035 C 
HETATM   11  C17 UNL     1      22.935   1.867  50.529  1.00  0.00     0.018 C 
HETATM   12  C18 UNL     1      21.821   1.231  49.750  1.00  0.00     0.069 C 
HETATM   13  N6  UNL     1      23.285   1.104  51.662  1.00  0.00    -0.356 N 
HETATM   14  C19 UNL     1      27.015   1.233  52.918  1.00  0.00     0.073 A 
HETATM   15  H19 UNL     1      22.528   0.539  52.062  1.00  0.00     0.166 HD
ENDROOT
BRANCH  10  16
HETATM   16  C12 UNL     1      22.603   3.429  48.648  1.00  0.00     0.249 C 
HETATM   17  O1  UNL     1      21.786   4.398  48.846  1.00  0.00    -0.268 OA
HETATM   18  N2  UNL     1      22.350   3.445  47.279  1.00  0.00    -0.355 N 
HETATM   19  H9  UNL     1      22.917   2.705  46.829  1.00  0.00     0.162 HD
BRANCH  18  20
HETATM   20  C13 UNL     1      21.470   4.313  46.579  1.00  0.00     0.144 C 
BRANCH  20  21
HETATM   21  C14 UNL     1      22.002   4.996  45.373  1.00  0.00     0.172 C 
BRANCH  21  22
HETATM   22  N3  UNL     1      21.113   4.760  44.225  1.00  0.00    -0.260 N 
HETATM   23  C15 UNL     1      20.386   5.629  43.528  1.00  0.00     0.135 A 
HETATM   24  C16 UNL     1      19.780   4.824  42.596  1.00  0.00     0.161 A 
HETATM   25  N4  UNL     1      20.162   3.549  42.775  1.00  0.00    -0.143 NA
HETATM   26  N5  UNL     1      20.995   3.518  43.795  1.00  0.00    -0.067 NA
ENDBRANCH  21  22
ENDBRANCH  20  21
ENDBRANCH  18  20
ENDBRANCH  10  16
BRANCH   1  27
HETATM   27  N1  UNL     1      27.652  -0.751  54.206  1.00  0.00    -0.243 NA
BRANCH  27  28
HETATM   28  C2  UNL     1      28.900  -0.599  53.917  1.00  0.00    -0.049 C 
HETATM   29  C1  UNL     1      30.160  -0.731  53.542  1.00  0.00     0.119 C 
ENDBRANCH  27  28
ENDBRANCH   1  27
TORSDOF 6
ENDMDL
MODEL 9
REMARK VINA RESULT:      -7.6      4.088      9.570
REMARK  6 active torsions:
REMARK  status: ('A' for Active; 'I' for Inactive)
REMARK    1  A    between atoms: C2_2  and  N1_3 
REMARK    2  A    between atoms: N1_3  and  C3_4 
REMARK    3  A    between atoms: C11_13  and  C12_14 
REMARK       I    between atoms: C12_14  and  N2_16 
REMARK    4  A    between atoms: N2_16  and  C13_17 
REMARK    5  A    between atoms: C13_17  and  C14_18 
REMARK    6  A    between atoms: C14_18  and  N3_19 
ROOT
HETATM    1  C3  UNL     1      26.791  -0.699  53.373  1.00  0.00     0.147 A 
HETATM    2  C4  UNL     1      26.952   0.305  52.298  1.00  0.00     0.046 A 
HETATM    3  C5  UNL     1      26.127   1.129  51.678  1.00  0.00     0.141 A 
HETATM    4  F1  UNL     1      26.381   2.013  50.698  1.00  0.00    -0.204 F 
HETATM    5  C6  UNL     1      24.749   0.999  52.192  1.00  0.00     0.077 A 
HETATM    6  C7  UNL     1      24.508   0.113  53.172  1.00  0.00    -0.026 A 
HETATM    7  C8  UNL     1      23.187  -0.147  53.803  1.00  0.00     0.006 C 
HETATM    8  C9  UNL     1      21.932  -0.099  53.312  1.00  0.00    -0.021 C 
HETATM    9  C10 UNL     1      21.291   0.209  52.013  1.00  0.00     0.073 C 
HETATM   10  C11 UNL     1      21.424   1.661  51.632  1.00  0.00     0.035 C 
HETATM   11  C17 UNL     1      22.621   2.201  51.432  1.00  0.00     0.018 C 
HETATM   12  C18 UNL     1      22.317   3.628  51.078  1.00  0.00     0.069 C 
HETATM   13  N6  UNL     1      24.009   1.947  51.433  1.00  0.00    -0.356 N 
HETATM   14  C19 UNL     1      25.396  -0.805  53.885  1.00  0.00     0.073 A 
HETATM   15  H19 UNL     1      24.563   2.533  50.801  1.00  0.00     0.166 HD
ENDROOT
BRANCH  10  16
HETATM   16  C12 UNL     1      20.159   2.292  51.540  1.00  0.00     0.249 C 
HETATM   17  O1  UNL     1      19.845   2.936  52.604  1.00  0.00    -0.268 OA
HETATM   18  N2  UNL     1      18.962   2.651  50.924  1.00  0.00    -0.355 N 
HETATM   19  H9  UNL     1      18.939   2.234  49.977  1.00  0.00     0.162 HD
BRANCH  18  20
HETATM   20  C13 UNL     1      17.923   3.452  51.470  1.00  0.00     0.144 C 
BRANCH  20  21
HETATM   21  C14 UNL     1      17.053   4.182  50.515  1.00  0.00     0.172 C 
BRANCH  21  22
HETATM   22  N3  UNL     1      17.874   4.900  49.528  1.00  0.00    -0.260 N 
HETATM   23  C15 UNL     1      17.629   5.145  48.244  1.00  0.00     0.135 A 
HETATM   24  C16 UNL     1      18.747   5.843  47.860  1.00  0.00     0.161 A 
HETATM   25  N4  UNL     1      19.583   5.978  48.902  1.00  0.00    -0.143 NA
HETATM   26  N5  UNL     1      19.030   5.385  49.941  1.00  0.00    -0.067 NA
ENDBRANCH  21  22
ENDBRANCH  20  21
ENDBRANCH  18  20
ENDBRANCH  10  16
BRANCH   1  27
HETATM   27  N1  UNL     1      27.759  -0.479  54.438  1.00  0.00    -0.243 NA
BRANCH  27  28
HETATM   28  C2  UNL     1      29.021  -0.543  54.180  1.00  0.00    -0.049 C 
HETATM   29  C1  UNL     1      30.228  -0.525  53.641  1.00  0.00     0.119 C 
ENDBRANCH  27  28
ENDBRANCH   1  27
TORSDOF 6
ENDMDL
