MODEL 1
REMARK VINA RESULT:      -8.3      0.000      0.000
REMARK  9 active torsions:
REMARK  status: ('A' for Active; 'I' for Inactive)
REMARK    1  A    between atoms: C3_3  and  C4_4 
REMARK    2  A    between atoms: C4_4  and  C5_5 
REMARK    3  A    between atoms: C5_5  and  N1_6 
REMARK       I    between atoms: N1_6  and  C6_7 
REMARK    4  A    between atoms: C6_7  and  C7_9 
REMARK    5  A    between atoms: C7_9  and  P1_10 
REMARK    6  A    between atoms: P1_10  and  C8_11 
REMARK    7  A    between atoms: C8_11  and  N2_12 
REMARK    8  A    between atoms: C16_23  and  N5_24 
REMARK    9  A    between atoms: N5_24  and  C17_25 
ROOT
HETATM    1  C1  UNL     1      26.291   3.069  50.027  1.00  0.00     0.052 C 
HETATM    2  C2  UNL     1      24.986   3.374  50.657  1.00  0.00    -0.009 A 
HETATM    3  C3  UNL     1      24.341   4.588  50.586  1.00  0.00     0.044 A 
HETATM    4  N3  UNL     1      23.145   4.810  51.184  1.00  0.00    -0.263 NA
HETATM    5  C13 UNL     1      22.536   3.835  51.882  1.00  0.00     0.142 A 
HETATM    6  C14 UNL     1      23.130   2.605  51.987  1.00  0.00     0.089 A 
HETATM    7  C15 UNL     1      22.433   1.607  52.742  1.00  0.00     0.103 C 
HETATM    8  N4  UNL     1      21.869   0.808  53.365  1.00  0.00    -0.191 NA
HETATM    9  C16 UNL     1      24.348   2.385  51.375  1.00  0.00     0.063 A 
ENDROOT
BRANCH   9  10
HETATM   10  N5  UNL     1      24.868   1.063  51.556  1.00  0.00    -0.354 N 
HETATM   11  H21 UNL     1      24.451   0.371  50.925  1.00  0.00     0.166 HD
BRANCH  10  12
HETATM   12  C17 UNL     1      25.866   0.768  52.527  1.00  0.00     0.034 A 
HETATM   13  C18 UNL     1      25.932   1.566  53.660  1.00  0.00     0.032 A 
HETATM   14  C19 UNL     1      26.919   1.244  54.578  1.00  0.00     0.046 A 
HETATM   15  C20 UNL     1      27.792   0.185  54.374  1.00  0.00     0.138 A 
HETATM   16  F1  UNL     1      28.725  -0.049  55.333  1.00  0.00    -0.204 F 
HETATM   17  C21 UNL     1      27.674  -0.573  53.222  1.00  0.00     0.074 A 
HETATM   18 CL1  UNL     1      28.789  -1.902  52.991  1.00  0.00    -0.081 Cl
HETATM   19  C22 UNL     1      26.708  -0.278  52.297  1.00  0.00     0.056 A 
ENDBRANCH  10  12
ENDBRANCH   9  10
BRANCH   3  20
HETATM   20  C4  UNL     1      24.947   5.714  49.833  1.00  0.00     0.079 C 
BRANCH  20  21
HETATM   21  C5  UNL     1      24.977   6.934  50.716  1.00  0.00     0.129 C 
BRANCH  21  22
HETATM   22  N1  UNL     1      26.276   7.601  50.716  1.00  0.00    -0.357 N 
HETATM   23  C6  UNL     1      26.530   8.801  49.997  1.00  0.00     0.242 C 
HETATM   24  O1  UNL     1      25.615   9.337  49.322  1.00  0.00    -0.269 OA
HETATM   25  H8  UNL     1      27.102   7.218  51.258  1.00  0.00     0.162 HD
BRANCH  23  26
HETATM   26  C7  UNL     1      27.870   9.423  50.040  1.00  0.00     0.087 C 
BRANCH  26  27
HETATM   27  P1  UNL     1      28.911   9.201  48.769  1.00  0.00    -0.025 P 
BRANCH  27  28
HETATM   28  C8  UNL     1      29.543   7.487  48.434  1.00  0.00     0.315 C 
BRANCH  28  29
HETATM   29  N2  UNL     1      30.935   7.594  48.128  1.00  0.00     0.097 N 
HETATM   30  C9  UNL     1      31.828   7.457  49.236  1.00  0.00     0.299 C 
HETATM   31  C10 UNL     1      31.777   6.086  49.777  1.00  0.00     0.198 C 
HETATM   32  O2  UNL     1      31.430   5.061  48.990  1.00  0.00    -0.388 OA
HETATM   33  C11 UNL     1      31.275   5.244  47.659  1.00  0.00     0.198 C 
HETATM   34  C12 UNL     1      31.310   6.626  47.145  1.00  0.00     0.299 C 
ENDBRANCH  28  29
ENDBRANCH  27  28
ENDBRANCH  26  27
ENDBRANCH  23  26
ENDBRANCH  21  22
ENDBRANCH  20  21
ENDBRANCH   3  20
TORSDOF 9
ENDMDL
MODEL 2
REMARK VINA RESULT:      -8.2      3.206      4.646
REMARK  9 active torsions:
REMARK  status: ('A' for Active; 'I' for Inactive)
REMARK    1  A    between atoms: C3_3  and  C4_4 
REMARK    2  A    between atoms: C4_4  and  C5_5 
REMARK    3  A    between atoms: C5_5  and  N1_6 
REMARK       I    between atoms: N1_6  and  C6_7 
REMARK    4  A    between atoms: C6_7  and  C7_9 
REMARK    5  A    between atoms: C7_9  and  P1_10 
REMARK    6  A    between atoms: P1_10  and  C8_11 
REMARK    7  A    between atoms: C8_11  and  N2_12 
REMARK    8  A    between atoms: C16_23  and  N5_24 
REMARK    9  A    between atoms: N5_24  and  C17_25 
ROOT
HETATM    1  C1  UNL     1      24.494   2.453  51.148  1.00  0.00     0.052 C 
HETATM    2  C2  UNL     1      23.372   1.530  51.434  1.00  0.00    -0.009 A 
HETATM    3  C3  UNL     1      22.320   1.279  50.582  1.00  0.00     0.044 A 
HETATM    4  N3  UNL     1      21.318   0.423  50.899  1.00  0.00    -0.263 NA
HETATM    5  C13 UNL     1      21.315  -0.223  52.079  1.00  0.00     0.142 A 
HETATM    6  C14 UNL     1      22.337  -0.012  52.967  1.00  0.00     0.089 A 
HETATM    7  C15 UNL     1      22.278  -0.729  54.207  1.00  0.00     0.103 C 
HETATM    8  N4  UNL     1      22.219  -1.302  55.213  1.00  0.00    -0.191 NA
HETATM    9  C16 UNL     1      23.355   0.860  52.639  1.00  0.00     0.063 A 
ENDROOT
BRANCH   9  10
HETATM   10  N5  UNL     1      24.362   0.997  53.647  1.00  0.00    -0.354 N 
HETATM   11  H21 UNL     1      24.056   1.547  54.456  1.00  0.00     0.166 HD
BRANCH  10  12
HETATM   12  C17 UNL     1      25.653   0.414  53.512  1.00  0.00     0.034 A 
HETATM   13  C18 UNL     1      25.749  -0.834  52.913  1.00  0.00     0.032 A 
HETATM   14  C19 UNL     1      27.025  -1.363  52.803  1.00  0.00     0.046 A 
HETATM   15  C20 UNL     1      28.142  -0.684  53.266  1.00  0.00     0.138 A 
HETATM   16  F1  UNL     1      29.349  -1.288  53.111  1.00  0.00    -0.204 F 
HETATM   17  C21 UNL     1      27.980   0.559  53.855  1.00  0.00     0.074 A 
HETATM   18 CL1  UNL     1      29.407   1.392  54.429  1.00  0.00    -0.081 Cl
HETATM   19  C22 UNL     1      26.731   1.107  53.977  1.00  0.00     0.056 A 
ENDBRANCH  10  12
ENDBRANCH   9  10
BRANCH   3  20
HETATM   20  C4  UNL     1      22.252   1.951  49.260  1.00  0.00     0.079 C 
BRANCH  20  21
HETATM   21  C5  UNL     1      21.208   3.035  49.316  1.00  0.00     0.129 C 
BRANCH  21  22
HETATM   22  N1  UNL     1      21.768   4.343  49.650  1.00  0.00    -0.357 N 
HETATM   23  C6  UNL     1      21.621   4.943  50.929  1.00  0.00     0.242 C 
HETATM   24  O1  UNL     1      20.987   4.348  51.836  1.00  0.00    -0.269 OA
HETATM   25  H8  UNL     1      22.316   4.913  48.944  1.00  0.00     0.162 HD
BRANCH  23  26
HETATM   26  C7  UNL     1      22.213   6.271  51.199  1.00  0.00     0.087 C 
BRANCH  26  27
HETATM   27  P1  UNL     1      23.784   6.566  50.760  1.00  0.00    -0.025 P 
BRANCH  27  28
HETATM   28  C8  UNL     1      24.192   8.203  49.984  1.00  0.00     0.315 C 
BRANCH  28  29
HETATM   29  N2  UNL     1      25.211   7.975  49.009  1.00  0.00     0.097 N 
HETATM   30  C9  UNL     1      25.362   8.994  48.017  1.00  0.00     0.299 C 
HETATM   31  C10 UNL     1      25.851  10.244  48.628  1.00  0.00     0.198 C 
HETATM   32  O2  UNL     1      26.574  10.210  49.753  1.00  0.00    -0.388 OA
HETATM   33  C11 UNL     1      26.998   9.029  50.256  1.00  0.00     0.198 C 
HETATM   34  C12 UNL     1      26.481   7.792  49.641  1.00  0.00     0.299 C 
ENDBRANCH  28  29
ENDBRANCH  27  28
ENDBRANCH  26  27
ENDBRANCH  23  26
ENDBRANCH  21  22
ENDBRANCH  20  21
ENDBRANCH   3  20
TORSDOF 9
ENDMDL
MODEL 3
REMARK VINA RESULT:      -8.2      3.185      4.691
REMARK  9 active torsions:
REMARK  status: ('A' for Active; 'I' for Inactive)
REMARK    1  A    between atoms: C3_3  and  C4_4 
REMARK    2  A    between atoms: C4_4  and  C5_5 
REMARK    3  A    between atoms: C5_5  and  N1_6 
REMARK       I    between atoms: N1_6  and  C6_7 
REMARK    4  A    between atoms: C6_7  and  C7_9 
REMARK    5  A    between atoms: C7_9  and  P1_10 
REMARK    6  A    between atoms: P1_10  and  C8_11 
REMARK    7  A    between atoms: C8_11  and  N2_12 
REMARK    8  A    between atoms: C16_23  and  N5_24 
REMARK    9  A    between atoms: N5_24  and  C17_25 
ROOT
HETATM    1  C1  UNL     1      22.832   1.391  50.650  1.00  0.00     0.052 C 
HETATM    2  C2  UNL     1      22.062   1.020  51.859  1.00  0.00    -0.009 A 
HETATM    3  C3  UNL     1      20.776   1.431  52.132  1.00  0.00     0.044 A 
HETATM    4  N3  UNL     1      20.120   1.060  53.259  1.00  0.00    -0.263 NA
HETATM    5  C13 UNL     1      20.713   0.264  54.167  1.00  0.00     0.142 A 
HETATM    6  C14 UNL     1      21.991  -0.176  53.948  1.00  0.00     0.089 A 
HETATM    7  C15 UNL     1      22.568  -1.022  54.952  1.00  0.00     0.103 C 
HETATM    8  N4  UNL     1      23.033  -1.695  55.772  1.00  0.00    -0.191 NA
HETATM    9  C16 UNL     1      22.654   0.204  52.799  1.00  0.00     0.063 A 
ENDROOT
BRANCH   9  10
HETATM   10  N5  UNL     1      23.983  -0.318  52.685  1.00  0.00    -0.354 N 
HETATM   11  H21 UNL     1      24.012  -1.283  52.340  1.00  0.00     0.166 HD
BRANCH  10  12
HETATM   12  C17 UNL     1      25.131   0.451  53.026  1.00  0.00     0.034 A 
HETATM   13  C18 UNL     1      24.951   1.789  53.345  1.00  0.00     0.032 A 
HETATM   14  C19 UNL     1      26.095   2.500  53.670  1.00  0.00     0.046 A 
HETATM   15  C20 UNL     1      27.349   1.907  53.675  1.00  0.00     0.138 A 
HETATM   16  F1  UNL     1      28.409   2.689  54.007  1.00  0.00    -0.204 F 
HETATM   17  C21 UNL     1      27.462   0.566  53.346  1.00  0.00     0.074 A 
HETATM   18 CL1  UNL     1      29.056  -0.155  53.360  1.00  0.00    -0.081 Cl
HETATM   19  C22 UNL     1      26.349  -0.161  53.022  1.00  0.00     0.056 A 
ENDBRANCH  10  12
ENDBRANCH   9  10
BRANCH   3  20
HETATM   20  C4  UNL     1      20.054   2.309  51.178  1.00  0.00     0.079 C 
BRANCH  20  21
HETATM   21  C5  UNL     1      19.846   3.658  51.816  1.00  0.00     0.129 C 
BRANCH  21  22
HETATM   22  N1  UNL     1      20.404   4.751  51.023  1.00  0.00    -0.357 N 
HETATM   23  C6  UNL     1      21.596   5.437  51.383  1.00  0.00     0.242 C 
HETATM   24  O1  UNL     1      22.220   5.112  52.424  1.00  0.00    -0.269 OA
HETATM   25  H8  UNL     1      19.941   5.088  50.132  1.00  0.00     0.162 HD
BRANCH  23  26
HETATM   26  C7  UNL     1      22.105   6.536  50.535  1.00  0.00     0.087 C 
BRANCH  26  27
HETATM   27  P1  UNL     1      22.553   6.216  48.971  1.00  0.00    -0.025 P 
BRANCH  27  28
HETATM   28  C8  UNL     1      24.185   5.382  48.673  1.00  0.00     0.315 C 
BRANCH  28  29
HETATM   29  N2  UNL     1      24.998   5.602  49.828  1.00  0.00     0.097 N 
HETATM   30  C9  UNL     1      25.286   4.444  50.616  1.00  0.00     0.299 C 
HETATM   31  C10 UNL     1      26.139   3.505  49.863  1.00  0.00     0.198 C 
HETATM   32  O2  UNL     1      26.953   3.952  48.901  1.00  0.00    -0.388 OA
HETATM   33  C11 UNL     1      27.121   5.281  48.712  1.00  0.00     0.198 C 
HETATM   34  C12 UNL     1      26.244   6.200  49.461  1.00  0.00     0.299 C 
ENDBRANCH  28  29
ENDBRANCH  27  28
ENDBRANCH  26  27
ENDBRANCH  23  26
ENDBRANCH  21  22
ENDBRANCH  20  21
ENDBRANCH   3  20
TORSDOF 9
ENDMDL
MODEL 4
REMARK VINA RESULT:      -8.1      5.970      9.015
REMARK  9 active torsions:
REMARK  status: ('A' for Active; 'I' for Inactive)
REMARK    1  A    between atoms: C3_3  and  C4_4 
REMARK    2  A    between atoms: C4_4  and  C5_5 
REMARK    3  A    between atoms: C5_5  and  N1_6 
REMARK       I    between atoms: N1_6  and  C6_7 
REMARK    4  A    between atoms: C6_7  and  C7_9 
REMARK    5  A    between atoms: C7_9  and  P1_10 
REMARK    6  A    between atoms: P1_10  and  C8_11 
REMARK    7  A    between atoms: C8_11  and  N2_12 
REMARK    8  A    between atoms: C16_23  and  N5_24 
REMARK    9  A    between atoms: N5_24  and  C17_25 
ROOT
HETATM    1  C1  UNL     1      24.570   2.408  51.354  1.00  0.00     0.052 C 
HETATM    2  C2  UNL     1      23.440   1.484  51.604  1.00  0.00    -0.009 A 
HETATM    3  C3  UNL     1      22.383   1.282  50.745  1.00  0.00     0.044 A 
HETATM    4  N3  UNL     1      21.374   0.421  51.028  1.00  0.00    -0.263 NA
HETATM    5  C13 UNL     1      21.369  -0.276  52.179  1.00  0.00     0.142 A 
HETATM    6  C14 UNL     1      22.396  -0.116  53.071  1.00  0.00     0.089 A 
HETATM    7  C15 UNL     1      22.335  -0.886  54.278  1.00  0.00     0.103 C 
HETATM    8  N4  UNL     1      22.274  -1.503  55.257  1.00  0.00    -0.191 NA
HETATM    9  C16 UNL     1      23.421   0.761  52.777  1.00  0.00     0.063 A 
ENDROOT
BRANCH   9  10
HETATM   10  N5  UNL     1      24.433   0.843  53.787  1.00  0.00    -0.354 N 
HETATM   11  H21 UNL     1      24.120   1.318  54.639  1.00  0.00     0.166 HD
BRANCH  10  12
HETATM   12  C17 UNL     1      25.738   0.307  53.596  1.00  0.00     0.034 A 
HETATM   13  C18 UNL     1      25.854  -0.929  52.976  1.00  0.00     0.032 A 
HETATM   14  C19 UNL     1      27.142  -1.412  52.812  1.00  0.00     0.046 A 
HETATM   15  C20 UNL     1      28.252  -0.701  53.244  1.00  0.00     0.138 A 
HETATM   16  F1  UNL     1      29.472  -1.262  53.038  1.00  0.00    -0.204 F 
HETATM   17  C21 UNL     1      28.069   0.527  53.857  1.00  0.00     0.074 A 
HETATM   18 CL1  UNL     1      29.487   1.401  54.393  1.00  0.00    -0.081 Cl
HETATM   19  C22 UNL     1      26.808   1.029  54.033  1.00  0.00     0.056 A 
ENDBRANCH  10  12
ENDBRANCH   9  10
BRANCH   3  20
HETATM   20  C4  UNL     1      22.316   2.012  49.456  1.00  0.00     0.079 C 
BRANCH  20  21
HETATM   21  C5  UNL     1      21.266   1.374  48.585  1.00  0.00     0.129 C 
BRANCH  21  22
HETATM   22  N1  UNL     1      19.909   1.780  48.946  1.00  0.00    -0.357 N 
HETATM   23  C6  UNL     1      19.157   2.721  48.193  1.00  0.00     0.242 C 
HETATM   24  O1  UNL     1      19.654   3.247  47.165  1.00  0.00    -0.269 OA
HETATM   25  H8  UNL     1      19.416   1.386  49.797  1.00  0.00     0.162 HD
BRANCH  23  26
HETATM   26  C7  UNL     1      17.789   3.088  48.615  1.00  0.00     0.087 C 
BRANCH  26  27
HETATM   27  P1  UNL     1      17.505   3.482  50.201  1.00  0.00    -0.025 P 
BRANCH  27  28
HETATM   28  C8  UNL     1      17.430   2.112  51.451  1.00  0.00     0.315 C 
BRANCH  28  29
HETATM   29  N2  UNL     1      17.037   0.922  50.763  1.00  0.00     0.097 N 
HETATM   30  C9  UNL     1      17.752  -0.265  51.116  1.00  0.00     0.299 C 
HETATM   31  C10 UNL     1      17.459  -0.652  52.508  1.00  0.00     0.198 C 
HETATM   32  O2  UNL     1      16.299  -0.304  53.078  1.00  0.00    -0.388 OA
HETATM   33  C11 UNL     1      15.321   0.269  52.340  1.00  0.00     0.198 C 
HETATM   34  C12 UNL     1      15.644   0.665  50.956  1.00  0.00     0.299 C 
ENDBRANCH  28  29
ENDBRANCH  27  28
ENDBRANCH  26  27
ENDBRANCH  23  26
ENDBRANCH  21  22
ENDBRANCH  20  21
ENDBRANCH   3  20
TORSDOF 9
ENDMDL
MODEL 5
REMARK VINA RESULT:      -8.0      2.767      4.038
REMARK  9 active torsions:
REMARK  status: ('A' for Active; 'I' for Inactive)
REMARK    1  A    between atoms: C3_3  and  C4_4 
REMARK    2  A    between atoms: C4_4  and  C5_5 
REMARK    3  A    between atoms: C5_5  and  N1_6 
REMARK       I    between atoms: N1_6  and  C6_7 
REMARK    4  A    between atoms: C6_7  and  C7_9 
REMARK    5  A    between atoms: C7_9  and  P1_10 
REMARK    6  A    between atoms: P1_10  and  C8_11 
REMARK    7  A    between atoms: C8_11  and  N2_12 
REMARK    8  A    between atoms: C16_23  and  N5_24 
REMARK    9  A    between atoms: N5_24  and  C17_25 
ROOT
HETATM    1  C1  UNL     1      24.815   2.412  51.512  1.00  0.00     0.052 C 
HETATM    2  C2  UNL     1      23.605   1.569  51.647  1.00  0.00    -0.009 A 
HETATM    3  C3  UNL     1      22.579   1.510  50.731  1.00  0.00     0.044 A 
HETATM    4  N3  UNL     1      21.492   0.718  50.909  1.00  0.00    -0.263 NA
HETATM    5  C13 UNL     1      21.376  -0.051  52.007  1.00  0.00     0.142 A 
HETATM    6  C14 UNL     1      22.367  -0.033  52.952  1.00  0.00     0.089 A 
HETATM    7  C15 UNL     1      22.186  -0.873  54.099  1.00  0.00     0.103 C 
HETATM    8  N4  UNL     1      22.028  -1.546  55.030  1.00  0.00    -0.191 NA
HETATM    9  C16 UNL     1      23.471   0.775  52.766  1.00  0.00     0.063 A 
ENDROOT
BRANCH   9  10
HETATM   10  N5  UNL     1      24.435   0.708  53.823  1.00  0.00    -0.354 N 
HETATM   11  H21 UNL     1      24.083   1.064  54.717  1.00  0.00     0.166 HD
BRANCH  10  12
HETATM   12  C17 UNL     1      25.745   0.192  53.620  1.00  0.00     0.034 A 
HETATM   13  C18 UNL     1      25.877  -1.016  52.950  1.00  0.00     0.032 A 
HETATM   14  C19 UNL     1      27.171  -1.482  52.776  1.00  0.00     0.046 A 
HETATM   15  C20 UNL     1      28.271  -0.780  53.247  1.00  0.00     0.138 A 
HETATM   16  F1  UNL     1      29.498  -1.321  53.027  1.00  0.00    -0.204 F 
HETATM   17  C21 UNL     1      28.073   0.420  53.909  1.00  0.00     0.074 A 
HETATM   18 CL1  UNL     1      29.479   1.283  54.492  1.00  0.00    -0.081 Cl
HETATM   19  C22 UNL     1      26.806   0.904  54.095  1.00  0.00     0.056 A 
ENDBRANCH  10  12
ENDBRANCH   9  10
BRANCH   3  20
HETATM   20  C4  UNL     1      22.634   2.326  49.493  1.00  0.00     0.079 C 
BRANCH  20  21
HETATM   21  C5  UNL     1      21.847   3.592  49.706  1.00  0.00     0.129 C 
BRANCH  21  22
HETATM   22  N1  UNL     1      22.691   4.784  49.745  1.00  0.00    -0.357 N 
HETATM   23  C6  UNL     1      22.956   5.506  50.939  1.00  0.00     0.242 C 
HETATM   24  O1  UNL     1      22.456   5.129  52.028  1.00  0.00    -0.269 OA
HETATM   25  H8  UNL     1      23.152   5.171  48.872  1.00  0.00     0.162 HD
BRANCH  23  26
HETATM   26  C7  UNL     1      23.819   6.706  50.906  1.00  0.00     0.087 C 
BRANCH  26  27
HETATM   27  P1  UNL     1      25.251   6.656  50.070  1.00  0.00    -0.025 P 
BRANCH  27  28
HETATM   28  C8  UNL     1      25.597   7.995  48.831  1.00  0.00     0.315 C 
BRANCH  28  29
HETATM   29  N2  UNL     1      25.933   9.178  49.560  1.00  0.00     0.097 N 
HETATM   30  C9  UNL     1      27.176   9.142  50.266  1.00  0.00     0.299 C 
HETATM   31  C10 UNL     1      28.307   9.079  49.322  1.00  0.00     0.198 C 
HETATM   32  O2  UNL     1      28.185   9.578  48.087  1.00  0.00    -0.388 OA
HETATM   33  C11 UNL     1      27.084  10.282  47.739  1.00  0.00     0.198 C 
HETATM   34  C12 UNL     1      25.958  10.314  48.692  1.00  0.00     0.299 C 
ENDBRANCH  28  29
ENDBRANCH  27  28
ENDBRANCH  26  27
ENDBRANCH  23  26
ENDBRANCH  21  22
ENDBRANCH  20  21
ENDBRANCH   3  20
TORSDOF 9
ENDMDL
MODEL 6
REMARK VINA RESULT:      -8.0      6.427     10.214
REMARK  9 active torsions:
REMARK  status: ('A' for Active; 'I' for Inactive)
REMARK    1  A    between atoms: C3_3  and  C4_4 
REMARK    2  A    between atoms: C4_4  and  C5_5 
REMARK    3  A    between atoms: C5_5  and  N1_6 
REMARK       I    between atoms: N1_6  and  C6_7 
REMARK    4  A    between atoms: C6_7  and  C7_9 
REMARK    5  A    between atoms: C7_9  and  P1_10 
REMARK    6  A    between atoms: P1_10  and  C8_11 
REMARK    7  A    between atoms: C8_11  and  N2_12 
REMARK    8  A    between atoms: C16_23  and  N5_24 
REMARK    9  A    between atoms: N5_24  and  C17_25 
ROOT
HETATM    1  C1  UNL     1      24.278   2.365  51.444  1.00  0.00     0.052 C 
HETATM    2  C2  UNL     1      23.265   1.347  51.803  1.00  0.00    -0.009 A 
HETATM    3  C3  UNL     1      22.165   1.025  51.039  1.00  0.00     0.044 A 
HETATM    4  N3  UNL     1      21.269   0.082  51.420  1.00  0.00    -0.263 NA
HETATM    5  C13 UNL     1      21.425  -0.585  52.578  1.00  0.00     0.142 A 
HETATM    6  C14 UNL     1      22.501  -0.307  53.379  1.00  0.00     0.089 A 
HETATM    7  C15 UNL     1      22.613  -1.050  54.599  1.00  0.00     0.103 C 
HETATM    8  N4  UNL     1      22.691  -1.646  55.590  1.00  0.00    -0.191 NA
HETATM    9  C16 UNL     1      23.411   0.654  52.986  1.00  0.00     0.063 A 
ENDROOT
BRANCH   9  10
HETATM   10  N5  UNL     1      24.490   0.854  53.906  1.00  0.00    -0.354 N 
HETATM   11  H21 UNL     1      24.222   1.394  54.735  1.00  0.00     0.166 HD
BRANCH  10  12
HETATM   12  C17 UNL     1      25.795   0.342  53.664  1.00  0.00     0.034 A 
HETATM   13  C18 UNL     1      25.911  -0.872  53.002  1.00  0.00     0.032 A 
HETATM   14  C19 UNL     1      27.200  -1.332  52.789  1.00  0.00     0.046 A 
HETATM   15  C20 UNL     1      28.312  -0.620  53.215  1.00  0.00     0.138 A 
HETATM   16  F1  UNL     1      29.533  -1.158  52.959  1.00  0.00    -0.204 F 
HETATM   17  C21 UNL     1      28.130   0.585  53.871  1.00  0.00     0.074 A 
HETATM   18 CL1  UNL     1      29.551   1.461  54.397  1.00  0.00    -0.081 Cl
HETATM   19  C22 UNL     1      26.868   1.065  54.095  1.00  0.00     0.056 A 
ENDBRANCH  10  12
ENDBRANCH   9  10
BRANCH   3  20
HETATM   20  C4  UNL     1      21.924   1.715  49.748  1.00  0.00     0.079 C 
BRANCH  20  21
HETATM   21  C5  UNL     1      20.524   1.410  49.284  1.00  0.00     0.129 C 
BRANCH  21  22
HETATM   22  N1  UNL     1      19.505   2.122  50.051  1.00  0.00    -0.357 N 
HETATM   23  C6  UNL     1      18.222   1.577  50.326  1.00  0.00     0.242 C 
HETATM   24  O1  UNL     1      17.920   0.432  49.903  1.00  0.00    -0.269 OA
HETATM   25  H8  UNL     1      19.677   3.091  50.444  1.00  0.00     0.162 HD
BRANCH  23  26
HETATM   26  C7  UNL     1      17.237   2.353  51.108  1.00  0.00     0.087 C 
BRANCH  26  27
HETATM   27  P1  UNL     1      16.010   3.141  50.318  1.00  0.00    -0.025 P 
BRANCH  27  28
HETATM   28  C8  UNL     1      14.551   3.722  51.310  1.00  0.00     0.315 C 
BRANCH  28  29
HETATM   29  N2  UNL     1      14.773   3.334  52.668  1.00  0.00     0.097 N 
HETATM   30  C9  UNL     1      14.432   4.310  53.656  1.00  0.00     0.299 C 
HETATM   31  C10 UNL     1      12.975   4.540  53.677  1.00  0.00     0.198 C 
HETATM   32  O2  UNL     1      12.133   3.579  53.281  1.00  0.00    -0.388 OA
HETATM   33  C11 UNL     1      12.593   2.337  53.008  1.00  0.00     0.198 C 
HETATM   34  C12 UNL     1      14.055   2.136  52.973  1.00  0.00     0.299 C 
ENDBRANCH  28  29
ENDBRANCH  27  28
ENDBRANCH  26  27
ENDBRANCH  23  26
ENDBRANCH  21  22
ENDBRANCH  20  21
ENDBRANCH   3  20
TORSDOF 9
ENDMDL
MODEL 7
REMARK VINA RESULT:      -7.9      1.862      2.285
REMARK  9 active torsions:
REMARK  status: ('A' for Active; 'I' for Inactive)
REMARK    1  A    between atoms: C3_3  and  C4_4 
REMARK    2  A    between atoms: C4_4  and  C5_5 
REMARK    3  A    between atoms: C5_5  and  N1_6 
REMARK       I    between atoms: N1_6  and  C6_7 
REMARK    4  A    between atoms: C6_7  and  C7_9 
REMARK    5  A    between atoms: C7_9  and  P1_10 
REMARK    6  A    between atoms: P1_10  and  C8_11 
REMARK    7  A    between atoms: C8_11  and  N2_12 
REMARK    8  A    between atoms: C16_23  and  N5_24 
REMARK    9  A    between atoms: N5_24  and  C17_25 
ROOT
HETATM    1  C1  UNL     1      25.191   3.013  49.519  1.00  0.00     0.052 C 
HETATM    2  C2  UNL     1      24.241   3.913  50.210  1.00  0.00    -0.009 A 
HETATM    3  C3  UNL     1      24.368   5.282  50.291  1.00  0.00     0.044 A 
HETATM    4  N3  UNL     1      23.464   6.057  50.940  1.00  0.00    -0.263 NA
HETATM    5  C13 UNL     1      22.392   5.507  51.538  1.00  0.00     0.142 A 
HETATM    6  C14 UNL     1      22.213   4.150  51.489  1.00  0.00     0.089 A 
HETATM    7  C15 UNL     1      21.053   3.623  52.145  1.00  0.00     0.103 C 
HETATM    8  N4  UNL     1      20.119   3.202  52.686  1.00  0.00    -0.191 NA
HETATM    9  C16 UNL     1      23.136   3.365  50.827  1.00  0.00     0.063 A 
ENDROOT
BRANCH   9  10
HETATM   10  N5  UNL     1      22.841   1.964  50.847  1.00  0.00    -0.354 N 
HETATM   11  H21 UNL     1      22.355   1.639  50.004  1.00  0.00     0.166 HD
BRANCH  10  12
HETATM   12  C17 UNL     1      23.198   1.130  51.943  1.00  0.00     0.034 A 
HETATM   13  C18 UNL     1      22.271   0.196  52.383  1.00  0.00     0.032 A 
HETATM   14  C19 UNL     1      22.660  -0.594  53.453  1.00  0.00     0.046 A 
HETATM   15  C20 UNL     1      23.905  -0.458  54.050  1.00  0.00     0.138 A 
HETATM   16  F1  UNL     1      24.192  -1.279  55.093  1.00  0.00    -0.204 F 
HETATM   17  C21 UNL     1      24.785   0.494  53.563  1.00  0.00     0.074 A 
HETATM   18 CL1  UNL     1      26.348   0.644  54.336  1.00  0.00    -0.081 Cl
HETATM   19  C22 UNL     1      24.428   1.289  52.507  1.00  0.00     0.056 A 
ENDBRANCH  10  12
ENDBRANCH   9  10
BRANCH   3  20
HETATM   20  C4  UNL     1      25.522   5.964  49.656  1.00  0.00     0.079 C 
BRANCH  20  21
HETATM   21  C5  UNL     1      25.686   7.328  50.275  1.00  0.00     0.129 C 
BRANCH  21  22
HETATM   22  N1  UNL     1      27.032   7.869  50.104  1.00  0.00    -0.357 N 
HETATM   23  C6  UNL     1      27.287   9.243  49.846  1.00  0.00     0.242 C 
HETATM   24  O1  UNL     1      26.332  10.055  49.755  1.00  0.00    -0.269 OA
HETATM   25  H8  UNL     1      27.893   7.255  50.164  1.00  0.00     0.162 HD
BRANCH  23  26
HETATM   26  C7  UNL     1      28.675   9.723  49.682  1.00  0.00     0.087 C 
BRANCH  26  27
HETATM   27  P1  UNL     1      29.636   9.050  48.510  1.00  0.00    -0.025 P 
BRANCH  27  28
HETATM   28  C8  UNL     1      30.938   7.831  49.029  1.00  0.00     0.315 C 
BRANCH  28  29
HETATM   29  N2  UNL     1      31.798   7.618  47.908  1.00  0.00     0.097 N 
HETATM   30  C9  UNL     1      33.148   7.262  48.219  1.00  0.00     0.299 C 
HETATM   31  C10 UNL     1      33.201   5.932  48.853  1.00  0.00     0.198 C 
HETATM   32  O2  UNL     1      32.247   5.027  48.607  1.00  0.00    -0.388 OA
HETATM   33  C11 UNL     1      31.313   5.260  47.658  1.00  0.00     0.198 C 
HETATM   34  C12 UNL     1      31.268   6.604  47.051  1.00  0.00     0.299 C 
ENDBRANCH  28  29
ENDBRANCH  27  28
ENDBRANCH  26  27
ENDBRANCH  23  26
ENDBRANCH  21  22
ENDBRANCH  20  21
ENDBRANCH   3  20
TORSDOF 9
ENDMDL
MODEL 8
REMARK VINA RESULT:      -7.8      2.586      3.329
REMARK  9 active torsions:
REMARK  status: ('A' for Active; 'I' for Inactive)
REMARK    1  A    between atoms: C3_3  and  C4_4 
REMARK    2  A    between atoms: C4_4  and  C5_5 
REMARK    3  A    between atoms: C5_5  and  N1_6 
REMARK       I    between atoms: N1_6  and  C6_7 
REMARK    4  A    between atoms: C6_7  and  C7_9 
REMARK    5  A    between atoms: C7_9  and  P1_10 
REMARK    6  A    between atoms: P1_10  and  C8_11 
REMARK    7  A    between atoms: C8_11  and  N2_12 
REMARK    8  A    between atoms: C16_23  and  N5_24 
REMARK    9  A    between atoms: N5_24  and  C17_25 
ROOT
HETATM    1  C1  UNL     1      23.578   4.860  52.780  1.00  0.00     0.052 C 
HETATM    2  C2  UNL     1      23.549   4.679  51.311  1.00  0.00    -0.009 A 
HETATM    3  C3  UNL     1      24.076   5.564  50.397  1.00  0.00     0.044 A 
HETATM    4  N3  UNL     1      24.018   5.345  49.059  1.00  0.00    -0.263 NA
HETATM    5  C13 UNL     1      23.433   4.236  48.571  1.00  0.00     0.142 A 
HETATM    6  C14 UNL     1      22.892   3.321  49.433  1.00  0.00     0.089 A 
HETATM    7  C15 UNL     1      22.283   2.160  48.852  1.00  0.00     0.103 C 
HETATM    8  N4  UNL     1      21.782   1.230  48.376  1.00  0.00    -0.191 NA
HETATM    9  C16 UNL     1      22.954   3.548  50.793  1.00  0.00     0.063 A 
ENDROOT
BRANCH   9  10
HETATM   10  N5  UNL     1      22.354   2.521  51.591  1.00  0.00    -0.354 N 
HETATM   11  H21 UNL     1      21.330   2.579  51.625  1.00  0.00     0.166 HD
BRANCH  10  12
HETATM   12  C17 UNL     1      23.127   1.531  52.258  1.00  0.00     0.034 A 
HETATM   13  C18 UNL     1      24.467   1.409  51.919  1.00  0.00     0.032 A 
HETATM   14  C19 UNL     1      25.182   0.431  52.592  1.00  0.00     0.046 A 
HETATM   15  C20 UNL     1      24.591  -0.379  53.550  1.00  0.00     0.138 A 
HETATM   16  F1  UNL     1      25.377  -1.309  54.154  1.00  0.00    -0.204 F 
HETATM   17  C21 UNL     1      23.249  -0.208  53.843  1.00  0.00     0.074 A 
HETATM   18 CL1  UNL     1      22.530  -1.245  55.055  1.00  0.00    -0.081 Cl
HETATM   19  C22 UNL     1      22.518   0.750  53.194  1.00  0.00     0.056 A 
ENDBRANCH  10  12
ENDBRANCH   9  10
BRANCH   3  20
HETATM   20  C4  UNL     1      24.739   6.808  50.857  1.00  0.00     0.079 C 
BRANCH  20  21
HETATM   21  C5  UNL     1      25.654   7.307  49.769  1.00  0.00     0.129 C 
BRANCH  21  22
HETATM   22  N1  UNL     1      26.840   6.471  49.600  1.00  0.00    -0.357 N 
HETATM   23  C6  UNL     1      27.641   6.493  48.426  1.00  0.00     0.242 C 
HETATM   24  O1  UNL     1      27.341   7.254  47.472  1.00  0.00    -0.269 OA
HETATM   25  H8  UNL     1      27.164   5.801  50.354  1.00  0.00     0.162 HD
BRANCH  23  26
HETATM   26  C7  UNL     1      28.829   5.620  48.321  1.00  0.00     0.087 C 
BRANCH  26  27
HETATM   27  P1  UNL     1      30.329   6.304  48.142  1.00  0.00    -0.025 P 
BRANCH  27  28
HETATM   28  C8  UNL     1      31.823   5.263  48.505  1.00  0.00     0.315 C 
BRANCH  28  29
HETATM   29  N2  UNL     1      32.848   5.646  47.585  1.00  0.00     0.097 N 
HETATM   30  C9  UNL     1      34.162   5.170  47.884  1.00  0.00     0.299 C 
HETATM   31  C10 UNL     1      34.223   3.702  47.757  1.00  0.00     0.198 C 
HETATM   32  O2  UNL     1      33.384   3.058  46.937  1.00  0.00    -0.388 OA
HETATM   33  C11 UNL     1      32.579   3.753  46.101  1.00  0.00     0.198 C 
HETATM   34  C12 UNL     1      32.521   5.218  46.260  1.00  0.00     0.299 C 
ENDBRANCH  28  29
ENDBRANCH  27  28
ENDBRANCH  26  27
ENDBRANCH  23  26
ENDBRANCH  21  22
ENDBRANCH  20  21
ENDBRANCH   3  20
TORSDOF 9
ENDMDL
MODEL 9
REMARK VINA RESULT:      -7.8      1.486      1.909
REMARK  9 active torsions:
REMARK  status: ('A' for Active; 'I' for Inactive)
REMARK    1  A    between atoms: C3_3  and  C4_4 
REMARK    2  A    between atoms: C4_4  and  C5_5 
REMARK    3  A    between atoms: C5_5  and  N1_6 
REMARK       I    between atoms: N1_6  and  C6_7 
REMARK    4  A    between atoms: C6_7  and  C7_9 
REMARK    5  A    between atoms: C7_9  and  P1_10 
REMARK    6  A    between atoms: P1_10  and  C8_11 
REMARK    7  A    between atoms: C8_11  and  N2_12 
REMARK    8  A    between atoms: C16_23  and  N5_24 
REMARK    9  A    between atoms: N5_24  and  C17_25 
ROOT
HETATM    1  C1  UNL     1      26.617   3.224  49.596  1.00  0.00     0.052 C 
HETATM    2  C2  UNL     1      25.520   4.138  49.985  1.00  0.00    -0.009 A 
HETATM    3  C3  UNL     1      25.472   5.482  49.693  1.00  0.00     0.044 A 
HETATM    4  N3  UNL     1      24.438   6.272  50.078  1.00  0.00    -0.263 NA
HETATM    5  C13 UNL     1      23.406   5.760  50.772  1.00  0.00     0.142 A 
HETATM    6  C14 UNL     1      23.399   4.428  51.091  1.00  0.00     0.089 A 
HETATM    7  C15 UNL     1      22.272   3.942  51.831  1.00  0.00     0.103 C 
HETATM    8  N4  UNL     1      21.364   3.558  52.439  1.00  0.00    -0.191 NA
HETATM    9  C16 UNL     1      24.454   3.629  50.696  1.00  0.00     0.063 A 
ENDROOT
BRANCH   9  10
HETATM   10  N5  UNL     1      24.333   2.257  51.090  1.00  0.00    -0.354 N 
HETATM   11  H21 UNL     1      23.624   1.743  50.557  1.00  0.00     0.166 HD
BRANCH  10  12
HETATM   12  C17 UNL     1      25.132   1.693  52.122  1.00  0.00     0.034 A 
HETATM   13  C18 UNL     1      25.336   2.439  53.274  1.00  0.00     0.032 A 
HETATM   14  C19 UNL     1      26.122   1.851  54.253  1.00  0.00     0.046 A 
HETATM   15  C20 UNL     1      26.673   0.588  54.089  1.00  0.00     0.138 A 
HETATM   16  F1  UNL     1      27.428   0.099  55.107  1.00  0.00    -0.204 F 
HETATM   17  C21 UNL     1      26.432  -0.106  52.915  1.00  0.00     0.074 A 
HETATM   18 CL1  UNL     1      27.140  -1.696  52.737  1.00  0.00    -0.081 Cl
HETATM   19  C22 UNL     1      25.660   0.450  51.931  1.00  0.00     0.056 A 
ENDBRANCH  10  12
ENDBRANCH   9  10
BRANCH   3  20
HETATM   20  C4  UNL     1      26.571   6.121  48.929  1.00  0.00     0.079 C 
BRANCH  20  21
HETATM   21  C5  UNL     1      26.289   7.596  48.805  1.00  0.00     0.129 C 
BRANCH  21  22
HETATM   22  N1  UNL     1      27.490   8.381  48.529  1.00  0.00    -0.357 N 
HETATM   23  C6  UNL     1      28.027   9.322  49.448  1.00  0.00     0.242 C 
HETATM   24  O1  UNL     1      27.467   9.510  50.557  1.00  0.00    -0.269 OA
HETATM   25  H8  UNL     1      28.024   8.284  47.618  1.00  0.00     0.162 HD
BRANCH  23  26
HETATM   26  C7  UNL     1      29.246  10.084  49.103  1.00  0.00     0.087 C 
BRANCH  26  27
HETATM   27  P1  UNL     1      30.724   9.336  49.187  1.00  0.00    -0.025 P 
BRANCH  27  28
HETATM   28  C8  UNL     1      31.048   7.893  48.064  1.00  0.00     0.315 C 
BRANCH  28  29
HETATM   29  N2  UNL     1      30.730   6.704  48.789  1.00  0.00     0.097 N 
HETATM   30  C9  UNL     1      30.430   5.553  47.996  1.00  0.00     0.299 C 
HETATM   31  C10 UNL     1      31.626   5.105  47.259  1.00  0.00     0.198 C 
HETATM   32  O2  UNL     1      32.850   5.363  47.734  1.00  0.00    -0.388 OA
HETATM   33  C11 UNL     1      33.005   5.896  48.967  1.00  0.00     0.198 C 
HETATM   34  C12 UNL     1      31.795   6.355  49.677  1.00  0.00     0.299 C 
ENDBRANCH  28  29
ENDBRANCH  27  28
ENDBRANCH  26  27
ENDBRANCH  23  26
ENDBRANCH  21  22
ENDBRANCH  20  21
ENDBRANCH   3  20
TORSDOF 9
ENDMDL
