MODEL 1
REMARK VINA RESULT:      -7.1      0.000      0.000
REMARK  8 active torsions:
REMARK  status: ('A' for Active; 'I' for Inactive)
REMARK    1  A    between atoms: C2_2  and  O1_3 
REMARK    2  A    between atoms: O1_3  and  C3_4 
REMARK    3  A    between atoms: C6_7  and  N1_8 
REMARK    4  A    between atoms: N1_8  and  C7_9 
REMARK    5  A    between atoms: C8_10  and  C9_11 
REMARK    6  A    between atoms: C10_12  and  O2_13 
REMARK    7  A    between atoms: C10_12  and  C11_14 
REMARK    8  A    between atoms: C16_21  and  O3_22 
ROOT
HETATM    1  C3  UNL     1      25.697  -0.195  53.720  1.00  0.00     0.103 A 
HETATM    2  C4  UNL     1      24.828   0.445  52.869  1.00  0.00     0.055 A 
HETATM    3  C5  UNL     1      25.245   1.419  52.007  1.00  0.00     0.022 A 
HETATM    4  C6  UNL     1      24.383   2.074  51.163  1.00  0.00     0.042 A 
HETATM    5  C12 UNL     1      24.750   3.083  50.264  1.00  0.00     0.049 A 
HETATM    6  C13 UNL     1      26.093   3.384  50.292  1.00  0.00     0.119 A 
HETATM    7  N2  UNL     1      26.942   2.753  51.116  1.00  0.00    -0.260 NA
HETATM    8  C14 UNL     1      26.570   1.786  51.968  1.00  0.00     0.071 A 
HETATM    9  C15 UNL     1      27.491   1.190  52.792  1.00  0.00     0.072 A 
HETATM   10  C16 UNL     1      27.029   0.228  53.633  1.00  0.00     0.103 A 
ENDROOT
BRANCH   4  11
HETATM   11  N1  UNL     1      23.004   1.643  51.287  1.00  0.00    -0.388 N 
HETATM   12  H7  UNL     1      22.848   0.735  50.695  1.00  0.00     0.159 HD
BRANCH  11  13
HETATM   13  C7  UNL     1      21.798   2.107  51.955  1.00  0.00     0.071 C 
HETATM   14  C8  UNL     1      20.736   1.826  52.821  1.00  0.00     0.095 C 
BRANCH  14  15
HETATM   15  C9  UNL     1      20.580   0.492  53.470  1.00  0.00     0.015 C 
HETATM   16  C10 UNL     1      19.628  -0.411  53.319  1.00  0.00     0.068 C 
BRANCH  16  17
HETATM   17  O2  UNL     1      19.913  -1.481  54.145  1.00  0.00    -0.363 OA
HETATM   18  H11 UNL     1      20.405  -2.333  53.817  1.00  0.00     0.217 HD
ENDBRANCH  16  17
BRANCH  16  19
HETATM   19  C11 UNL     1      18.475  -0.269  52.426  1.00  0.00     0.286 C 
HETATM   20  F1  UNL     1      18.918  -0.333  51.112  1.00  0.00    -0.248 F 
ENDBRANCH  16  19
ENDBRANCH  14  15
ENDBRANCH  11  13
ENDBRANCH   4  11
BRANCH   1  21
HETATM   21  O1  UNL     1      25.443  -1.177  54.633  1.00  0.00    -0.349 OA
BRANCH  21  22
HETATM   22  C2  UNL     1      24.640  -1.193  55.743  1.00  0.00     0.171 C 
HETATM   23  C1  UNL     1      23.158  -1.436  55.471  1.00  0.00     0.034 C 
ENDBRANCH  21  22
ENDBRANCH   1  21
BRANCH  10  24
HETATM   24  O3  UNL     1      27.984  -0.369  54.458  1.00  0.00    -0.353 OA
HETATM   25  C17 UNL     1      29.322  -0.524  54.103  1.00  0.00     0.210 C 
ENDBRANCH  10  24
TORSDOF 8
ENDMDL
MODEL 2
REMARK VINA RESULT:      -7.1      2.784      4.851
REMARK  8 active torsions:
REMARK  status: ('A' for Active; 'I' for Inactive)
REMARK    1  A    between atoms: C2_2  and  O1_3 
REMARK    2  A    between atoms: O1_3  and  C3_4 
REMARK    3  A    between atoms: C6_7  and  N1_8 
REMARK    4  A    between atoms: N1_8  and  C7_9 
REMARK    5  A    between atoms: C8_10  and  C9_11 
REMARK    6  A    between atoms: C10_12  and  O2_13 
REMARK    7  A    between atoms: C10_12  and  C11_14 
REMARK    8  A    between atoms: C16_21  and  O3_22 
ROOT
HETATM    1  C3  UNL     1      25.694   0.891  52.167  1.00  0.00     0.103 A 
HETATM    2  C4  UNL     1      24.324   0.928  52.268  1.00  0.00     0.055 A 
HETATM    3  C5  UNL     1      23.648   0.218  53.220  1.00  0.00     0.022 A 
HETATM    4  C6  UNL     1      22.279   0.237  53.321  1.00  0.00     0.042 A 
HETATM    5  C12 UNL     1      21.533  -0.474  54.269  1.00  0.00     0.049 A 
HETATM    6  C13 UNL     1      22.305  -1.227  55.125  1.00  0.00     0.119 A 
HETATM    7  N2  UNL     1      23.641  -1.255  55.032  1.00  0.00    -0.260 NA
HETATM    8  C14 UNL     1      24.338  -0.563  54.117  1.00  0.00     0.071 A 
HETATM    9  C15 UNL     1      25.707  -0.649  54.073  1.00  0.00     0.072 A 
HETATM   10  C16 UNL     1      26.334   0.075  53.108  1.00  0.00     0.103 A 
ENDROOT
BRANCH   4  11
HETATM   11  N1  UNL     1      21.632   1.065  52.321  1.00  0.00    -0.388 N 
HETATM   12  H7  UNL     1      21.710   0.585  51.340  1.00  0.00     0.159 HD
BRANCH  11  13
HETATM   13  C7  UNL     1      20.947   2.347  52.280  1.00  0.00     0.071 C 
HETATM   14  C8  UNL     1      21.036   3.743  52.254  1.00  0.00     0.095 C 
BRANCH  14  15
HETATM   15  C9  UNL     1      22.352   4.448  52.269  1.00  0.00     0.015 C 
HETATM   16  C10 UNL     1      23.200   4.664  51.281  1.00  0.00     0.068 C 
BRANCH  16  17
HETATM   17  O2  UNL     1      24.288   5.348  51.788  1.00  0.00    -0.363 OA
HETATM   18  H11 UNL     1      24.250   5.901  52.665  1.00  0.00     0.217 HD
ENDBRANCH  16  17
BRANCH  16  19
HETATM   19  C11 UNL     1      22.999   4.234  49.894  1.00  0.00     0.286 C 
HETATM   20  F1  UNL     1      23.241   2.869  49.812  1.00  0.00    -0.248 F 
ENDBRANCH  16  19
ENDBRANCH  14  15
ENDBRANCH  11  13
ENDBRANCH   4  11
BRANCH   1  21
HETATM   21  O1  UNL     1      26.510   1.534  51.283  1.00  0.00    -0.349 OA
BRANCH  21  22
HETATM   22  C2  UNL     1      26.673   2.866  51.007  1.00  0.00     0.171 C 
HETATM   23  C1  UNL     1      26.544   3.246  49.535  1.00  0.00     0.034 C 
ENDBRANCH  21  22
ENDBRANCH   1  21
BRANCH  10  24
HETATM   24  O3  UNL     1      27.726  -0.022  53.084  1.00  0.00    -0.353 OA
HETATM   25  C17 UNL     1      28.516  -0.087  54.230  1.00  0.00     0.210 C 
ENDBRANCH  10  24
TORSDOF 8
ENDMDL
MODEL 3
REMARK VINA RESULT:      -7.0      3.539      7.330
REMARK  8 active torsions:
REMARK  status: ('A' for Active; 'I' for Inactive)
REMARK    1  A    between atoms: C2_2  and  O1_3 
REMARK    2  A    between atoms: O1_3  and  C3_4 
REMARK    3  A    between atoms: C6_7  and  N1_8 
REMARK    4  A    between atoms: N1_8  and  C7_9 
REMARK    5  A    between atoms: C8_10  and  C9_11 
REMARK    6  A    between atoms: C10_12  and  O2_13 
REMARK    7  A    between atoms: C10_12  and  C11_14 
REMARK    8  A    between atoms: C16_21  and  O3_22 
ROOT
HETATM    1  C3  UNL     1      22.857   2.837  52.200  1.00  0.00     0.103 A 
HETATM    2  C4  UNL     1      23.382   1.716  52.796  1.00  0.00     0.055 A 
HETATM    3  C5  UNL     1      22.588   0.730  53.310  1.00  0.00     0.022 A 
HETATM    4  C6  UNL     1      23.102  -0.387  53.920  1.00  0.00     0.042 A 
HETATM    5  C12 UNL     1      22.340  -1.425  54.470  1.00  0.00     0.049 A 
HETATM    6  C13 UNL     1      20.982  -1.233  54.353  1.00  0.00     0.119 A 
HETATM    7  N2  UNL     1      20.471  -0.144  53.762  1.00  0.00    -0.260 NA
HETATM    8  C14 UNL     1      21.219   0.839  53.239  1.00  0.00     0.071 A 
HETATM    9  C15 UNL     1      20.627   1.932  52.659  1.00  0.00     0.072 A 
HETATM   10  C16 UNL     1      21.458   2.887  52.163  1.00  0.00     0.103 A 
ENDROOT
BRANCH   4  11
HETATM   11  N1  UNL     1      24.551  -0.408  53.974  1.00  0.00    -0.388 N 
HETATM   12  H7  UNL     1      24.888  -0.020  54.941  1.00  0.00     0.159 HD
BRANCH  11  13
HETATM   13  C7  UNL     1      25.646  -0.776  53.090  1.00  0.00     0.071 C 
HETATM   14  C8  UNL     1      26.799  -0.388  52.401  1.00  0.00     0.095 C 
BRANCH  14  15
HETATM   15  C9  UNL     1      27.325   1.008  52.468  1.00  0.00     0.015 C 
HETATM   16  C10 UNL     1      28.314   1.499  53.191  1.00  0.00     0.068 C 
BRANCH  16  17
HETATM   17  O2  UNL     1      28.415   2.851  52.921  1.00  0.00    -0.363 OA
HETATM   18  H11 UNL     1      28.966   3.230  52.129  1.00  0.00     0.217 HD
ENDBRANCH  16  17
BRANCH  16  19
HETATM   19  C11 UNL     1      29.140   0.722  54.119  1.00  0.00     0.286 C 
HETATM   20  F1  UNL     1      30.178   0.135  53.406  1.00  0.00    -0.248 F 
ENDBRANCH  16  19
ENDBRANCH  14  15
ENDBRANCH  11  13
ENDBRANCH   4  11
BRANCH   1  21
HETATM   21  O1  UNL     1      23.505   3.902  51.645  1.00  0.00    -0.349 OA
BRANCH  21  22
HETATM   22  C2  UNL     1      24.140   4.044  50.439  1.00  0.00     0.171 C 
HETATM   23  C1  UNL     1      25.616   3.657  50.431  1.00  0.00     0.034 C 
ENDBRANCH  21  22
ENDBRANCH   1  21
BRANCH  10  24
HETATM   24  O3  UNL     1      20.834   3.988  51.573  1.00  0.00    -0.353 OA
HETATM   25  C17 UNL     1      19.504   3.994  51.162  1.00  0.00     0.210 C 
ENDBRANCH  10  24
TORSDOF 8
ENDMDL
MODEL 4
REMARK VINA RESULT:      -7.0      3.103      7.469
REMARK  8 active torsions:
REMARK  status: ('A' for Active; 'I' for Inactive)
REMARK    1  A    between atoms: C2_2  and  O1_3 
REMARK    2  A    between atoms: O1_3  and  C3_4 
REMARK    3  A    between atoms: C6_7  and  N1_8 
REMARK    4  A    between atoms: N1_8  and  C7_9 
REMARK    5  A    between atoms: C8_10  and  C9_11 
REMARK    6  A    between atoms: C10_12  and  O2_13 
REMARK    7  A    between atoms: C10_12  and  C11_14 
REMARK    8  A    between atoms: C16_21  and  O3_22 
ROOT
HETATM    1  C3  UNL     1      20.133   0.532  51.877  1.00  0.00     0.103 A 
HETATM    2  C4  UNL     1      21.467   0.606  52.200  1.00  0.00     0.055 A 
HETATM    3  C5  UNL     1      22.000  -0.100  53.241  1.00  0.00     0.022 A 
HETATM    4  C6  UNL     1      23.328  -0.022  53.581  1.00  0.00     0.042 A 
HETATM    5  C12 UNL     1      23.929  -0.714  54.639  1.00  0.00     0.049 A 
HETATM    6  C13 UNL     1      23.054  -1.509  55.345  1.00  0.00     0.119 A 
HETATM    7  N2  UNL     1      21.755  -1.588  55.023  1.00  0.00    -0.260 NA
HETATM    8  C14 UNL     1      21.199  -0.918  54.003  1.00  0.00     0.071 A 
HETATM    9  C15 UNL     1      19.858  -1.038  53.738  1.00  0.00     0.072 A 
HETATM   10  C16 UNL     1      19.374  -0.315  52.694  1.00  0.00     0.103 A 
ENDROOT
BRANCH   4  11
HETATM   11  N1  UNL     1      24.093   0.881  52.742  1.00  0.00    -0.388 N 
HETATM   12  H7  UNL     1      23.424   1.627  52.300  1.00  0.00     0.159 HD
BRANCH  11  13
HETATM   13  C7  UNL     1      25.478   1.034  52.326  1.00  0.00     0.071 C 
HETATM   14  C8  UNL     1      26.731   0.446  52.122  1.00  0.00     0.095 C 
BRANCH  14  15
HETATM   15  C9  UNL     1      26.975  -1.001  52.397  1.00  0.00     0.015 C 
HETATM   16  C10 UNL     1      27.978  -1.578  53.033  1.00  0.00     0.068 C 
BRANCH  16  17
HETATM   17  O2  UNL     1      27.768  -2.943  53.020  1.00  0.00    -0.363 OA
HETATM   18  H11 UNL     1      28.198  -3.588  53.709  1.00  0.00     0.217 HD
ENDBRANCH  16  17
BRANCH  16  19
HETATM   19  C11 UNL     1      29.110  -0.866  53.632  1.00  0.00     0.286 C 
HETATM   20  F1  UNL     1      28.709  -0.342  54.855  1.00  0.00    -0.248 F 
ENDBRANCH  16  19
ENDBRANCH  14  15
ENDBRANCH  11  13
ENDBRANCH   4  11
BRANCH   1  21
HETATM   21  O1  UNL     1      19.451   1.166  50.880  1.00  0.00    -0.349 OA
BRANCH  21  22
HETATM   22  C2  UNL     1      19.888   1.939  49.837  1.00  0.00     0.171 C 
HETATM   23  C1  UNL     1      20.931   1.286  48.935  1.00  0.00     0.034 C 
ENDBRANCH  21  22
ENDBRANCH   1  21
BRANCH  10  24
HETATM   24  O3  UNL     1      18.009  -0.457  52.439  1.00  0.00    -0.353 OA
HETATM   25  C17 UNL     1      17.203  -1.412  53.054  1.00  0.00     0.210 C 
ENDBRANCH  10  24
TORSDOF 8
ENDMDL
MODEL 5
REMARK VINA RESULT:      -7.0      2.067      3.994
REMARK  8 active torsions:
REMARK  status: ('A' for Active; 'I' for Inactive)
REMARK    1  A    between atoms: C2_2  and  O1_3 
REMARK    2  A    between atoms: O1_3  and  C3_4 
REMARK    3  A    between atoms: C6_7  and  N1_8 
REMARK    4  A    between atoms: N1_8  and  C7_9 
REMARK    5  A    between atoms: C8_10  and  C9_11 
REMARK    6  A    between atoms: C10_12  and  O2_13 
REMARK    7  A    between atoms: C10_12  and  C11_14 
REMARK    8  A    between atoms: C16_21  and  O3_22 
ROOT
HETATM    1  C3  UNL     1      26.206   0.902  52.239  1.00  0.00     0.103 A 
HETATM    2  C4  UNL     1      24.889   0.541  52.398  1.00  0.00     0.055 A 
HETATM    3  C5  UNL     1      24.457  -0.156  53.491  1.00  0.00     0.022 A 
HETATM    4  C6  UNL     1      23.147  -0.534  53.652  1.00  0.00     0.042 A 
HETATM    5  C12 UNL     1      22.647  -1.253  54.744  1.00  0.00     0.049 A 
HETATM    6  C13 UNL     1      23.605  -1.570  55.681  1.00  0.00     0.119 A 
HETATM    7  N2  UNL     1      24.887  -1.209  55.530  1.00  0.00    -0.260 NA
HETATM    8  C14 UNL     1      25.346  -0.516  54.476  1.00  0.00     0.071 A 
HETATM    9  C15 UNL     1      26.675  -0.191  54.381  1.00  0.00     0.072 A 
HETATM   10  C16 UNL     1      27.058   0.502  53.276  1.00  0.00     0.103 A 
ENDROOT
BRANCH   4  11
HETATM   11  N1  UNL     1      22.285  -0.135  52.556  1.00  0.00    -0.388 N 
HETATM   12  H7  UNL     1      22.819  -0.252  51.607  1.00  0.00     0.159 HD
BRANCH  11  13
HETATM   13  C7  UNL     1      20.939   0.391  52.395  1.00  0.00     0.071 C 
HETATM   14  C8  UNL     1      19.568   0.245  52.635  1.00  0.00     0.095 C 
BRANCH  14  15
HETATM   15  C9  UNL     1      19.020  -0.921  53.387  1.00  0.00     0.015 C 
HETATM   16  C10 UNL     1      17.839  -1.503  53.292  1.00  0.00     0.068 C 
BRANCH  16  17
HETATM   17  O2  UNL     1      17.792  -2.537  54.208  1.00  0.00    -0.363 OA
HETATM   18  H11 UNL     1      17.296  -3.429  54.028  1.00  0.00     0.217 HD
ENDBRANCH  16  17
BRANCH  16  19
HETATM   19  C11 UNL     1      16.776  -1.094  52.370  1.00  0.00     0.286 C 
HETATM   20  F1  UNL     1      15.934  -2.177  52.154  1.00  0.00    -0.248 F 
ENDBRANCH  16  19
ENDBRANCH  14  15
ENDBRANCH  11  13
ENDBRANCH   4  11
BRANCH   1  21
HETATM   21  O1  UNL     1      26.793   1.591  51.218  1.00  0.00    -0.349 OA
BRANCH  21  22
HETATM   22  C2  UNL     1      26.785   2.925  50.906  1.00  0.00     0.171 C 
HETATM   23  C1  UNL     1      26.343   3.258  49.484  1.00  0.00     0.034 C 
ENDBRANCH  21  22
ENDBRANCH   1  21
BRANCH  10  24
HETATM   24  O3  UNL     1      28.414   0.828  53.202  1.00  0.00    -0.353 OA
HETATM   25  C17 UNL     1      29.418   0.102  53.837  1.00  0.00     0.210 C 
ENDBRANCH  10  24
TORSDOF 8
ENDMDL
MODEL 6
REMARK VINA RESULT:      -6.6      3.226      6.862
REMARK  8 active torsions:
REMARK  status: ('A' for Active; 'I' for Inactive)
REMARK    1  A    between atoms: C2_2  and  O1_3 
REMARK    2  A    between atoms: O1_3  and  C3_4 
REMARK    3  A    between atoms: C6_7  and  N1_8 
REMARK    4  A    between atoms: N1_8  and  C7_9 
REMARK    5  A    between atoms: C8_10  and  C9_11 
REMARK    6  A    between atoms: C10_12  and  O2_13 
REMARK    7  A    between atoms: C10_12  and  C11_14 
REMARK    8  A    between atoms: C16_21  and  O3_22 
ROOT
HETATM    1  C3  UNL     1      21.482   1.097  52.831  1.00  0.00     0.103 A 
HETATM    2  C4  UNL     1      22.604   1.889  52.785  1.00  0.00     0.055 A 
HETATM    3  C5  UNL     1      22.570   3.165  52.298  1.00  0.00     0.022 A 
HETATM    4  C6  UNL     1      23.687   3.960  52.235  1.00  0.00     0.042 A 
HETATM    5  C12 UNL     1      23.715   5.270  51.741  1.00  0.00     0.049 A 
HETATM    6  C13 UNL     1      22.490   5.719  51.302  1.00  0.00     0.119 A 
HETATM    7  N2  UNL     1      21.395   4.949  51.356  1.00  0.00    -0.260 NA
HETATM    8  C14 UNL     1      21.389   3.696  51.836  1.00  0.00     0.071 A 
HETATM    9  C15 UNL     1      20.231   2.961  51.851  1.00  0.00     0.072 A 
HETATM   10  C16 UNL     1      20.315   1.697  52.343  1.00  0.00     0.103 A 
ENDROOT
BRANCH   4  11
HETATM   11  N1  UNL     1      24.892   3.313  52.718  1.00  0.00    -0.388 N 
HETATM   12  H7  UNL     1      25.128   3.679  53.723  1.00  0.00     0.159 HD
BRANCH  11  13
HETATM   13  C7  UNL     1      25.858   2.348  52.218  1.00  0.00     0.071 C 
HETATM   14  C8  UNL     1      27.136   1.787  52.311  1.00  0.00     0.095 C 
BRANCH  14  15
HETATM   15  C9  UNL     1      28.126   2.247  53.329  1.00  0.00     0.015 C 
HETATM   16  C10 UNL     1      29.017   1.550  54.009  1.00  0.00     0.068 C 
BRANCH  16  17
HETATM   17  O2  UNL     1      29.695   2.416  54.845  1.00  0.00    -0.363 OA
HETATM   18  H11 UNL     1      30.196   3.258  54.503  1.00  0.00     0.217 HD
ENDBRANCH  16  17
BRANCH  16  19
HETATM   19  C11 UNL     1      29.224   0.105  53.884  1.00  0.00     0.286 C 
HETATM   20  F1  UNL     1      30.488  -0.120  53.355  1.00  0.00    -0.248 F 
ENDBRANCH  16  19
ENDBRANCH  14  15
ENDBRANCH  11  13
ENDBRANCH   4  11
BRANCH   1  21
HETATM   21  O1  UNL     1      21.350  -0.184  53.282  1.00  0.00    -0.349 OA
BRANCH  21  22
HETATM   22  C2  UNL     1      21.369  -0.702  54.550  1.00  0.00     0.171 C 
HETATM   23  C1  UNL     1      22.705  -1.291  54.993  1.00  0.00     0.034 C 
ENDBRANCH  21  22
ENDBRANCH   1  21
BRANCH  10  24
HETATM   24  O3  UNL     1      19.124   0.968  52.353  1.00  0.00    -0.353 OA
HETATM   25  C17 UNL     1      18.045   1.239  51.515  1.00  0.00     0.210 C 
ENDBRANCH  10  24
TORSDOF 8
ENDMDL
MODEL 7
REMARK VINA RESULT:      -6.5      2.914      5.594
REMARK  8 active torsions:
REMARK  status: ('A' for Active; 'I' for Inactive)
REMARK    1  A    between atoms: C2_2  and  O1_3 
REMARK    2  A    between atoms: O1_3  and  C3_4 
REMARK    3  A    between atoms: C6_7  and  N1_8 
REMARK    4  A    between atoms: N1_8  and  C7_9 
REMARK    5  A    between atoms: C8_10  and  C9_11 
REMARK    6  A    between atoms: C10_12  and  O2_13 
REMARK    7  A    between atoms: C10_12  and  C11_14 
REMARK    8  A    between atoms: C16_21  and  O3_22 
ROOT
HETATM    1  C3  UNL     1      22.762   1.249  52.868  1.00  0.00     0.103 A 
HETATM    2  C4  UNL     1      24.021   1.694  52.542  1.00  0.00     0.055 A 
HETATM    3  C5  UNL     1      25.148   1.024  52.925  1.00  0.00     0.022 A 
HETATM    4  C6  UNL     1      26.410   1.467  52.616  1.00  0.00     0.042 A 
HETATM    5  C12 UNL     1      27.599   0.828  52.987  1.00  0.00     0.049 A 
HETATM    6  C13 UNL     1      27.402  -0.323  53.716  1.00  0.00     0.119 A 
HETATM    7  N2  UNL     1      26.175  -0.761  54.025  1.00  0.00    -0.260 NA
HETATM    8  C14 UNL     1      25.046  -0.135  53.658  1.00  0.00     0.071 A 
HETATM    9  C15 UNL     1      23.821  -0.636  54.021  1.00  0.00     0.072 A 
HETATM   10  C16 UNL     1      22.730   0.066  53.617  1.00  0.00     0.103 A 
ENDROOT
BRANCH   4  11
HETATM   11  N1  UNL     1      26.425   2.707  51.864  1.00  0.00    -0.388 N 
HETATM   12  H7  UNL     1      26.206   3.546  52.534  1.00  0.00     0.159 HD
BRANCH  11  13
HETATM   13  C7  UNL     1      26.623   3.114  50.482  1.00  0.00     0.071 C 
HETATM   14  C8  UNL     1      26.219   3.913  49.408  1.00  0.00     0.095 C 
BRANCH  14  15
HETATM   15  C9  UNL     1      25.071   4.861  49.520  1.00  0.00     0.015 C 
HETATM   16  C10 UNL     1      23.809   4.698  49.170  1.00  0.00     0.068 C 
BRANCH  16  17
HETATM   17  O2  UNL     1      23.127   5.865  49.458  1.00  0.00    -0.363 OA
HETATM   18  H11 UNL     1      22.641   6.029  50.359  1.00  0.00     0.217 HD
ENDBRANCH  16  17
BRANCH  16  19
HETATM   19  C11 UNL     1      23.256   3.479  48.574  1.00  0.00     0.286 C 
HETATM   20  F1  UNL     1      23.504   2.413  49.430  1.00  0.00    -0.248 F 
ENDBRANCH  16  19
ENDBRANCH  14  15
ENDBRANCH  11  13
ENDBRANCH   4  11
BRANCH   1  21
HETATM   21  O1  UNL     1      21.549   1.796  52.566  1.00  0.00    -0.349 OA
BRANCH  21  22
HETATM   22  C2  UNL     1      20.856   1.861  51.386  1.00  0.00     0.171 C 
HETATM   23  C1  UNL     1      20.967   0.627  50.497  1.00  0.00     0.034 C 
ENDBRANCH  21  22
ENDBRANCH   1  21
BRANCH  10  24
HETATM   24  O3  UNL     1      21.494  -0.464  53.993  1.00  0.00    -0.353 OA
HETATM   25  C17 UNL     1      21.320  -1.767  54.452  1.00  0.00     0.210 C 
ENDBRANCH  10  24
TORSDOF 8
ENDMDL
MODEL 8
REMARK VINA RESULT:      -6.5      2.884      6.389
REMARK  8 active torsions:
REMARK  status: ('A' for Active; 'I' for Inactive)
REMARK    1  A    between atoms: C2_2  and  O1_3 
REMARK    2  A    between atoms: O1_3  and  C3_4 
REMARK    3  A    between atoms: C6_7  and  N1_8 
REMARK    4  A    between atoms: N1_8  and  C7_9 
REMARK    5  A    between atoms: C8_10  and  C9_11 
REMARK    6  A    between atoms: C10_12  and  O2_13 
REMARK    7  A    between atoms: C10_12  and  C11_14 
REMARK    8  A    between atoms: C16_21  and  O3_22 
ROOT
HETATM    1  C3  UNL     1      21.272   0.435  52.660  1.00  0.00     0.103 A 
HETATM    2  C4  UNL     1      22.413   1.137  52.357  1.00  0.00     0.055 A 
HETATM    3  C5  UNL     1      22.601   1.722  51.137  1.00  0.00     0.022 A 
HETATM    4  C6  UNL     1      23.744   2.413  50.819  1.00  0.00     0.042 A 
HETATM    5  C12 UNL     1      23.995   3.027  49.585  1.00  0.00     0.049 A 
HETATM    6  C13 UNL     1      22.972   2.876  48.676  1.00  0.00     0.119 A 
HETATM    7  N2  UNL     1      21.854   2.200  48.976  1.00  0.00    -0.260 NA
HETATM    8  C14 UNL     1      21.632   1.621  50.166  1.00  0.00     0.071 A 
HETATM    9  C15 UNL     1      20.468   0.933  50.400  1.00  0.00     0.072 A 
HETATM   10  C16 UNL     1      20.328   0.368  51.628  1.00  0.00     0.103 A 
ENDROOT
BRANCH   4  11
HETATM   11  N1  UNL     1      24.721   2.449  51.889  1.00  0.00    -0.388 N 
HETATM   12  H7  UNL     1      24.222   2.680  52.836  1.00  0.00     0.159 HD
BRANCH  11  13
HETATM   13  C7  UNL     1      26.161   2.286  52.025  1.00  0.00     0.071 C 
HETATM   14  C8  UNL     1      27.245   1.433  52.254  1.00  0.00     0.095 C 
BRANCH  14  15
HETATM   15  C9  UNL     1      27.059  -0.029  52.494  1.00  0.00     0.015 C 
HETATM   16  C10 UNL     1      27.717  -0.838  53.303  1.00  0.00     0.068 C 
BRANCH  16  17
HETATM   17  O2  UNL     1      27.190  -2.108  53.165  1.00  0.00    -0.363 OA
HETATM   18  H11 UNL     1      27.435  -2.893  53.796  1.00  0.00     0.217 HD
ENDBRANCH  16  17
BRANCH  16  19
HETATM   19  C11 UNL     1      28.819  -0.431  54.180  1.00  0.00     0.286 C 
HETATM   20  F1  UNL     1      29.986  -1.045  53.742  1.00  0.00    -0.248 F 
ENDBRANCH  16  19
ENDBRANCH  14  15
ENDBRANCH  11  13
ENDBRANCH   4  11
BRANCH   1  21
HETATM   21  O1  UNL     1      20.934  -0.202  53.818  1.00  0.00    -0.349 OA
BRANCH  21  22
HETATM   22  C2  UNL     1      21.365  -1.385  54.358  1.00  0.00     0.171 C 
HETATM   23  C1  UNL     1      22.614  -1.287  55.229  1.00  0.00     0.034 C 
ENDBRANCH  21  22
ENDBRANCH   1  21
BRANCH  10  24
HETATM   24  O3  UNL     1      19.134  -0.323  51.846  1.00  0.00    -0.353 OA
HETATM   25  C17 UNL     1      18.013  -0.206  51.027  1.00  0.00     0.210 C 
ENDBRANCH  10  24
TORSDOF 8
ENDMDL
MODEL 9
REMARK VINA RESULT:      -6.4      2.928      4.837
REMARK  8 active torsions:
REMARK  status: ('A' for Active; 'I' for Inactive)
REMARK    1  A    between atoms: C2_2  and  O1_3 
REMARK    2  A    between atoms: O1_3  and  C3_4 
REMARK    3  A    between atoms: C6_7  and  N1_8 
REMARK    4  A    between atoms: N1_8  and  C7_9 
REMARK    5  A    between atoms: C8_10  and  C9_11 
REMARK    6  A    between atoms: C10_12  and  O2_13 
REMARK    7  A    between atoms: C10_12  and  C11_14 
REMARK    8  A    between atoms: C16_21  and  O3_22 
ROOT
HETATM    1  C3  UNL     1      25.756   0.886  52.238  1.00  0.00     0.103 A 
HETATM    2  C4  UNL     1      24.382   0.865  52.212  1.00  0.00     0.055 A 
HETATM    3  C5  UNL     1      23.651   0.163  53.127  1.00  0.00     0.022 A 
HETATM    4  C6  UNL     1      22.279   0.124  53.102  1.00  0.00     0.042 A 
HETATM    5  C12 UNL     1      21.477  -0.582  54.007  1.00  0.00     0.049 A 
HETATM    6  C13 UNL     1      22.196  -1.265  54.962  1.00  0.00     0.119 A 
HETATM    7  N2  UNL     1      23.536  -1.236  54.993  1.00  0.00    -0.260 NA
HETATM    8  C14 UNL     1      24.285  -0.551  54.117  1.00  0.00     0.071 A 
HETATM    9  C15 UNL     1      25.655  -0.576  54.201  1.00  0.00     0.072 A 
HETATM   10  C16 UNL     1      26.338   0.137  53.267  1.00  0.00     0.103 A 
ENDROOT
BRANCH   4  11
HETATM   11  N1  UNL     1      21.694   0.883  52.013  1.00  0.00    -0.388 N 
HETATM   12  H7  UNL     1      21.493   1.907  52.344  1.00  0.00     0.159 HD
BRANCH  11  13
HETATM   13  C7  UNL     1      21.290   0.635  50.637  1.00  0.00     0.071 C 
HETATM   14  C8  UNL     1      21.394   0.983  49.287  1.00  0.00     0.095 C 
BRANCH  14  15
HETATM   15  C9  UNL     1      22.275   2.096  48.826  1.00  0.00     0.015 C 
HETATM   16  C10 UNL     1      22.076   3.401  48.877  1.00  0.00     0.068 C 
BRANCH  16  17
HETATM   17  O2  UNL     1      23.172   4.025  48.313  1.00  0.00    -0.363 OA
HETATM   18  H11 UNL     1      23.336   5.048  48.377  1.00  0.00     0.217 HD
ENDBRANCH  16  17
BRANCH  16  19
HETATM   19  C11 UNL     1      20.885   4.046  49.434  1.00  0.00     0.286 C 
HETATM   20  F1  UNL     1      19.833   3.888  48.540  1.00  0.00    -0.248 F 
ENDBRANCH  16  19
ENDBRANCH  14  15
ENDBRANCH  11  13
ENDBRANCH   4  11
BRANCH   1  21
HETATM   21  O1  UNL     1      26.624   1.529  51.405  1.00  0.00    -0.349 OA
BRANCH  21  22
HETATM   22  C2  UNL     1      26.726   2.849  51.051  1.00  0.00     0.171 C 
HETATM   23  C1  UNL     1      26.435   3.153  49.584  1.00  0.00     0.034 C 
ENDBRANCH  21  22
ENDBRANCH   1  21
BRANCH  10  24
HETATM   24  O3  UNL     1      27.730   0.101  53.375  1.00  0.00    -0.353 OA
HETATM   25  C17 UNL     1      28.416   0.247  54.579  1.00  0.00     0.210 C 
ENDBRANCH  10  24
TORSDOF 8
ENDMDL
