MODEL 1
REMARK VINA RESULT:      -7.8      0.000      0.000
REMARK  7 active torsions:
REMARK  status: ('A' for Active; 'I' for Inactive)
REMARK    1  A    between atoms: C2_2  and  C3_3 
REMARK       I    between atoms: C3_3  and  N1_5 
REMARK    2  A    between atoms: C6_9  and  C7_10 
REMARK    3  A    between atoms: C7_10  and  O2_11 
REMARK    4  A    between atoms: O2_11  and  C8_12 
REMARK    5  A    between atoms: C9_14  and  N3_15 
REMARK    6  A    between atoms: N3_15  and  C10_16 
REMARK    7  A    between atoms: C15_24  and  C16_25 
ROOT
HETATM    1  C8  UNL     1      26.396   0.477  53.031  1.00  0.00     0.192 A 
HETATM    2  N2  UNL     1      25.877   1.375  52.165  1.00  0.00    -0.038 NA
HETATM    3  C9  UNL     1      26.641   2.432  51.768  1.00  0.00     0.729 A 
HETATM    4  N6  UNL     1      27.890   2.572  52.233  1.00  0.00    -0.074 NA
HETATM    5  C14 UNL     1      28.470   1.703  53.106  1.00  0.00     0.149 A 
HETATM    6  C15 UNL     1      27.697   0.616  53.521  1.00  0.00     0.027 A 
ENDROOT
BRANCH   1   7
HETATM    7  O2  UNL     1      25.774  -0.635  53.532  1.00  0.00    -0.333 OA
BRANCH   7   8
HETATM    8  C7  UNL     1      24.683  -0.540  54.426  1.00  0.00     0.186 C 
BRANCH   8   9
HETATM    9  C6  UNL     1      23.404  -0.815  53.665  1.00  0.00     0.064 C 
HETATM   10  C5  UNL     1      22.421  -1.488  54.626  1.00  0.00     0.195 C 
HETATM   11  C4  UNL     1      21.325  -0.422  54.730  1.00  0.00     0.163 C 
HETATM   12  F1  UNL     1      23.015  -1.689  55.856  1.00  0.00    -0.247 F 
HETATM   13  N1  UNL     1      21.305   0.109  53.387  1.00  0.00    -0.345 N 
HETATM   14  C3  UNL     1      20.107   0.089  52.632  1.00  0.00     0.242 C 
HETATM   15  C17 UNL     1      22.731   0.514  53.329  1.00  0.00     0.136 C 
HETATM   16  O1  UNL     1      19.201  -0.435  53.360  1.00  0.00    -0.268 OA
BRANCH  14  17
HETATM   17  C2  UNL     1      19.666   0.489  51.316  1.00  0.00     0.064 C 
HETATM   18  C1  UNL     1      20.648   0.646  50.449  1.00  0.00     0.017 C 
ENDBRANCH  14  17
ENDBRANCH   8   9
ENDBRANCH   7   8
ENDBRANCH   1   7
BRANCH   6  19
HETATM   19  C16 UNL     1      28.345  -0.321  54.476  1.00  0.00     0.159 C 
HETATM   20 CL1  UNL     1      29.874  -0.956  53.834  1.00  0.00    -0.125 Cl
ENDBRANCH   6  19
BRANCH   3  21
HETATM   21  N3  UNL     1      26.423   3.516  50.893  1.00  0.00    -0.185 N 
HETATM   22  H10 UNL     1      27.251   4.016  50.538  1.00  0.00     0.184 HD
BRANCH  21  23
HETATM   23  C10 UNL     1      25.099   3.915  50.505  1.00  0.00     0.085 A 
HETATM   24  C11 UNL     1      24.453   3.648  49.316  1.00  0.00     0.170 A 
HETATM   25  N4  UNL     1      23.257   4.253  49.413  1.00  0.00    -0.183 NA
HETATM   26  N5  UNL     1      23.122   4.877  50.585  1.00  0.00    -0.283 N 
HETATM   27  C12 UNL     1      21.966   5.641  51.028  1.00  0.00     0.179 C 
HETATM   28  C13 UNL     1      24.262   4.691  51.313  1.00  0.00     0.143 A 
ENDBRANCH  21  23
ENDBRANCH   3  21
TORSDOF 7
ENDMDL
MODEL 2
REMARK VINA RESULT:      -7.6      4.499      6.499
REMARK  7 active torsions:
REMARK  status: ('A' for Active; 'I' for Inactive)
REMARK    1  A    between atoms: C2_2  and  C3_3 
REMARK       I    between atoms: C3_3  and  N1_5 
REMARK    2  A    between atoms: C6_9  and  C7_10 
REMARK    3  A    between atoms: C7_10  and  O2_11 
REMARK    4  A    between atoms: O2_11  and  C8_12 
REMARK    5  A    between atoms: C9_14  and  N3_15 
REMARK    6  A    between atoms: N3_15  and  C10_16 
REMARK    7  A    between atoms: C15_24  and  C16_25 
ROOT
HETATM    1  C8  UNL     1      26.673   4.177  49.344  1.00  0.00     0.192 A 
HETATM    2  N2  UNL     1      27.907   4.450  48.866  1.00  0.00    -0.038 NA
HETATM    3  C9  UNL     1      28.151   5.676  48.321  1.00  0.00     0.729 A 
HETATM    4  N6  UNL     1      27.177   6.594  48.264  1.00  0.00    -0.074 NA
HETATM    5  C14 UNL     1      25.914   6.382  48.728  1.00  0.00     0.149 A 
HETATM    6  C15 UNL     1      25.651   5.129  49.287  1.00  0.00     0.027 A 
ENDROOT
BRANCH   1   7
HETATM    7  O2  UNL     1      26.255   3.007  49.918  1.00  0.00    -0.333 OA
BRANCH   7   8
HETATM    8  C7  UNL     1      26.737   2.582  51.177  1.00  0.00     0.186 C 
BRANCH   8   9
HETATM    9  C6  UNL     1      25.961   1.356  51.607  1.00  0.00     0.064 C 
HETATM   10  C5  UNL     1      26.814   0.591  52.622  1.00  0.00     0.195 C 
HETATM   11  C4  UNL     1      25.970   0.733  53.893  1.00  0.00     0.163 C 
HETATM   12  F1  UNL     1      28.037   1.212  52.785  1.00  0.00    -0.247 F 
HETATM   13  N1  UNL     1      24.628   0.661  53.362  1.00  0.00    -0.345 N 
HETATM   14  C3  UNL     1      23.731  -0.329  53.830  1.00  0.00     0.242 C 
HETATM   15  C17 UNL     1      24.744   1.799  52.417  1.00  0.00     0.136 C 
HETATM   16  O1  UNL     1      24.340  -1.016  54.714  1.00  0.00    -0.268 OA
BRANCH  14  17
HETATM   17  C2  UNL     1      22.369  -0.742  53.580  1.00  0.00     0.064 C 
HETATM   18  C1  UNL     1      21.797  -1.343  54.606  1.00  0.00     0.017 C 
ENDBRANCH  14  17
ENDBRANCH   8   9
ENDBRANCH   7   8
ENDBRANCH   1   7
BRANCH   6  19
HETATM   19  C16 UNL     1      24.267   4.913  49.786  1.00  0.00     0.159 C 
HETATM   20 CL1  UNL     1      23.275   4.036  48.603  1.00  0.00    -0.125 Cl
ENDBRANCH   6  19
BRANCH   3  21
HETATM   21  N3  UNL     1      29.294   6.280  47.756  1.00  0.00    -0.185 N 
HETATM   22  H10 UNL     1      29.144   7.017  47.052  1.00  0.00     0.184 HD
BRANCH  21  23
HETATM   23  C10 UNL     1      30.620   5.888  48.142  1.00  0.00     0.085 A 
HETATM   24  C11 UNL     1      31.375   6.382  49.185  1.00  0.00     0.170 A 
HETATM   25  N4  UNL     1      32.547   5.729  49.122  1.00  0.00    -0.183 NA
HETATM   26  N5  UNL     1      32.566   4.862  48.107  1.00  0.00    -0.283 N 
HETATM   27  C12 UNL     1      33.673   3.994  47.734  1.00  0.00     0.179 C 
HETATM   28  C13 UNL     1      31.367   4.924  47.457  1.00  0.00     0.143 A 
ENDBRANCH  21  23
ENDBRANCH   3  21
TORSDOF 7
ENDMDL
MODEL 3
REMARK VINA RESULT:      -7.5      3.474      6.200
REMARK  7 active torsions:
REMARK  status: ('A' for Active; 'I' for Inactive)
REMARK    1  A    between atoms: C2_2  and  C3_3 
REMARK       I    between atoms: C3_3  and  N1_5 
REMARK    2  A    between atoms: C6_9  and  C7_10 
REMARK    3  A    between atoms: C7_10  and  O2_11 
REMARK    4  A    between atoms: O2_11  and  C8_12 
REMARK    5  A    between atoms: C9_14  and  N3_15 
REMARK    6  A    between atoms: N3_15  and  C10_16 
REMARK    7  A    between atoms: C15_24  and  C16_25 
ROOT
HETATM    1  C8  UNL     1      22.554   3.521  52.215  1.00  0.00     0.192 A 
HETATM    2  N2  UNL     1      23.635   4.332  52.224  1.00  0.00    -0.038 NA
HETATM    3  C9  UNL     1      23.513   5.605  51.753  1.00  0.00     0.729 A 
HETATM    4  N6  UNL     1      22.334   6.042  51.291  1.00  0.00    -0.074 NA
HETATM    5  C14 UNL     1      21.209   5.277  51.255  1.00  0.00     0.149 A 
HETATM    6  C15 UNL     1      21.320   3.969  51.733  1.00  0.00     0.027 A 
ENDROOT
BRANCH   1   7
HETATM    7  O2  UNL     1      22.496   2.223  52.645  1.00  0.00    -0.333 OA
BRANCH   7   8
HETATM    8  C7  UNL     1      23.377   1.235  52.150  1.00  0.00     0.186 C 
BRANCH   8   9
HETATM    9  C6  UNL     1      24.552   1.110  53.095  1.00  0.00     0.064 C 
HETATM   10  C5  UNL     1      24.575  -0.323  53.631  1.00  0.00     0.195 C 
HETATM   11  C4  UNL     1      25.881  -0.850  53.027  1.00  0.00     0.163 C 
HETATM   12  F1  UNL     1      23.497  -1.035  53.143  1.00  0.00    -0.247 F 
HETATM   13  N1  UNL     1      26.724   0.322  53.087  1.00  0.00    -0.345 N 
HETATM   14  C3  UNL     1      27.956   0.277  53.782  1.00  0.00     0.242 C 
HETATM   15  C17 UNL     1      25.847   1.218  52.293  1.00  0.00     0.136 C 
HETATM   16  O1  UNL     1      28.090  -0.901  54.253  1.00  0.00    -0.268 OA
BRANCH  14  17
HETATM   17  C2  UNL     1      29.049   1.174  54.082  1.00  0.00     0.064 C 
HETATM   18  C1  UNL     1      28.838   2.418  53.696  1.00  0.00     0.017 C 
ENDBRANCH  14  17
ENDBRANCH   8   9
ENDBRANCH   7   8
ENDBRANCH   1   7
BRANCH   6  19
HETATM   19  C16 UNL     1      20.083   3.147  51.685  1.00  0.00     0.159 C 
HETATM   20 CL1  UNL     1      18.727   4.046  50.974  1.00  0.00    -0.125 Cl
ENDBRANCH   6  19
BRANCH   3  21
HETATM   21  N3  UNL     1      24.409   6.687  51.632  1.00  0.00    -0.185 N 
HETATM   22  H10 UNL     1      24.377   7.416  52.360  1.00  0.00     0.184 HD
BRANCH  21  23
HETATM   23  C10 UNL     1      25.334   6.779  50.537  1.00  0.00     0.085 A 
HETATM   24  C11 UNL     1      25.653   5.800  49.620  1.00  0.00     0.170 A 
HETATM   25  N4  UNL     1      26.581   6.347  48.817  1.00  0.00    -0.183 NA
HETATM   26  N5  UNL     1      26.856   7.602  49.179  1.00  0.00    -0.283 N 
HETATM   27  C12 UNL     1      27.817   8.492  48.544  1.00  0.00     0.179 C 
HETATM   28  C13 UNL     1      26.091   7.923  50.263  1.00  0.00     0.143 A 
ENDBRANCH  21  23
ENDBRANCH   3  21
TORSDOF 7
ENDMDL
MODEL 4
REMARK VINA RESULT:      -7.5      4.353      7.219
REMARK  7 active torsions:
REMARK  status: ('A' for Active; 'I' for Inactive)
REMARK    1  A    between atoms: C2_2  and  C3_3 
REMARK       I    between atoms: C3_3  and  N1_5 
REMARK    2  A    between atoms: C6_9  and  C7_10 
REMARK    3  A    between atoms: C7_10  and  O2_11 
REMARK    4  A    between atoms: O2_11  and  C8_12 
REMARK    5  A    between atoms: C9_14  and  N3_15 
REMARK    6  A    between atoms: N3_15  and  C10_16 
REMARK    7  A    between atoms: C15_24  and  C16_25 
ROOT
HETATM    1  C8  UNL     1      26.417   4.016  49.384  1.00  0.00     0.192 A 
HETATM    2  N2  UNL     1      27.661   4.361  48.985  1.00  0.00    -0.038 NA
HETATM    3  C9  UNL     1      27.866   5.596  48.445  1.00  0.00     0.729 A 
HETATM    4  N6  UNL     1      26.844   6.452  48.315  1.00  0.00    -0.074 NA
HETATM    5  C14 UNL     1      25.569   6.167  48.698  1.00  0.00     0.149 A 
HETATM    6  C15 UNL     1      25.345   4.904  49.252  1.00  0.00     0.027 A 
ENDROOT
BRANCH   1   7
HETATM    7  O2  UNL     1      26.033   2.827  49.943  1.00  0.00    -0.333 OA
BRANCH   7   8
HETATM    8  C7  UNL     1      25.597   2.740  51.284  1.00  0.00     0.186 C 
BRANCH   8   9
HETATM    9  C6  UNL     1      26.739   2.228  52.136  1.00  0.00     0.064 C 
HETATM   10  C5  UNL     1      26.328   2.363  53.604  1.00  0.00     0.195 C 
HETATM   11  C4  UNL     1      26.252   0.893  54.031  1.00  0.00     0.163 C 
HETATM   12  F1  UNL     1      25.085   2.958  53.701  1.00  0.00    -0.247 F 
HETATM   13  N1  UNL     1      27.341   0.314  53.280  1.00  0.00    -0.345 N 
HETATM   14  C3  UNL     1      28.383  -0.371  53.951  1.00  0.00     0.242 C 
HETATM   15  C17 UNL     1      26.871   0.720  51.933  1.00  0.00     0.136 C 
HETATM   16  O1  UNL     1      28.122  -0.342  55.199  1.00  0.00    -0.268 OA
BRANCH  14  17
HETATM   17  C2  UNL     1      29.605  -1.060  53.607  1.00  0.00     0.064 C 
HETATM   18  C1  UNL     1      29.424  -2.315  53.241  1.00  0.00     0.017 C 
ENDBRANCH  14  17
ENDBRANCH   8   9
ENDBRANCH   7   8
ENDBRANCH   1   7
BRANCH   6  19
HETATM   19  C16 UNL     1      23.947   4.608  49.662  1.00  0.00     0.159 C 
HETATM   20 CL1  UNL     1      23.095   3.649  48.434  1.00  0.00    -0.125 Cl
ENDBRANCH   6  19
BRANCH   3  21
HETATM   21  N3  UNL     1      29.005   6.264  47.949  1.00  0.00    -0.185 N 
HETATM   22  H10 UNL     1      28.851   7.097  47.363  1.00  0.00     0.184 HD
BRANCH  21  23
HETATM   23  C10 UNL     1      30.334   5.807  48.245  1.00  0.00     0.085 A 
HETATM   24  C11 UNL     1      31.188   6.276  49.222  1.00  0.00     0.170 A 
HETATM   25  N4  UNL     1      32.316   5.559  49.087  1.00  0.00    -0.183 NA
HETATM   26  N5  UNL     1      32.215   4.677  48.090  1.00  0.00    -0.283 N 
HETATM   27  C12 UNL     1      33.244   3.746  47.654  1.00  0.00     0.179 C 
HETATM   28  C13 UNL     1      30.977   4.794  47.527  1.00  0.00     0.143 A 
ENDBRANCH  21  23
ENDBRANCH   3  21
TORSDOF 7
ENDMDL
MODEL 5
REMARK VINA RESULT:      -7.4      3.437      6.540
REMARK  7 active torsions:
REMARK  status: ('A' for Active; 'I' for Inactive)
REMARK    1  A    between atoms: C2_2  and  C3_3 
REMARK       I    between atoms: C3_3  and  N1_5 
REMARK    2  A    between atoms: C6_9  and  C7_10 
REMARK    3  A    between atoms: C7_10  and  O2_11 
REMARK    4  A    between atoms: O2_11  and  C8_12 
REMARK    5  A    between atoms: C9_14  and  N3_15 
REMARK    6  A    between atoms: N3_15  and  C10_16 
REMARK    7  A    between atoms: C15_24  and  C16_25 
ROOT
HETATM    1  C8  UNL     1      22.756   1.414  52.101  1.00  0.00     0.192 A 
HETATM    2  N2  UNL     1      22.020   2.457  51.659  1.00  0.00    -0.038 NA
HETATM    3  C9  UNL     1      20.753   2.624  52.137  1.00  0.00     0.729 A 
HETATM    4  N6  UNL     1      20.252   1.763  53.032  1.00  0.00    -0.074 NA
HETATM    5  C14 UNL     1      20.942   0.694  53.517  1.00  0.00     0.149 A 
HETATM    6  C15 UNL     1      22.241   0.511  53.035  1.00  0.00     0.027 A 
ENDROOT
BRANCH   1   7
HETATM    7  O2  UNL     1      24.035   1.096  51.731  1.00  0.00    -0.333 OA
BRANCH   7   8
HETATM    8  C7  UNL     1      24.992   2.091  51.427  1.00  0.00     0.186 C 
BRANCH   8   9
HETATM    9  C6  UNL     1      26.318   1.697  52.039  1.00  0.00     0.064 C 
HETATM   10  C5  UNL     1      26.348   2.224  53.475  1.00  0.00     0.195 C 
HETATM   11  C4  UNL     1      26.367   0.917  54.276  1.00  0.00     0.163 C 
HETATM   12  F1  UNL     1      25.199   2.940  53.748  1.00  0.00    -0.247 F 
HETATM   13  N1  UNL     1      27.182   0.072  53.435  1.00  0.00    -0.345 N 
HETATM   14  C3  UNL     1      28.358  -0.523  53.953  1.00  0.00     0.242 C 
HETATM   15  C17 UNL     1      26.355   0.180  52.209  1.00  0.00     0.136 C 
HETATM   16  O1  UNL     1      28.466  -0.166  55.172  1.00  0.00    -0.268 OA
BRANCH  14  17
HETATM   17  C2  UNL     1      29.415  -1.388  53.483  1.00  0.00     0.064 C 
HETATM   18  C1  UNL     1      28.995  -2.570  53.073  1.00  0.00     0.017 C 
ENDBRANCH  14  17
ENDBRANCH   8   9
ENDBRANCH   7   8
ENDBRANCH   1   7
BRANCH   6  19
HETATM   19  C16 UNL     1      22.979  -0.662  53.572  1.00  0.00     0.159 C 
HETATM   20 CL1  UNL     1      21.915  -1.733  54.508  1.00  0.00    -0.125 Cl
ENDBRANCH   6  19
BRANCH   3  21
HETATM   21  N3  UNL     1      19.745   3.582  51.904  1.00  0.00    -0.185 N 
HETATM   22  H10 UNL     1      19.881   4.523  52.301  1.00  0.00     0.184 HD
BRANCH  21  23
HETATM   23  C10 UNL     1      18.567   3.266  51.145  1.00  0.00     0.085 A 
HETATM   24  C11 UNL     1      18.497   2.613  49.932  1.00  0.00     0.170 A 
HETATM   25  N4  UNL     1      17.192   2.583  49.615  1.00  0.00    -0.183 NA
HETATM   26  N5  UNL     1      16.451   3.175  50.554  1.00  0.00    -0.283 N 
HETATM   27  C12 UNL     1      15.004   3.336  50.536  1.00  0.00     0.179 C 
HETATM   28  C13 UNL     1      17.275   3.623  51.545  1.00  0.00     0.143 A 
ENDBRANCH  21  23
ENDBRANCH   3  21
TORSDOF 7
ENDMDL
MODEL 6
REMARK VINA RESULT:      -7.3      3.435      5.762
REMARK  7 active torsions:
REMARK  status: ('A' for Active; 'I' for Inactive)
REMARK    1  A    between atoms: C2_2  and  C3_3 
REMARK       I    between atoms: C3_3  and  N1_5 
REMARK    2  A    between atoms: C6_9  and  C7_10 
REMARK    3  A    between atoms: C7_10  and  O2_11 
REMARK    4  A    between atoms: O2_11  and  C8_12 
REMARK    5  A    between atoms: C9_14  and  N3_15 
REMARK    6  A    between atoms: N3_15  and  C10_16 
REMARK    7  A    between atoms: C15_24  and  C16_25 
ROOT
HETATM    1  C8  UNL     1      24.657   3.929  51.327  1.00  0.00     0.192 A 
HETATM    2  N2  UNL     1      23.627   4.686  51.766  1.00  0.00    -0.038 NA
HETATM    3  C9  UNL     1      23.372   5.877  51.154  1.00  0.00     0.729 A 
HETATM    4  N6  UNL     1      24.135   6.286  50.131  1.00  0.00    -0.074 NA
HETATM    5  C14 UNL     1      25.185   5.571  49.642  1.00  0.00     0.149 A 
HETATM    6  C15 UNL     1      25.457   4.348  50.261  1.00  0.00     0.027 A 
ENDROOT
BRANCH   1   7
HETATM    7  O2  UNL     1      25.053   2.715  51.821  1.00  0.00    -0.333 OA
BRANCH   7   8
HETATM    8  C7  UNL     1      24.651   2.264  53.099  1.00  0.00     0.186 C 
BRANCH   8   9
HETATM    9  C6  UNL     1      25.687   1.293  53.622  1.00  0.00     0.064 C 
HETATM   10  C5  UNL     1      25.005  -0.063  53.819  1.00  0.00     0.195 C 
HETATM   11  C4  UNL     1      25.725  -0.918  52.771  1.00  0.00     0.163 C 
HETATM   12  F1  UNL     1      23.659   0.030  53.522  1.00  0.00    -0.247 F 
HETATM   13  N1  UNL     1      27.066  -0.383  52.829  1.00  0.00    -0.345 N 
HETATM   14  C3  UNL     1      28.159  -1.235  53.118  1.00  0.00     0.242 C 
HETATM   15  C17 UNL     1      26.715   1.025  52.524  1.00  0.00     0.136 C 
HETATM   16  O1  UNL     1      27.699  -2.414  53.276  1.00  0.00    -0.268 OA
BRANCH  14  17
HETATM   17  C2  UNL     1      29.591  -1.122  53.273  1.00  0.00     0.064 C 
HETATM   18  C1  UNL     1      29.991   0.067  53.681  1.00  0.00     0.017 C 
ENDBRANCH  14  17
ENDBRANCH   8   9
ENDBRANCH   7   8
ENDBRANCH   1   7
BRANCH   6  19
HETATM   19  C16 UNL     1      26.609   3.582  49.717  1.00  0.00     0.159 C 
HETATM   20 CL1  UNL     1      27.633   4.590  48.675  1.00  0.00    -0.125 Cl
ENDBRANCH   6  19
BRANCH   3  21
HETATM   21  N3  UNL     1      22.399   6.880  51.345  1.00  0.00    -0.185 N 
HETATM   22  H10 UNL     1      22.537   7.535  52.128  1.00  0.00     0.184 HD
BRANCH  21  23
HETATM   23  C10 UNL     1      21.254   6.991  50.485  1.00  0.00     0.085 A 
HETATM   24  C11 UNL     1      20.684   8.144  49.987  1.00  0.00     0.170 A 
HETATM   25  N4  UNL     1      19.626   7.739  49.264  1.00  0.00    -0.183 NA
HETATM   26  N5  UNL     1      19.506   6.410  49.284  1.00  0.00    -0.283 N 
HETATM   27  C12 UNL     1      18.472   5.628  48.622  1.00  0.00     0.179 C 
HETATM   28  C13 UNL     1      20.514   5.890  50.043  1.00  0.00     0.143 A 
ENDBRANCH  21  23
ENDBRANCH   3  21
TORSDOF 7
ENDMDL
MODEL 7
REMARK VINA RESULT:      -7.2      2.965      6.038
REMARK  7 active torsions:
REMARK  status: ('A' for Active; 'I' for Inactive)
REMARK    1  A    between atoms: C2_2  and  C3_3 
REMARK       I    between atoms: C3_3  and  N1_5 
REMARK    2  A    between atoms: C6_9  and  C7_10 
REMARK    3  A    between atoms: C7_10  and  O2_11 
REMARK    4  A    between atoms: O2_11  and  C8_12 
REMARK    5  A    between atoms: C9_14  and  N3_15 
REMARK    6  A    between atoms: N3_15  and  C10_16 
REMARK    7  A    between atoms: C15_24  and  C16_25 
ROOT
HETATM    1  C8  UNL     1      24.386   3.262  51.570  1.00  0.00     0.192 A 
HETATM    2  N2  UNL     1      23.145   3.535  52.031  1.00  0.00    -0.038 NA
HETATM    3  C9  UNL     1      22.222   4.063  51.177  1.00  0.00     0.729 A 
HETATM    4  N6  UNL     1      22.547   4.304  49.899  1.00  0.00    -0.074 NA
HETATM    5  C14 UNL     1      23.777   4.051  49.374  1.00  0.00     0.149 A 
HETATM    6  C15 UNL     1      24.732   3.511  50.239  1.00  0.00     0.027 A 
ENDROOT
BRANCH   1   7
HETATM    7  O2  UNL     1      25.429   2.735  52.283  1.00  0.00    -0.333 OA
BRANCH   7   8
HETATM    8  C7  UNL     1      25.338   2.500  53.673  1.00  0.00     0.186 C 
BRANCH   8   9
HETATM    9  C6  UNL     1      26.157   1.275  54.016  1.00  0.00     0.064 C 
HETATM   10  C5  UNL     1      25.232   0.058  53.956  1.00  0.00     0.195 C 
HETATM   11  C4  UNL     1      25.827  -0.715  52.774  1.00  0.00     0.163 C 
HETATM   12  F1  UNL     1      23.939   0.452  53.672  1.00  0.00    -0.247 F 
HETATM   13  N1  UNL     1      27.239  -0.459  52.939  1.00  0.00    -0.345 N 
HETATM   14  C3  UNL     1      28.146  -1.538  53.075  1.00  0.00     0.242 C 
HETATM   15  C17 UNL     1      27.163   1.021  52.895  1.00  0.00     0.136 C 
HETATM   16  O1  UNL     1      27.472  -2.618  53.010  1.00  0.00    -0.268 OA
BRANCH  14  17
HETATM   17  C2  UNL     1      29.567  -1.724  53.257  1.00  0.00     0.064 C 
HETATM   18  C1  UNL     1      30.191  -0.654  53.713  1.00  0.00     0.017 C 
ENDBRANCH  14  17
ENDBRANCH   8   9
ENDBRANCH   7   8
ENDBRANCH   1   7
BRANCH   6  19
HETATM   19  C16 UNL     1      26.071   3.244  49.651  1.00  0.00     0.159 C 
HETATM   20 CL1  UNL     1      26.778   4.710  48.941  1.00  0.00    -0.125 Cl
ENDBRANCH   6  19
BRANCH   3  21
HETATM   21  N3  UNL     1      20.872   4.445  51.319  1.00  0.00    -0.185 N 
HETATM   22  H10 UNL     1      20.664   5.454  51.350  1.00  0.00     0.184 HD
BRANCH  21  23
HETATM   23  C10 UNL     1      19.821   3.472  51.419  1.00  0.00     0.085 A 
HETATM   24  C11 UNL     1      18.462   3.688  51.325  1.00  0.00     0.170 A 
HETATM   25  N4  UNL     1      17.893   2.486  51.513  1.00  0.00    -0.183 NA
HETATM   26  N5  UNL     1      18.812   1.540  51.717  1.00  0.00    -0.283 N 
HETATM   27  C12 UNL     1      18.558   0.129  51.966  1.00  0.00     0.179 C 
HETATM   28  C13 UNL     1      20.050   2.115  51.666  1.00  0.00     0.143 A 
ENDBRANCH  21  23
ENDBRANCH   3  21
TORSDOF 7
ENDMDL
MODEL 8
REMARK VINA RESULT:      -7.2      4.015      7.485
REMARK  7 active torsions:
REMARK  status: ('A' for Active; 'I' for Inactive)
REMARK    1  A    between atoms: C2_2  and  C3_3 
REMARK       I    between atoms: C3_3  and  N1_5 
REMARK    2  A    between atoms: C6_9  and  C7_10 
REMARK    3  A    between atoms: C7_10  and  O2_11 
REMARK    4  A    between atoms: O2_11  and  C8_12 
REMARK    5  A    between atoms: C9_14  and  N3_15 
REMARK    6  A    between atoms: N3_15  and  C10_16 
REMARK    7  A    between atoms: C15_24  and  C16_25 
ROOT
HETATM    1  C8  UNL     1      22.866   1.564  51.998  1.00  0.00     0.192 A 
HETATM    2  N2  UNL     1      24.029   0.900  52.180  1.00  0.00    -0.038 NA
HETATM    3  C9  UNL     1      24.092  -0.080  53.126  1.00  0.00     0.729 A 
HETATM    4  N6  UNL     1      23.012  -0.377  53.861  1.00  0.00    -0.074 NA
HETATM    5  C14 UNL     1      21.812   0.253  53.726  1.00  0.00     0.149 A 
HETATM    6  C15 UNL     1      21.735   1.260  52.761  1.00  0.00     0.027 A 
ENDROOT
BRANCH   1   7
HETATM    7  O2  UNL     1      22.626   2.569  51.100  1.00  0.00    -0.333 OA
BRANCH   7   8
HETATM    8  C7  UNL     1      22.471   2.314  49.719  1.00  0.00     0.186 C 
BRANCH   8   9
HETATM    9  C6  UNL     1      23.469   3.154  48.953  1.00  0.00     0.064 C 
HETATM   10  C5  UNL     1      22.692   4.227  48.187  1.00  0.00     0.195 C 
HETATM   11  C4  UNL     1      23.180   5.504  48.879  1.00  0.00     0.163 C 
HETATM   12  F1  UNL     1      21.334   4.064  48.379  1.00  0.00    -0.247 F 
HETATM   13  N1  UNL     1      24.562   5.180  49.149  1.00  0.00    -0.345 N 
HETATM   14  C3  UNL     1      25.597   6.007  48.648  1.00  0.00     0.242 C 
HETATM   15  C17 UNL     1      24.310   3.955  49.945  1.00  0.00     0.136 C 
HETATM   16  O1  UNL     1      25.050   6.963  48.007  1.00  0.00    -0.268 OA
BRANCH  14  17
HETATM   17  C2  UNL     1      27.041   6.046  48.674  1.00  0.00     0.064 C 
HETATM   18  C1  UNL     1      27.608   4.855  48.641  1.00  0.00     0.017 C 
ENDBRANCH  14  17
ENDBRANCH   8   9
ENDBRANCH   7   8
ENDBRANCH   1   7
BRANCH   6  19
HETATM   19  C16 UNL     1      20.420   1.940  52.628  1.00  0.00     0.159 C 
HETATM   20 CL1  UNL     1      19.152   0.815  52.099  1.00  0.00    -0.125 Cl
ENDBRANCH   6  19
BRANCH   3  21
HETATM   21  N3  UNL     1      25.113  -0.952  53.556  1.00  0.00    -0.185 N 
HETATM   22  H10 UNL     1      24.896  -1.959  53.591  1.00  0.00     0.184 HD
BRANCH  21  23
HETATM   23  C10 UNL     1      26.409  -0.464  53.935  1.00  0.00     0.085 A 
HETATM   24  C11 UNL     1      26.717   0.393  54.971  1.00  0.00     0.170 A 
HETATM   25  N4  UNL     1      28.047   0.575  54.903  1.00  0.00    -0.183 NA
HETATM   26  N5  UNL     1      28.580  -0.113  53.893  1.00  0.00    -0.283 N 
HETATM   27  C12 UNL     1      29.986  -0.143  53.516  1.00  0.00     0.179 C 
HETATM   28  C13 UNL     1      27.584  -0.790  53.249  1.00  0.00     0.143 A 
ENDBRANCH  21  23
ENDBRANCH   3  21
TORSDOF 7
ENDMDL
MODEL 9
REMARK VINA RESULT:      -7.2      3.421      7.034
REMARK  7 active torsions:
REMARK  status: ('A' for Active; 'I' for Inactive)
REMARK    1  A    between atoms: C2_2  and  C3_3 
REMARK       I    between atoms: C3_3  and  N1_5 
REMARK    2  A    between atoms: C6_9  and  C7_10 
REMARK    3  A    between atoms: C7_10  and  O2_11 
REMARK    4  A    between atoms: O2_11  and  C8_12 
REMARK    5  A    between atoms: C9_14  and  N3_15 
REMARK    6  A    between atoms: N3_15  and  C10_16 
REMARK    7  A    between atoms: C15_24  and  C16_25 
ROOT
HETATM    1  C8  UNL     1      21.382   0.513  53.202  1.00  0.00     0.192 A 
HETATM    2  N2  UNL     1      22.659   0.429  53.639  1.00  0.00    -0.038 NA
HETATM    3  C9  UNL     1      23.036  -0.651  54.379  1.00  0.00     0.729 A 
HETATM    4  N6  UNL     1      22.150  -1.614  54.667  1.00  0.00    -0.074 NA
HETATM    5  C14 UNL     1      20.852  -1.589  54.258  1.00  0.00     0.149 A 
HETATM    6  C15 UNL     1      20.452  -0.487  53.498  1.00  0.00     0.027 A 
ENDROOT
BRANCH   1   7
HETATM    7  O2  UNL     1      20.835   1.520  52.454  1.00  0.00    -0.333 OA
BRANCH   7   8
HETATM    8  C7  UNL     1      21.430   1.962  51.250  1.00  0.00     0.186 C 
BRANCH   8   9
HETATM    9  C6  UNL     1      22.286   3.174  51.546  1.00  0.00     0.064 C 
HETATM   10  C5  UNL     1      23.745   2.796  51.282  1.00  0.00     0.195 C 
HETATM   11  C4  UNL     1      24.080   3.698  50.090  1.00  0.00     0.163 C 
HETATM   12  F1  UNL     1      23.837   1.466  50.921  1.00  0.00    -0.247 F 
HETATM   13  N1  UNL     1      23.331   4.892  50.408  1.00  0.00    -0.345 N 
HETATM   14  C3  UNL     1      23.994   6.138  50.520  1.00  0.00     0.242 C 
HETATM   15  C17 UNL     1      21.997   4.251  50.502  1.00  0.00     0.136 C 
HETATM   16  O1  UNL     1      25.232   5.939  50.288  1.00  0.00    -0.268 OA
BRANCH  14  17
HETATM   17  C2  UNL     1      23.649   7.510  50.813  1.00  0.00     0.064 C 
HETATM   18  C1  UNL     1      22.623   7.962  50.118  1.00  0.00     0.017 C 
ENDBRANCH  14  17
ENDBRANCH   8   9
ENDBRANCH   7   8
ENDBRANCH   1   7
BRANCH   6  19
HETATM   19  C16 UNL     1      19.031  -0.474  53.062  1.00  0.00     0.159 C 
HETATM   20 CL1  UNL     1      18.190  -1.967  53.525  1.00  0.00    -0.125 Cl
ENDBRANCH   6  19
BRANCH   3  21
HETATM   21  N3  UNL     1      24.255  -1.050  54.967  1.00  0.00    -0.185 N 
HETATM   22  H10 UNL     1      24.207  -1.608  55.832  1.00  0.00     0.184 HD
BRANCH  21  23
HETATM   23  C10 UNL     1      25.521  -0.694  54.389  1.00  0.00     0.085 A 
HETATM   24  C11 UNL     1      26.004  -1.037  53.144  1.00  0.00     0.170 A 
HETATM   25  N4  UNL     1      27.233  -0.500  53.075  1.00  0.00    -0.183 NA
HETATM   26  N5  UNL     1      27.542   0.153  54.197  1.00  0.00    -0.283 N 
HETATM   27  C12 UNL     1      28.791   0.845  54.478  1.00  0.00     0.179 C 
HETATM   28  C13 UNL     1      26.489   0.060  55.061  1.00  0.00     0.143 A 
ENDBRANCH  21  23
ENDBRANCH   3  21
TORSDOF 7
ENDMDL
