MODEL 1
REMARK VINA RESULT:      -8.2      0.000      0.000
REMARK  5 active torsions:
REMARK  status: ('A' for Active; 'I' for Inactive)
REMARK    1  A    between atoms: C2_2  and  N1_3 
REMARK    2  A    between atoms: N2_6  and  C5_7 
REMARK    3  A    between atoms: C5_7  and  C6_8 
REMARK    4  A    between atoms: C6_8  and  C7_9 
REMARK    5  A    between atoms: C7_9  and  C8_10 
ROOT
HETATM    1  C8  UNL     1      22.299   0.936  51.370  1.00  0.00     0.073 A 
HETATM    2  C9  UNL     1      20.950   0.912  50.862  1.00  0.00     0.049 A 
HETATM    3  C10 UNL     1      20.073   1.211  49.910  1.00  0.00     0.055 C 
HETATM    4  C11 UNL     1      20.529   1.909  48.707  1.00  0.00     0.072 C 
HETATM    5  N3  UNL     1      18.668   0.973  49.854  1.00  0.00    -0.248 NA
HETATM    6  C12 UNL     1      18.040   0.515  50.869  1.00  0.00     0.103 C 
HETATM    7  C13 UNL     1      18.733  -0.115  51.795  1.00  0.00     0.131 C 
HETATM    8  N4  UNL     1      20.151   0.190  51.847  1.00  0.00    -0.320 N 
HETATM    9  C14 UNL     1      20.893  -0.322  52.948  1.00  0.00     0.046 A 
HETATM   10  C15 UNL     1      20.767  -1.050  54.104  1.00  0.00     0.032 A 
HETATM   11  C16 UNL     1      21.828  -1.367  54.919  1.00  0.00     0.026 A 
HETATM   12  C17 UNL     1      23.083  -0.932  54.558  1.00  0.00     0.034 A 
HETATM   13 CL1  UNL     1      24.441  -1.331  55.591  1.00  0.00    -0.084 Cl
HETATM   14  C18 UNL     1      23.274  -0.197  53.411  1.00  0.00     0.034 A 
HETATM   15  C19 UNL     1      22.164   0.092  52.629  1.00  0.00    -0.019 A 
ENDROOT
BRANCH   1  16
HETATM   16  C7  UNL     1      23.015   2.161  51.687  1.00  0.00     0.017 C 
BRANCH  16  17
HETATM   17  C6  UNL     1      24.069   2.608  50.728  1.00  0.00     0.031 C 
BRANCH  17  18
HETATM   18  C5  UNL     1      25.333   2.955  51.462  1.00  0.00     0.272 C 
BRANCH  18  19
HETATM   19  N2  UNL     1      25.725   1.928  52.344  1.00  0.00     0.091 N 
HETATM   20  C4  UNL     1      26.483   0.936  51.581  1.00  0.00     0.302 C 
HETATM   21  C3  UNL     1      27.259   0.032  52.523  1.00  0.00     0.302 C 
HETATM   22  N1  UNL     1      28.291   0.775  53.214  1.00  0.00     0.091 N 
HETATM   23  C21 UNL     1      27.856   2.093  53.593  1.00  0.00     0.302 C 
HETATM   24  C20 UNL     1      26.346   2.269  53.560  1.00  0.00     0.302 C 
BRANCH  22  25
HETATM   25  C2  UNL     1      28.892  -0.000  54.242  1.00  0.00     0.268 C 
HETATM   26  C1  UNL     1      29.853  -1.051  53.811  1.00  0.00     0.037 C 
ENDBRANCH  22  25
ENDBRANCH  18  19
ENDBRANCH  17  18
ENDBRANCH  16  17
ENDBRANCH   1  16
TORSDOF 5
ENDMDL
MODEL 2
REMARK VINA RESULT:      -8.0      2.906      4.826
REMARK  5 active torsions:
REMARK  status: ('A' for Active; 'I' for Inactive)
REMARK    1  A    between atoms: C2_2  and  N1_3 
REMARK    2  A    between atoms: N2_6  and  C5_7 
REMARK    3  A    between atoms: C5_7  and  C6_8 
REMARK    4  A    between atoms: C6_8  and  C7_9 
REMARK    5  A    between atoms: C7_9  and  C8_10 
ROOT
HETATM    1  C8  UNL     1      23.577   1.728  52.456  1.00  0.00     0.073 A 
HETATM    2  C9  UNL     1      22.631   0.726  52.879  1.00  0.00     0.049 A 
HETATM    3  C10 UNL     1      21.420   0.183  52.809  1.00  0.00     0.055 C 
HETATM    4  C11 UNL     1      20.428   0.758  51.901  1.00  0.00     0.072 C 
HETATM    5  N3  UNL     1      20.873  -0.924  53.521  1.00  0.00    -0.248 NA
HETATM    6  C12 UNL     1      21.520  -1.473  54.478  1.00  0.00     0.103 C 
HETATM    7  C13 UNL     1      22.825  -1.297  54.525  1.00  0.00     0.131 C 
HETATM    8  N4  UNL     1      23.336  -0.133  53.824  1.00  0.00    -0.320 N 
HETATM    9  C14 UNL     1      24.708   0.195  54.010  1.00  0.00     0.046 A 
HETATM   10  C15 UNL     1      25.842  -0.195  54.678  1.00  0.00     0.032 A 
HETATM   11  C16 UNL     1      27.058   0.429  54.534  1.00  0.00     0.026 A 
HETATM   12  C17 UNL     1      27.145   1.500  53.674  1.00  0.00     0.034 A 
HETATM   13 CL1  UNL     1      28.692   2.302  53.482  1.00  0.00    -0.084 Cl
HETATM   14  C18 UNL     1      26.044   1.940  52.976  1.00  0.00     0.034 A 
HETATM   15  C19 UNL     1      24.843   1.269  53.165  1.00  0.00    -0.019 A 
ENDROOT
BRANCH   1  16
HETATM   16  C7  UNL     1      23.391   3.153  52.680  1.00  0.00     0.017 C 
BRANCH  16  17
HETATM   17  C6  UNL     1      22.771   3.946  51.577  1.00  0.00     0.031 C 
BRANCH  17  18
HETATM   18  C5  UNL     1      23.540   3.759  50.300  1.00  0.00     0.272 C 
BRANCH  18  19
HETATM   19  N2  UNL     1      24.838   4.300  50.388  1.00  0.00     0.091 N 
HETATM   20  C4  UNL     1      25.718   3.519  49.518  1.00  0.00     0.302 C 
HETATM   21  C3  UNL     1      27.008   4.277  49.260  1.00  0.00     0.302 C 
HETATM   22  N1  UNL     1      26.756   5.473  48.484  1.00  0.00     0.091 N 
HETATM   23  C21 UNL     1      25.537   6.131  48.875  1.00  0.00     0.302 C 
HETATM   24  C20 UNL     1      25.014   5.688  50.232  1.00  0.00     0.302 C 
BRANCH  22  25
HETATM   25  C2  UNL     1      27.909   6.297  48.405  1.00  0.00     0.268 C 
HETATM   26  C1  UNL     1      29.213   5.604  48.213  1.00  0.00     0.037 C 
ENDBRANCH  22  25
ENDBRANCH  18  19
ENDBRANCH  17  18
ENDBRANCH  16  17
ENDBRANCH   1  16
TORSDOF 5
ENDMDL
MODEL 3
REMARK VINA RESULT:      -7.9      2.866      5.550
REMARK  5 active torsions:
REMARK  status: ('A' for Active; 'I' for Inactive)
REMARK    1  A    between atoms: C2_2  and  N1_3 
REMARK    2  A    between atoms: N2_6  and  C5_7 
REMARK    3  A    between atoms: C5_7  and  C6_8 
REMARK    4  A    between atoms: C6_8  and  C7_9 
REMARK    5  A    between atoms: C7_9  and  C8_10 
ROOT
HETATM    1  C8  UNL     1      23.104   1.379  52.012  1.00  0.00     0.073 A 
HETATM    2  C9  UNL     1      24.439   1.097  52.477  1.00  0.00     0.049 A 
HETATM    3  C10 UNL     1      25.735   1.389  52.503  1.00  0.00     0.055 C 
HETATM    4  C11 UNL     1      26.227   2.536  51.739  1.00  0.00     0.072 C 
HETATM    5  N3  UNL     1      26.807   0.731  53.173  1.00  0.00    -0.248 NA
HETATM    6  C12 UNL     1      26.620  -0.385  53.770  1.00  0.00     0.103 C 
HETATM    7  C13 UNL     1      25.390  -0.704  54.117  1.00  0.00     0.131 C 
HETATM    8  N4  UNL     1      24.329  -0.045  53.379  1.00  0.00    -0.320 N 
HETATM    9  C14 UNL     1      22.998  -0.502  53.593  1.00  0.00     0.046 A 
HETATM   10  C15 UNL     1      22.262  -1.432  54.284  1.00  0.00     0.032 A 
HETATM   11  C16 UNL     1      20.891  -1.511  54.221  1.00  0.00     0.026 A 
HETATM   12  C17 UNL     1      20.220  -0.610  53.426  1.00  0.00     0.034 A 
HETATM   13 CL1  UNL     1      18.472  -0.701  53.342  1.00  0.00    -0.084 Cl
HETATM   14  C18 UNL     1      20.902   0.346  52.709  1.00  0.00     0.034 A 
HETATM   15  C19 UNL     1      22.286   0.375  52.811  1.00  0.00    -0.019 A 
ENDROOT
BRANCH   1  16
HETATM   16  C7  UNL     1      22.711   1.314  50.613  1.00  0.00     0.017 C 
BRANCH  16  17
HETATM   17  C6  UNL     1      22.682   2.596  49.849  1.00  0.00     0.031 C 
BRANCH  17  18
HETATM   18  C5  UNL     1      22.640   3.767  50.789  1.00  0.00     0.272 C 
BRANCH  18  19
HETATM   19  N2  UNL     1      23.150   4.936  50.192  1.00  0.00     0.091 N 
HETATM   20  C4  UNL     1      23.793   5.738  51.233  1.00  0.00     0.302 C 
HETATM   21  C3  UNL     1      24.692   6.789  50.606  1.00  0.00     0.302 C 
HETATM   22  N1  UNL     1      25.811   6.170  49.929  1.00  0.00     0.091 N 
HETATM   23  C21 UNL     1      25.435   4.964  49.240  1.00  0.00     0.302 C 
HETATM   24  C20 UNL     1      23.936   4.825  49.029  1.00  0.00     0.302 C 
BRANCH  22  25
HETATM   25  C2  UNL     1      26.549   7.115  49.168  1.00  0.00     0.268 C 
HETATM   26  C1  UNL     1      27.571   6.569  48.234  1.00  0.00     0.037 C 
ENDBRANCH  22  25
ENDBRANCH  18  19
ENDBRANCH  17  18
ENDBRANCH  16  17
ENDBRANCH   1  16
TORSDOF 5
ENDMDL
MODEL 4
REMARK VINA RESULT:      -7.6      2.876      5.151
REMARK  5 active torsions:
REMARK  status: ('A' for Active; 'I' for Inactive)
REMARK    1  A    between atoms: C2_2  and  N1_3 
REMARK    2  A    between atoms: N2_6  and  C5_7 
REMARK    3  A    between atoms: C5_7  and  C6_8 
REMARK    4  A    between atoms: C6_8  and  C7_9 
REMARK    5  A    between atoms: C7_9  and  C8_10 
ROOT
HETATM    1  C8  UNL     1      24.116   0.945  51.893  1.00  0.00     0.073 A 
HETATM    2  C9  UNL     1      22.960   0.329  52.495  1.00  0.00     0.049 A 
HETATM    3  C10 UNL     1      21.675  -0.005  52.444  1.00  0.00     0.055 C 
HETATM    4  C11 UNL     1      20.889   0.346  51.261  1.00  0.00     0.072 C 
HETATM    5  N3  UNL     1      20.865  -0.673  53.409  1.00  0.00    -0.248 NA
HETATM    6  C12 UNL     1      21.315  -0.928  54.579  1.00  0.00     0.103 C 
HETATM    7  C13 UNL     1      22.620  -0.954  54.749  1.00  0.00     0.131 C 
HETATM    8  N4  UNL     1      23.405  -0.224  53.771  1.00  0.00    -0.320 N 
HETATM    9  C14 UNL     1      24.796  -0.070  54.027  1.00  0.00     0.046 A 
HETATM   10  C15 UNL     1      25.775  -0.361  54.944  1.00  0.00     0.032 A 
HETATM   11  C16 UNL     1      27.098  -0.032  54.769  1.00  0.00     0.026 A 
HETATM   12  C17 UNL     1      27.462   0.622  53.614  1.00  0.00     0.034 A 
HETATM   13 CL1  UNL     1      29.147   1.044  53.381  1.00  0.00    -0.084 Cl
HETATM   14  C18 UNL     1      26.527   0.942  52.657  1.00  0.00     0.034 A 
HETATM   15  C19 UNL     1      25.207   0.585  52.891  1.00  0.00    -0.019 A 
ENDROOT
BRANCH   1  16
HETATM   16  C7  UNL     1      24.198   2.363  51.581  1.00  0.00     0.017 C 
BRANCH  16  17
HETATM   17  C6  UNL     1      23.317   3.288  52.353  1.00  0.00     0.031 C 
BRANCH  17  18
HETATM   18  C5  UNL     1      22.264   3.878  51.459  1.00  0.00     0.272 C 
BRANCH  18  19
HETATM   19  N2  UNL     1      22.715   5.052  50.823  1.00  0.00     0.091 N 
HETATM   20  C4  UNL     1      23.779   5.633  51.642  1.00  0.00     0.302 C 
HETATM   21  C3  UNL     1      24.566   6.651  50.834  1.00  0.00     0.302 C 
HETATM   22  N1  UNL     1      25.291   6.005  49.760  1.00  0.00     0.091 N 
HETATM   23  C21 UNL     1      24.532   4.950  49.144  1.00  0.00     0.302 C 
HETATM   24  C20 UNL     1      23.045   5.007  49.455  1.00  0.00     0.302 C 
BRANCH  22  25
HETATM   25  C2  UNL     1      25.867   6.955  48.875  1.00  0.00     0.268 C 
HETATM   26  C1  UNL     1      27.224   6.641  48.350  1.00  0.00     0.037 C 
ENDBRANCH  22  25
ENDBRANCH  18  19
ENDBRANCH  17  18
ENDBRANCH  16  17
ENDBRANCH   1  16
TORSDOF 5
ENDMDL
MODEL 5
REMARK VINA RESULT:      -7.6      2.677      6.678
REMARK  5 active torsions:
REMARK  status: ('A' for Active; 'I' for Inactive)
REMARK    1  A    between atoms: C2_2  and  N1_3 
REMARK    2  A    between atoms: N2_6  and  C5_7 
REMARK    3  A    between atoms: C5_7  and  C6_8 
REMARK    4  A    between atoms: C6_8  and  C7_9 
REMARK    5  A    between atoms: C7_9  and  C8_10 
ROOT
HETATM    1  C8  UNL     1      22.733   0.844  52.282  1.00  0.00     0.073 A 
HETATM    2  C9  UNL     1      22.759  -0.069  53.397  1.00  0.00     0.049 A 
HETATM    3  C10 UNL     1      22.134  -0.920  54.204  1.00  0.00     0.055 C 
HETATM    4  C11 UNL     1      20.709  -1.183  54.004  1.00  0.00     0.072 C 
HETATM    5  N3  UNL     1      22.633  -1.659  55.316  1.00  0.00    -0.248 NA
HETATM    6  C12 UNL     1      23.816  -1.457  55.760  1.00  0.00     0.103 C 
HETATM    7  C13 UNL     1      24.692  -0.892  54.956  1.00  0.00     0.131 C 
HETATM    8  N4  UNL     1      24.141  -0.111  53.863  1.00  0.00    -0.320 N 
HETATM    9  C14 UNL     1      25.048   0.668  53.090  1.00  0.00     0.046 A 
HETATM   10  C15 UNL     1      26.372   1.012  52.982  1.00  0.00     0.032 A 
HETATM   11  C16 UNL     1      26.864   1.829  51.992  1.00  0.00     0.026 A 
HETATM   12  C17 UNL     1      25.984   2.328  51.059  1.00  0.00     0.034 A 
HETATM   13 CL1  UNL     1      26.601   3.370  49.792  1.00  0.00    -0.084 Cl
HETATM   14  C18 UNL     1      24.644   2.020  51.114  1.00  0.00     0.034 A 
HETATM   15  C19 UNL     1      24.207   1.191  52.138  1.00  0.00    -0.019 A 
ENDROOT
BRANCH   1  16
HETATM   16  C7  UNL     1      21.947   2.068  52.265  1.00  0.00     0.017 C 
BRANCH  16  17
HETATM   17  C6  UNL     1      20.791   2.128  51.323  1.00  0.00     0.031 C 
BRANCH  17  18
HETATM   18  C5  UNL     1      20.880   1.021  50.311  1.00  0.00     0.272 C 
BRANCH  18  19
HETATM   19  N2  UNL     1      20.860   1.516  48.992  1.00  0.00     0.091 N 
HETATM   20  C4  UNL     1      20.028   2.719  48.969  1.00  0.00     0.302 C 
HETATM   21  C3  UNL     1      20.284   3.510  47.698  1.00  0.00     0.302 C 
HETATM   22  N1  UNL     1      21.630   4.041  47.685  1.00  0.00     0.091 N 
HETATM   23  C21 UNL     1      22.589   3.113  48.225  1.00  0.00     0.302 C 
HETATM   24  C20 UNL     1      22.077   1.685  48.304  1.00  0.00     0.302 C 
BRANCH  22  25
HETATM   25  C2  UNL     1      21.956   4.608  46.425  1.00  0.00     0.268 C 
HETATM   26  C1  UNL     1      21.570   3.825  45.220  1.00  0.00     0.037 C 
ENDBRANCH  22  25
ENDBRANCH  18  19
ENDBRANCH  17  18
ENDBRANCH  16  17
ENDBRANCH   1  16
TORSDOF 5
ENDMDL
MODEL 6
REMARK VINA RESULT:      -7.3      3.355      6.372
REMARK  5 active torsions:
REMARK  status: ('A' for Active; 'I' for Inactive)
REMARK    1  A    between atoms: C2_2  and  N1_3 
REMARK    2  A    between atoms: N2_6  and  C5_7 
REMARK    3  A    between atoms: C5_7  and  C6_8 
REMARK    4  A    between atoms: C6_8  and  C7_9 
REMARK    5  A    between atoms: C7_9  and  C8_10 
ROOT
HETATM    1  C8  UNL     1      22.694   1.074  52.399  1.00  0.00     0.073 A 
HETATM    2  C9  UNL     1      22.778   0.112  53.469  1.00  0.00     0.049 A 
HETATM    3  C10 UNL     1      22.188  -0.742  54.299  1.00  0.00     0.055 C 
HETATM    4  C11 UNL     1      20.737  -0.922  54.231  1.00  0.00     0.072 C 
HETATM    5  N3  UNL     1      22.750  -1.555  55.326  1.00  0.00    -0.248 NA
HETATM    6  C12 UNL     1      23.980  -1.435  55.658  1.00  0.00     0.103 C 
HETATM    7  C13 UNL     1      24.804  -0.879  54.794  1.00  0.00     0.131 C 
HETATM    8  N4  UNL     1      24.194  -0.022  53.794  1.00  0.00    -0.320 N 
HETATM    9  C14 UNL     1      25.064   0.743  52.966  1.00  0.00     0.046 A 
HETATM   10  C15 UNL     1      26.388   1.023  52.741  1.00  0.00     0.032 A 
HETATM   11  C16 UNL     1      26.826   1.858  51.740  1.00  0.00     0.026 A 
HETATM   12  C17 UNL     1      25.889   2.443  50.920  1.00  0.00     0.034 A 
HETATM   13 CL1  UNL     1      26.437   3.508  49.641  1.00  0.00    -0.084 Cl
HETATM   14  C18 UNL     1      24.546   2.202  51.095  1.00  0.00     0.034 A 
HETATM   15  C19 UNL     1      24.165   1.351  52.124  1.00  0.00    -0.019 A 
ENDROOT
BRANCH   1  16
HETATM   16  C7  UNL     1      21.980   2.336  52.510  1.00  0.00     0.017 C 
BRANCH  16  17
HETATM   17  C6  UNL     1      20.673   2.450  51.797  1.00  0.00     0.031 C 
BRANCH  17  18
HETATM   18  C5  UNL     1      20.494   3.836  51.247  1.00  0.00     0.272 C 
BRANCH  18  19
HETATM   19  N2  UNL     1      21.706   4.366  50.760  1.00  0.00     0.091 N 
HETATM   20  C4  UNL     1      21.790   4.076  49.329  1.00  0.00     0.302 C 
HETATM   21  C3  UNL     1      22.850   4.946  48.678  1.00  0.00     0.302 C 
HETATM   22  N1  UNL     1      22.460   6.340  48.709  1.00  0.00     0.091 N 
HETATM   23  C21 UNL     1      21.816   6.701  49.944  1.00  0.00     0.302 C 
HETATM   24  C20 UNL     1      22.043   5.699  51.064  1.00  0.00     0.302 C 
BRANCH  22  25
HETATM   25  C2  UNL     1      23.520   7.188  48.291  1.00  0.00     0.268 C 
HETATM   26  C1  UNL     1      24.898   6.633  48.391  1.00  0.00     0.037 C 
ENDBRANCH  22  25
ENDBRANCH  18  19
ENDBRANCH  17  18
ENDBRANCH  16  17
ENDBRANCH   1  16
TORSDOF 5
ENDMDL
MODEL 7
REMARK VINA RESULT:      -7.3      2.516      7.683
REMARK  5 active torsions:
REMARK  status: ('A' for Active; 'I' for Inactive)
REMARK    1  A    between atoms: C2_2  and  N1_3 
REMARK    2  A    between atoms: N2_6  and  C5_7 
REMARK    3  A    between atoms: C5_7  and  C6_8 
REMARK    4  A    between atoms: C6_8  and  C7_9 
REMARK    5  A    between atoms: C7_9  and  C8_10 
ROOT
HETATM    1  C8  UNL     1      22.784   0.844  52.438  1.00  0.00     0.073 A 
HETATM    2  C9  UNL     1      22.951  -0.061  53.548  1.00  0.00     0.049 A 
HETATM    3  C10 UNL     1      22.437  -0.928  54.414  1.00  0.00     0.055 C 
HETATM    4  C11 UNL     1      21.009  -1.242  54.354  1.00  0.00     0.072 C 
HETATM    5  N3  UNL     1      23.068  -1.643  55.474  1.00  0.00    -0.248 NA
HETATM    6  C12 UNL     1      24.280  -1.398  55.800  1.00  0.00     0.103 C 
HETATM    7  C13 UNL     1      25.053  -0.806  54.913  1.00  0.00     0.131 C 
HETATM    8  N4  UNL     1      24.372  -0.052  53.877  1.00  0.00    -0.320 N 
HETATM    9  C14 UNL     1      25.172   0.753  53.018  1.00  0.00     0.046 A 
HETATM   10  C15 UNL     1      26.466   1.143  52.781  1.00  0.00     0.032 A 
HETATM   11  C16 UNL     1      26.830   1.971  51.746  1.00  0.00     0.026 A 
HETATM   12  C17 UNL     1      25.847   2.433  50.901  1.00  0.00     0.034 A 
HETATM   13 CL1  UNL     1      26.301   3.488  49.578  1.00  0.00    -0.084 Cl
HETATM   14  C18 UNL     1      24.530   2.079  51.087  1.00  0.00     0.034 A 
HETATM   15  C19 UNL     1      24.224   1.241  52.151  1.00  0.00    -0.019 A 
ENDROOT
BRANCH   1  16
HETATM   16  C7  UNL     1      21.958   2.039  52.495  1.00  0.00     0.017 C 
BRANCH  16  17
HETATM   17  C6  UNL     1      20.521   1.899  52.116  1.00  0.00     0.031 C 
BRANCH  17  18
HETATM   18  C5  UNL     1      20.395   1.247  50.768  1.00  0.00     0.272 C 
BRANCH  18  19
HETATM   19  N2  UNL     1      19.125   0.664  50.585  1.00  0.00     0.091 N 
HETATM   20  C4  UNL     1      18.799  -0.105  51.786  1.00  0.00     0.302 C 
HETATM   21  C3  UNL     1      17.314  -0.420  51.822  1.00  0.00     0.302 C 
HETATM   22  N1  UNL     1      16.536   0.790  51.985  1.00  0.00     0.091 N 
HETATM   23  C21 UNL     1      17.075   1.893  51.233  1.00  0.00     0.302 C 
HETATM   24  C20 UNL     1      18.056   1.470  50.151  1.00  0.00     0.302 C 
BRANCH  22  25
HETATM   25  C2  UNL     1      15.148   0.545  51.818  1.00  0.00     0.268 C 
HETATM   26  C1  UNL     1      14.332   0.453  53.059  1.00  0.00     0.037 C 
ENDBRANCH  22  25
ENDBRANCH  18  19
ENDBRANCH  17  18
ENDBRANCH  16  17
ENDBRANCH   1  16
TORSDOF 5
ENDMDL
MODEL 8
REMARK VINA RESULT:      -7.2      2.099      2.729
REMARK  5 active torsions:
REMARK  status: ('A' for Active; 'I' for Inactive)
REMARK    1  A    between atoms: C2_2  and  N1_3 
REMARK    2  A    between atoms: N2_6  and  C5_7 
REMARK    3  A    between atoms: C5_7  and  C6_8 
REMARK    4  A    between atoms: C6_8  and  C7_9 
REMARK    5  A    between atoms: C7_9  and  C8_10 
ROOT
HETATM    1  C8  UNL     1      23.051   1.669  50.781  1.00  0.00     0.073 A 
HETATM    2  C9  UNL     1      22.420   2.908  50.399  1.00  0.00     0.049 A 
HETATM    3  C10 UNL     1      22.352   3.967  49.599  1.00  0.00     0.055 C 
HETATM    4  C11 UNL     1      23.316   4.104  48.506  1.00  0.00     0.072 C 
HETATM    5  N3  UNL     1      21.458   5.077  49.626  1.00  0.00    -0.248 NA
HETATM    6  C12 UNL     1      20.637   5.234  50.594  1.00  0.00     0.103 C 
HETATM    7  C13 UNL     1      20.332   4.182  51.325  1.00  0.00     0.131 C 
HETATM    8  N4  UNL     1      21.291   3.093  51.305  1.00  0.00    -0.320 N 
HETATM    9  C14 UNL     1      21.092   2.025  52.224  1.00  0.00     0.046 A 
HETATM   10  C15 UNL     1      20.270   1.596  53.236  1.00  0.00     0.032 A 
HETATM   11  C16 UNL     1      20.429   0.394  53.883  1.00  0.00     0.026 A 
HETATM   12  C17 UNL     1      21.466  -0.425  53.496  1.00  0.00     0.034 A 
HETATM   13 CL1  UNL     1      21.677  -1.960  54.314  1.00  0.00    -0.084 Cl
HETATM   14  C18 UNL     1      22.325  -0.050  52.488  1.00  0.00     0.034 A 
HETATM   15  C19 UNL     1      22.114   1.176  51.873  1.00  0.00    -0.019 A 
ENDROOT
BRANCH   1  16
HETATM   16  C7  UNL     1      24.424   1.579  51.249  1.00  0.00     0.017 C 
BRANCH  16  17
HETATM   17  C6  UNL     1      24.982   2.760  51.972  1.00  0.00     0.031 C 
BRANCH  17  18
HETATM   18  C5  UNL     1      25.013   2.503  53.451  1.00  0.00     0.272 C 
BRANCH  18  19
HETATM   19  N2  UNL     1      26.292   2.102  53.886  1.00  0.00     0.091 N 
HETATM   20  C4  UNL     1      26.132   0.946  54.768  1.00  0.00     0.302 C 
HETATM   21  C3  UNL     1      27.461   0.232  54.944  1.00  0.00     0.302 C 
HETATM   22  N1  UNL     1      27.895  -0.362  53.698  1.00  0.00     0.091 N 
HETATM   23  C21 UNL     1      27.613   0.478  52.564  1.00  0.00     0.302 C 
HETATM   24  C20 UNL     1      27.314   1.922  52.935  1.00  0.00     0.302 C 
BRANCH  22  25
HETATM   25  C2  UNL     1      29.223  -0.856  53.790  1.00  0.00     0.268 C 
HETATM   26  C1  UNL     1      29.482  -2.191  53.184  1.00  0.00     0.037 C 
ENDBRANCH  22  25
ENDBRANCH  18  19
ENDBRANCH  17  18
ENDBRANCH  16  17
ENDBRANCH   1  16
TORSDOF 5
ENDMDL
MODEL 9
REMARK VINA RESULT:      -6.9      3.074      4.170
REMARK  5 active torsions:
REMARK  status: ('A' for Active; 'I' for Inactive)
REMARK    1  A    between atoms: C2_2  and  N1_3 
REMARK    2  A    between atoms: N2_6  and  C5_7 
REMARK    3  A    between atoms: C5_7  and  C6_8 
REMARK    4  A    between atoms: C6_8  and  C7_9 
REMARK    5  A    between atoms: C7_9  and  C8_10 
ROOT
HETATM    1  C8  UNL     1      20.265   0.950  51.375  1.00  0.00     0.073 A 
HETATM    2  C9  UNL     1      19.007   0.278  51.583  1.00  0.00     0.049 A 
HETATM    3  C10 UNL     1      17.750   0.049  51.218  1.00  0.00     0.055 C 
HETATM    4  C11 UNL     1      17.209   0.729  50.041  1.00  0.00     0.072 C 
HETATM    5  N3  UNL     1      16.761  -0.785  51.818  1.00  0.00    -0.248 NA
HETATM    6  C12 UNL     1      16.977  -1.349  52.946  1.00  0.00     0.103 C 
HETATM    7  C13 UNL     1      18.226  -1.498  53.336  1.00  0.00     0.131 C 
HETATM    8  N4  UNL     1      19.193  -0.599  52.734  1.00  0.00    -0.320 N 
HETATM    9  C14 UNL     1      20.512  -0.601  53.267  1.00  0.00     0.046 A 
HETATM   10  C15 UNL     1      21.294  -1.170  54.241  1.00  0.00     0.032 A 
HETATM   11  C16 UNL     1      22.631  -0.892  54.397  1.00  0.00     0.026 A 
HETATM   12  C17 UNL     1      23.218   0.003  53.531  1.00  0.00     0.034 A 
HETATM   13 CL1  UNL     1      24.923   0.363  53.721  1.00  0.00    -0.084 Cl
HETATM   14  C18 UNL     1      22.487   0.607  52.535  1.00  0.00     0.034 A 
HETATM   15  C19 UNL     1      21.141   0.287  52.428  1.00  0.00    -0.019 A 
ENDROOT
BRANCH   1  16
HETATM   16  C7  UNL     1      20.427   2.393  51.455  1.00  0.00     0.017 C 
BRANCH  16  17
HETATM   17  C6  UNL     1      20.447   3.153  50.170  1.00  0.00     0.031 C 
BRANCH  17  18
HETATM   18  C5  UNL     1      21.765   2.970  49.473  1.00  0.00     0.272 C 
BRANCH  18  19
HETATM   19  N2  UNL     1      22.768   3.792  50.025  1.00  0.00     0.091 N 
HETATM   20  C4  UNL     1      24.044   3.084  49.927  1.00  0.00     0.302 C 
HETATM   21  C3  UNL     1      25.197   4.051  50.130  1.00  0.00     0.302 C 
HETATM   22  N1  UNL     1      25.265   5.005  49.043  1.00  0.00     0.091 N 
HETATM   23  C21 UNL     1      23.962   5.436  48.611  1.00  0.00     0.302 C 
HETATM   24  C20 UNL     1      22.858   5.135  49.612  1.00  0.00     0.302 C 
BRANCH  22  25
HETATM   25  C2  UNL     1      26.203   6.037  49.312  1.00  0.00     0.268 C 
HETATM   26  C1  UNL     1      27.377   6.126  48.401  1.00  0.00     0.037 C 
ENDBRANCH  22  25
ENDBRANCH  18  19
ENDBRANCH  17  18
ENDBRANCH  16  17
ENDBRANCH   1  16
TORSDOF 5
ENDMDL
