MODEL 1
REMARK VINA RESULT:      -8.4      0.000      0.000
REMARK  4 active torsions:
REMARK  status: ('A' for Active; 'I' for Inactive)
REMARK    1  A    between atoms: C1_2  and  C2_3 
REMARK    2  A    between atoms: C2_3  and  N1_4 
REMARK    3  A    between atoms: N1_4  and  C3_5 
REMARK    4  A    between atoms: C10_13  and  C11_14 
ROOT
HETATM    1  C3  UNL     1      26.843   0.315  54.299  1.00  0.00     0.029 A 
HETATM    2  C4  UNL     1      26.805   1.597  53.797  1.00  0.00     0.032 A 
HETATM    3  C5  UNL     1      25.691   2.189  53.219  1.00  0.00     0.039 A 
HETATM    4  C6  UNL     1      24.529   1.421  53.146  1.00  0.00     0.076 A 
HETATM    5  C7  UNL     1      24.573   0.115  53.659  1.00  0.00    -0.005 A 
HETATM    6  C8  UNL     1      25.698  -0.444  54.228  1.00  0.00     0.040 A 
HETATM    7  C9  UNL     1      23.361  -0.751  53.610  1.00  0.00     0.156 C 
HETATM    8  N2  UNL     1      22.182  -0.123  54.059  1.00  0.00    -0.407 N 
HETATM    9  C10 UNL     1      21.536   0.825  53.240  1.00  0.00     0.134 C 
HETATM   10  C17 UNL     1      22.304   1.325  52.043  1.00  0.00     0.205 C 
HETATM   11  O2  UNL     1      23.427   2.077  52.546  1.00  0.00    -0.348 OA
HETATM   12  H10 UNL     1      22.234   0.193  55.029  1.00  0.00     0.154 HD
ENDROOT
BRANCH   9  13
HETATM   13  C11 UNL     1      20.218   0.236  52.793  1.00  0.00    -0.032 A 
HETATM   14  C12 UNL     1      19.778   0.858  51.622  1.00  0.00     0.012 A 
HETATM   15  C13 UNL     1      18.578   0.488  51.008  1.00  0.00     0.044 A 
HETATM   16  C14 UNL     1      17.844  -0.517  51.601  1.00  0.00     0.138 A 
HETATM   17  F1  UNL     1      16.657  -0.940  51.063  1.00  0.00    -0.204 F 
HETATM   18  C15 UNL     1      18.293  -1.123  52.758  1.00  0.00     0.073 A 
HETATM   19 CL1  UNL     1      17.391  -2.407  53.548  1.00  0.00    -0.081 Cl
HETATM   20  C16 UNL     1      19.474  -0.768  53.375  1.00  0.00     0.036 A 
ENDBRANCH   9  13
BRANCH   1  21
HETATM   21  N1  UNL     1      28.032  -0.213  54.874  1.00  0.00    -0.384 N 
HETATM   22  H4  UNL     1      28.001  -0.498  55.898  1.00  0.00     0.160 HD
BRANCH  21  23
HETATM   23  C2  UNL     1      29.229  -0.358  54.110  1.00  0.00     0.189 C 
BRANCH  23  24
HETATM   24  C1  UNL     1      29.305  -1.668  53.363  1.00  0.00     0.250 C 
HETATM   25  O1  UNL     1      28.814  -2.781  53.327  1.00  0.00    -0.305 OA
ENDBRANCH  23  24
ENDBRANCH  21  23
ENDBRANCH   1  21
TORSDOF 4
ENDMDL
MODEL 2
REMARK VINA RESULT:      -8.4      1.053      1.446
REMARK  4 active torsions:
REMARK  status: ('A' for Active; 'I' for Inactive)
REMARK    1  A    between atoms: C1_2  and  C2_3 
REMARK    2  A    between atoms: C2_3  and  N1_4 
REMARK    3  A    between atoms: N1_4  and  C3_5 
REMARK    4  A    between atoms: C10_13  and  C11_14 
ROOT
HETATM    1  C3  UNL     1      26.577   0.253  54.239  1.00  0.00     0.029 A 
HETATM    2  C4  UNL     1      26.536   1.563  53.814  1.00  0.00     0.032 A 
HETATM    3  C5  UNL     1      25.423   2.182  53.261  1.00  0.00     0.039 A 
HETATM    4  C6  UNL     1      24.267   1.412  53.130  1.00  0.00     0.076 A 
HETATM    5  C7  UNL     1      24.315   0.078  53.564  1.00  0.00    -0.005 A 
HETATM    6  C8  UNL     1      25.438  -0.507  54.110  1.00  0.00     0.040 A 
HETATM    7  C9  UNL     1      23.110  -0.791  53.451  1.00  0.00     0.156 C 
HETATM    8  N2  UNL     1      21.922  -0.199  53.924  1.00  0.00    -0.407 N 
HETATM    9  C10 UNL     1      21.278   0.792  53.157  1.00  0.00     0.134 C 
HETATM   10  C17 UNL     1      22.054   1.368  52.001  1.00  0.00     0.205 C 
HETATM   11  O2  UNL     1      23.167   2.096  52.559  1.00  0.00    -0.348 OA
HETATM   12  H10 UNL     1      21.962   0.058  54.912  1.00  0.00     0.154 HD
ENDROOT
BRANCH   9  13
HETATM   13  C11 UNL     1      19.969   0.223  52.662  1.00  0.00    -0.032 A 
HETATM   14  C12 UNL     1      19.459  -0.698  53.581  1.00  0.00     0.012 A 
HETATM   15  C13 UNL     1      18.253  -1.366  53.350  1.00  0.00     0.044 A 
HETATM   16  C14 UNL     1      17.581  -1.079  52.180  1.00  0.00     0.138 A 
HETATM   17  F1  UNL     1      16.392  -1.689  51.878  1.00  0.00    -0.204 F 
HETATM   18  C15 UNL     1      18.097  -0.166  51.283  1.00  0.00     0.073 A 
HETATM   19 CL1  UNL     1      17.277   0.230  49.780  1.00  0.00    -0.081 Cl
HETATM   20  C16 UNL     1      19.287   0.499  51.497  1.00  0.00     0.036 A 
ENDBRANCH   9  13
BRANCH   1  21
HETATM   21  N1  UNL     1      27.764  -0.301  54.793  1.00  0.00    -0.384 N 
HETATM   22  H4  UNL     1      27.694  -0.766  55.747  1.00  0.00     0.160 HD
BRANCH  21  23
HETATM   23  C2  UNL     1      29.011  -0.239  54.100  1.00  0.00     0.189 C 
BRANCH  23  24
HETATM   24  C1  UNL     1      29.423  -1.559  53.496  1.00  0.00     0.250 C 
HETATM   25  O1  UNL     1      29.055  -2.713  53.368  1.00  0.00    -0.305 OA
ENDBRANCH  23  24
ENDBRANCH  21  23
ENDBRANCH   1  21
TORSDOF 4
ENDMDL
MODEL 3
REMARK VINA RESULT:      -8.2      1.696      2.060
REMARK  4 active torsions:
REMARK  status: ('A' for Active; 'I' for Inactive)
REMARK    1  A    between atoms: C1_2  and  C2_3 
REMARK    2  A    between atoms: C2_3  and  N1_4 
REMARK    3  A    between atoms: N1_4  and  C3_5 
REMARK    4  A    between atoms: C10_13  and  C11_14 
ROOT
HETATM    1  C3  UNL     1      25.563   0.154  54.196  1.00  0.00     0.029 A 
HETATM    2  C4  UNL     1      25.344   1.319  53.494  1.00  0.00     0.032 A 
HETATM    3  C5  UNL     1      24.137   1.679  52.912  1.00  0.00     0.039 A 
HETATM    4  C6  UNL     1      23.073   0.789  53.054  1.00  0.00     0.076 A 
HETATM    5  C7  UNL     1      23.301  -0.397  53.770  1.00  0.00    -0.005 A 
HETATM    6  C8  UNL     1      24.514  -0.725  54.337  1.00  0.00     0.040 A 
HETATM    7  C9  UNL     1      22.200  -1.385  53.955  1.00  0.00     0.156 C 
HETATM    8  N2  UNL     1      20.981  -0.820  54.382  1.00  0.00    -0.407 N 
HETATM    9  C10 UNL     1      20.182  -0.103  53.468  1.00  0.00     0.134 C 
HETATM   10  C17 UNL     1      20.817   0.265  52.152  1.00  0.00     0.205 C 
HETATM   11  O2  UNL     1      21.869   1.209  52.438  1.00  0.00    -0.348 OA
HETATM   12  H10 UNL     1      21.049  -0.338  55.280  1.00  0.00     0.154 HD
ENDROOT
BRANCH   9  13
HETATM   13  C11 UNL     1      18.921  -0.899  53.225  1.00  0.00    -0.032 A 
HETATM   14  C12 UNL     1      18.062  -0.202  52.371  1.00  0.00     0.012 A 
HETATM   15  C13 UNL     1      16.824  -0.731  51.993  1.00  0.00     0.044 A 
HETATM   16  C14 UNL     1      16.484  -1.970  52.493  1.00  0.00     0.138 A 
HETATM   17  F1  UNL     1      15.289  -2.560  52.170  1.00  0.00    -0.204 F 
HETATM   18  C15 UNL     1      17.344  -2.646  53.334  1.00  0.00     0.073 A 
HETATM   19 CL1  UNL     1      16.951  -4.227  53.995  1.00  0.00    -0.081 Cl
HETATM   20  C16 UNL     1      18.567  -2.136  53.717  1.00  0.00     0.036 A 
ENDBRANCH   9  13
BRANCH   1  21
HETATM   21  N1  UNL     1      26.837  -0.135  54.759  1.00  0.00    -0.384 N 
HETATM   22  H4  UNL     1      26.875  -0.388  55.792  1.00  0.00     0.160 HD
BRANCH  21  23
HETATM   23  C2  UNL     1      28.027  -0.091  53.972  1.00  0.00     0.189 C 
BRANCH  23  24
HETATM   24  C1  UNL     1      28.977   1.005  54.391  1.00  0.00     0.250 C 
HETATM   25  O1  UNL     1      29.005   2.178  54.717  1.00  0.00    -0.305 OA
ENDBRANCH  23  24
ENDBRANCH  21  23
ENDBRANCH   1  21
TORSDOF 4
ENDMDL
MODEL 4
REMARK VINA RESULT:      -7.6      5.520      6.758
REMARK  4 active torsions:
REMARK  status: ('A' for Active; 'I' for Inactive)
REMARK    1  A    between atoms: C1_2  and  C2_3 
REMARK    2  A    between atoms: C2_3  and  N1_4 
REMARK    3  A    between atoms: N1_4  and  C3_5 
REMARK    4  A    between atoms: C10_13  and  C11_14 
ROOT
HETATM    1  C3  UNL     1      28.108   6.313  48.205  1.00  0.00     0.029 A 
HETATM    2  C4  UNL     1      27.220   7.311  48.545  1.00  0.00     0.032 A 
HETATM    3  C5  UNL     1      26.051   7.118  49.269  1.00  0.00     0.039 A 
HETATM    4  C6  UNL     1      25.764   5.816  49.677  1.00  0.00     0.076 A 
HETATM    5  C7  UNL     1      26.672   4.804  49.328  1.00  0.00    -0.005 A 
HETATM    6  C8  UNL     1      27.826   5.029  48.608  1.00  0.00     0.040 A 
HETATM    7  C9  UNL     1      26.418   3.394  49.740  1.00  0.00     0.156 C 
HETATM    8  N2  UNL     1      26.061   3.242  51.095  1.00  0.00    -0.407 N 
HETATM    9  C10 UNL     1      24.767   3.599  51.525  1.00  0.00     0.134 C 
HETATM   10  C17 UNL     1      23.926   4.395  50.561  1.00  0.00     0.205 C 
HETATM   11  O2  UNL     1      24.560   5.682  50.410  1.00  0.00    -0.348 OA
HETATM   12  H10 UNL     1      26.777   3.574  51.743  1.00  0.00     0.154 HD
ENDROOT
BRANCH   9  13
HETATM   13  C11 UNL     1      24.039   2.335  51.916  1.00  0.00    -0.032 A 
HETATM   14  C12 UNL     1      24.838   1.550  52.752  1.00  0.00     0.012 A 
HETATM   15  C13 UNL     1      24.387   0.325  53.252  1.00  0.00     0.044 A 
HETATM   16  C14 UNL     1      23.120  -0.081  52.890  1.00  0.00     0.138 A 
HETATM   17  F1  UNL     1      22.602  -1.268  53.337  1.00  0.00    -0.204 F 
HETATM   18  C15 UNL     1      22.342   0.705  52.064  1.00  0.00     0.073 A 
HETATM   19 CL1  UNL     1      20.722   0.228  51.577  1.00  0.00    -0.081 Cl
HETATM   20  C16 UNL     1      22.774   1.916  51.563  1.00  0.00     0.036 A 
ENDBRANCH   9  13
BRANCH   1  21
HETATM   21  N1  UNL     1      29.284   6.601  47.458  1.00  0.00    -0.384 N 
HETATM   22  H4  UNL     1      29.336   6.237  46.460  1.00  0.00     0.160 HD
BRANCH  21  23
HETATM   23  C2  UNL     1      30.359   7.352  48.020  1.00  0.00     0.189 C 
BRANCH  23  24
HETATM   24  C1  UNL     1      31.255   6.531  48.916  1.00  0.00     0.250 C 
HETATM   25  O1  UNL     1      31.293   5.482  49.533  1.00  0.00    -0.305 OA
ENDBRANCH  23  24
ENDBRANCH  21  23
ENDBRANCH   1  21
TORSDOF 4
ENDMDL
MODEL 5
REMARK VINA RESULT:      -7.5      5.035      7.095
REMARK  4 active torsions:
REMARK  status: ('A' for Active; 'I' for Inactive)
REMARK    1  A    between atoms: C1_2  and  C2_3 
REMARK    2  A    between atoms: C2_3  and  N1_4 
REMARK    3  A    between atoms: N1_4  and  C3_5 
REMARK    4  A    between atoms: C10_13  and  C11_14 
ROOT
HETATM    1  C3  UNL     1      25.545   6.226  48.836  1.00  0.00     0.029 A 
HETATM    2  C4  UNL     1      26.769   5.636  48.605  1.00  0.00     0.032 A 
HETATM    3  C5  UNL     1      27.198   4.449  49.183  1.00  0.00     0.039 A 
HETATM    4  C6  UNL     1      26.319   3.816  50.060  1.00  0.00     0.076 A 
HETATM    5  C7  UNL     1      25.074   4.422  50.293  1.00  0.00    -0.005 A 
HETATM    6  C8  UNL     1      24.678   5.603  49.702  1.00  0.00     0.040 A 
HETATM    7  C9  UNL     1      24.093   3.789  51.220  1.00  0.00     0.156 C 
HETATM    8  N2  UNL     1      23.897   2.410  51.003  1.00  0.00    -0.407 N 
HETATM    9  C10 UNL     1      24.880   1.488  51.415  1.00  0.00     0.134 C 
HETATM   10  C17 UNL     1      26.220   2.053  51.810  1.00  0.00     0.205 C 
HETATM   11  O2  UNL     1      26.812   2.611  50.619  1.00  0.00    -0.348 OA
HETATM   12  H10 UNL     1      23.546   2.192  50.069  1.00  0.00     0.154 HD
ENDROOT
BRANCH   9  13
HETATM   13  C11 UNL     1      24.311   0.676  52.555  1.00  0.00    -0.032 A 
HETATM   14  C12 UNL     1      25.339   0.104  53.309  1.00  0.00     0.012 A 
HETATM   15  C13 UNL     1      25.069  -0.696  54.422  1.00  0.00     0.044 A 
HETATM   16  C14 UNL     1      23.745  -0.900  54.751  1.00  0.00     0.138 A 
HETATM   17  F1  UNL     1      23.393  -1.671  55.828  1.00  0.00    -0.204 F 
HETATM   18  C15 UNL     1      22.740  -0.328  53.997  1.00  0.00     0.073 A 
HETATM   19 CL1  UNL     1      21.040  -0.560  54.380  1.00  0.00    -0.081 Cl
HETATM   20  C16 UNL     1      22.992   0.464  52.896  1.00  0.00     0.036 A 
ENDBRANCH   9  13
BRANCH   1  21
HETATM   21  N1  UNL     1      25.189   7.448  48.200  1.00  0.00    -0.384 N 
HETATM   22  H4  UNL     1      25.192   7.471  47.137  1.00  0.00     0.160 HD
BRANCH  21  23
HETATM   23  C2  UNL     1      24.837   8.607  48.956  1.00  0.00     0.189 C 
BRANCH  23  24
HETATM   24  C1  UNL     1      25.911   9.032  49.929  1.00  0.00     0.250 C 
HETATM   25  O1  UNL     1      26.636   9.968  50.209  1.00  0.00    -0.305 OA
ENDBRANCH  23  24
ENDBRANCH  21  23
ENDBRANCH   1  21
TORSDOF 4
ENDMDL
MODEL 6
REMARK VINA RESULT:      -7.3      5.334      6.430
REMARK  4 active torsions:
REMARK  status: ('A' for Active; 'I' for Inactive)
REMARK    1  A    between atoms: C1_2  and  C2_3 
REMARK    2  A    between atoms: C2_3  and  N1_4 
REMARK    3  A    between atoms: N1_4  and  C3_5 
REMARK    4  A    between atoms: C10_13  and  C11_14 
ROOT
HETATM    1  C3  UNL     1      26.461  -0.342  52.830  1.00  0.00     0.029 A 
HETATM    2  C4  UNL     1      25.224  -0.493  53.417  1.00  0.00     0.032 A 
HETATM    3  C5  UNL     1      24.176   0.409  53.300  1.00  0.00     0.039 A 
HETATM    4  C6  UNL     1      24.402   1.549  52.530  1.00  0.00     0.076 A 
HETATM    5  C7  UNL     1      25.665   1.699  51.935  1.00  0.00    -0.005 A 
HETATM    6  C8  UNL     1      26.686   0.782  52.071  1.00  0.00     0.040 A 
HETATM    7  C9  UNL     1      25.963   2.897  51.100  1.00  0.00     0.156 C 
HETATM    8  N2  UNL     1      24.969   3.201  50.147  1.00  0.00    -0.407 N 
HETATM    9  C10 UNL     1      23.758   3.792  50.560  1.00  0.00     0.134 C 
HETATM   10  C17 UNL     1      23.478   3.804  52.041  1.00  0.00     0.205 C 
HETATM   11  O2  UNL     1      23.298   2.432  52.449  1.00  0.00    -0.348 OA
HETATM   12  H10 UNL     1      24.810   2.450  49.473  1.00  0.00     0.154 HD
ENDROOT
BRANCH   9  13
HETATM   13  C11 UNL     1      23.718   5.202  50.020  1.00  0.00    -0.032 A 
HETATM   14  C12 UNL     1      22.982   6.030  50.871  1.00  0.00     0.012 A 
HETATM   15  C13 UNL     1      22.798   7.387  50.588  1.00  0.00     0.044 A 
HETATM   16  C14 UNL     1      23.374   7.879  49.436  1.00  0.00     0.138 A 
HETATM   17  F1  UNL     1      23.242   9.197  49.085  1.00  0.00    -0.204 F 
HETATM   18  C15 UNL     1      24.099   7.048  48.605  1.00  0.00     0.073 A 
HETATM   19 CL1  UNL     1      24.849   7.632  47.127  1.00  0.00    -0.081 Cl
HETATM   20  C16 UNL     1      24.288   5.708  48.871  1.00  0.00     0.036 A 
ENDBRANCH   9  13
BRANCH   1  21
HETATM   21  N1  UNL     1      27.481  -1.319  53.005  1.00  0.00    -0.384 N 
HETATM   22  H4  UNL     1      27.227  -2.336  52.824  1.00  0.00     0.160 HD
BRANCH  21  23
HETATM   23  C2  UNL     1      28.800  -0.956  53.410  1.00  0.00     0.189 C 
BRANCH  23  24
HETATM   24  C1  UNL     1      28.828  -0.109  54.659  1.00  0.00     0.250 C 
HETATM   25  O1  UNL     1      28.906   1.047  55.034  1.00  0.00    -0.305 OA
ENDBRANCH  23  24
ENDBRANCH  21  23
ENDBRANCH   1  21
TORSDOF 4
ENDMDL
MODEL 7
REMARK VINA RESULT:      -7.0      6.654      7.760
REMARK  4 active torsions:
REMARK  status: ('A' for Active; 'I' for Inactive)
REMARK    1  A    between atoms: C1_2  and  C2_3 
REMARK    2  A    between atoms: C2_3  and  N1_4 
REMARK    3  A    between atoms: N1_4  and  C3_5 
REMARK    4  A    between atoms: C10_13  and  C11_14 
ROOT
HETATM    1  C3  UNL     1      29.182   6.638  47.778  1.00  0.00     0.029 A 
HETATM    2  C4  UNL     1      28.246   7.637  47.617  1.00  0.00     0.032 A 
HETATM    3  C5  UNL     1      26.903   7.526  47.952  1.00  0.00     0.039 A 
HETATM    4  C6  UNL     1      26.481   6.311  48.489  1.00  0.00     0.076 A 
HETATM    5  C7  UNL     1      27.438   5.297  48.650  1.00  0.00    -0.005 A 
HETATM    6  C8  UNL     1      28.766   5.439  48.308  1.00  0.00     0.040 A 
HETATM    7  C9  UNL     1      27.044   3.977  49.221  1.00  0.00     0.156 C 
HETATM    8  N2  UNL     1      26.266   4.063  50.394  1.00  0.00    -0.407 N 
HETATM    9  C10 UNL     1      24.908   4.431  50.310  1.00  0.00     0.134 C 
HETATM   10  C17 UNL     1      24.436   4.992  48.994  1.00  0.00     0.205 C 
HETATM   11  O2  UNL     1      25.102   6.257  48.809  1.00  0.00    -0.348 OA
HETATM   12  H10 UNL     1      26.739   4.545  51.161  1.00  0.00     0.154 HD
ENDROOT
BRANCH   9  13
HETATM   13  C11 UNL     1      24.074   3.228  50.683  1.00  0.00    -0.032 A 
HETATM   14  C12 UNL     1      24.477   2.720  51.922  1.00  0.00     0.012 A 
HETATM   15  C13 UNL     1      23.856   1.603  52.488  1.00  0.00     0.044 A 
HETATM   16  C14 UNL     1      22.827   1.020  51.778  1.00  0.00     0.138 A 
HETATM   17  F1  UNL     1      22.166  -0.078  52.262  1.00  0.00    -0.204 F 
HETATM   18  C15 UNL     1      22.441   1.533  50.556  1.00  0.00     0.073 A 
HETATM   19 CL1  UNL     1      21.135   0.823  49.618  1.00  0.00    -0.081 Cl
HETATM   20  C16 UNL     1      23.044   2.635  49.986  1.00  0.00     0.036 A 
ENDBRANCH   9  13
BRANCH   1  21
HETATM   21  N1  UNL     1      30.540   6.839  47.405  1.00  0.00    -0.384 N 
HETATM   22  H4  UNL     1      30.837   6.523  46.434  1.00  0.00     0.160 HD
BRANCH  21  23
HETATM   23  C2  UNL     1      31.477   7.442  48.297  1.00  0.00     0.189 C 
BRANCH  23  24
HETATM   24  C1  UNL     1      32.642   8.088  47.588  1.00  0.00     0.250 C 
HETATM   25  O1  UNL     1      33.840   7.972  47.408  1.00  0.00    -0.305 OA
ENDBRANCH  23  24
ENDBRANCH  21  23
ENDBRANCH   1  21
TORSDOF 4
ENDMDL
MODEL 8
REMARK VINA RESULT:      -6.9      5.938      7.410
REMARK  4 active torsions:
REMARK  status: ('A' for Active; 'I' for Inactive)
REMARK    1  A    between atoms: C1_2  and  C2_3 
REMARK    2  A    between atoms: C2_3  and  N1_4 
REMARK    3  A    between atoms: N1_4  and  C3_5 
REMARK    4  A    between atoms: C10_13  and  C11_14 
ROOT
HETATM    1  C3  UNL     1      27.606   6.407  48.243  1.00  0.00     0.029 A 
HETATM    2  C4  UNL     1      26.664   7.323  48.659  1.00  0.00     0.032 A 
HETATM    3  C5  UNL     1      25.580   7.031  49.476  1.00  0.00     0.039 A 
HETATM    4  C6  UNL     1      25.444   5.710  49.901  1.00  0.00     0.076 A 
HETATM    5  C7  UNL     1      26.406   4.781  49.475  1.00  0.00    -0.005 A 
HETATM    6  C8  UNL     1      27.472   5.105  48.663  1.00  0.00     0.040 A 
HETATM    7  C9  UNL     1      26.313   3.355  49.900  1.00  0.00     0.156 C 
HETATM    8  N2  UNL     1      26.084   3.176  51.280  1.00  0.00    -0.407 N 
HETATM    9  C10 UNL     1      24.803   3.419  51.816  1.00  0.00     0.134 C 
HETATM   10  C17 UNL     1      23.819   4.134  50.927  1.00  0.00     0.205 C 
HETATM   11  O2  UNL     1      24.321   5.472  50.730  1.00  0.00    -0.348 OA
HETATM   12  H10 UNL     1      26.819   3.573  51.868  1.00  0.00     0.154 HD
ENDROOT
BRANCH   9  13
HETATM   13  C11 UNL     1      24.225   2.096  52.261  1.00  0.00    -0.032 A 
HETATM   14  C12 UNL     1      23.076   1.794  51.526  1.00  0.00     0.012 A 
HETATM   15  C13 UNL     1      22.354   0.618  51.751  1.00  0.00     0.044 A 
HETATM   16  C14 UNL     1      22.821  -0.236  52.728  1.00  0.00     0.138 A 
HETATM   17  F1  UNL     1      22.173  -1.409  53.012  1.00  0.00    -0.204 F 
HETATM   18  C15 UNL     1      23.958   0.076  53.446  1.00  0.00     0.073 A 
HETATM   19 CL1  UNL     1      24.589  -0.982  54.700  1.00  0.00    -0.081 Cl
HETATM   20  C16 UNL     1      24.680   1.233  53.234  1.00  0.00     0.036 A 
ENDBRANCH   9  13
BRANCH   1  21
HETATM   21  N1  UNL     1      28.685   6.796  47.403  1.00  0.00    -0.384 N 
HETATM   22  H4  UNL     1      29.381   6.045  47.113  1.00  0.00     0.160 HD
BRANCH  21  23
HETATM   23  C2  UNL     1      28.837   8.144  46.959  1.00  0.00     0.189 C 
BRANCH  23  24
HETATM   24  C1  UNL     1      28.457   8.341  45.511  1.00  0.00     0.250 C 
HETATM   25  O1  UNL     1      28.747   8.987  44.522  1.00  0.00    -0.305 OA
ENDBRANCH  23  24
ENDBRANCH  21  23
ENDBRANCH   1  21
TORSDOF 4
ENDMDL
MODEL 9
REMARK VINA RESULT:      -6.9      5.489      6.413
REMARK  4 active torsions:
REMARK  status: ('A' for Active; 'I' for Inactive)
REMARK    1  A    between atoms: C1_2  and  C2_3 
REMARK    2  A    between atoms: C2_3  and  N1_4 
REMARK    3  A    between atoms: N1_4  and  C3_5 
REMARK    4  A    between atoms: C10_13  and  C11_14 
ROOT
HETATM    1  C3  UNL     1      27.694   6.362  48.418  1.00  0.00     0.029 A 
HETATM    2  C4  UNL     1      27.074   7.484  48.924  1.00  0.00     0.032 A 
HETATM    3  C5  UNL     1      25.952   7.469  49.741  1.00  0.00     0.039 A 
HETATM    4  C6  UNL     1      25.421   6.222  50.068  1.00  0.00     0.076 A 
HETATM    5  C7  UNL     1      26.056   5.082  49.550  1.00  0.00    -0.005 A 
HETATM    6  C8  UNL     1      27.171   5.132  48.740  1.00  0.00     0.040 A 
HETATM    7  C9  UNL     1      25.534   3.723  49.868  1.00  0.00     0.156 C 
HETATM    8  N2  UNL     1      25.260   3.512  51.235  1.00  0.00    -0.407 N 
HETATM    9  C10 UNL     1      24.113   4.088  51.817  1.00  0.00     0.134 C 
HETATM   10  C17 UNL     1      23.393   5.136  51.009  1.00  0.00     0.205 C 
HETATM   11  O2  UNL     1      24.278   6.270  50.902  1.00  0.00    -0.348 OA
HETATM   12  H10 UNL     1      26.080   3.620  51.834  1.00  0.00     0.154 HD
ENDROOT
BRANCH   9  13
HETATM   13  C11 UNL     1      23.160   2.971  52.174  1.00  0.00    -0.032 A 
HETATM   14  C12 UNL     1      21.840   3.428  52.142  1.00  0.00     0.012 A 
HETATM   15  C13 UNL     1      20.768   2.581  52.436  1.00  0.00     0.044 A 
HETATM   16  C14 UNL     1      21.063   1.272  52.758  1.00  0.00     0.138 A 
HETATM   17  F1  UNL     1      20.071   0.376  53.060  1.00  0.00    -0.204 F 
HETATM   18  C15 UNL     1      22.372   0.836  52.785  1.00  0.00     0.073 A 
HETATM   19 CL1  UNL     1      22.794  -0.822  53.190  1.00  0.00    -0.081 Cl
HETATM   20  C16 UNL     1      23.439   1.661  52.498  1.00  0.00     0.036 A 
ENDBRANCH   9  13
BRANCH   1  21
HETATM   21  N1  UNL     1      28.842   6.471  47.585  1.00  0.00    -0.384 N 
HETATM   22  H4  UNL     1      28.697   6.402  46.533  1.00  0.00     0.160 HD
BRANCH  21  23
HETATM   23  C2  UNL     1      30.145   6.667  48.133  1.00  0.00     0.189 C 
BRANCH  23  24
HETATM   24  C1  UNL     1      31.002   5.424  48.090  1.00  0.00     0.250 C 
HETATM   25  O1  UNL     1      31.445   4.590  47.323  1.00  0.00    -0.305 OA
ENDBRANCH  23  24
ENDBRANCH  21  23
ENDBRANCH   1  21
TORSDOF 4
ENDMDL
