MODEL 1
REMARK VINA RESULT:      -8.5      0.000      0.000
REMARK  5 active torsions:
REMARK  status: ('A' for Active; 'I' for Inactive)
REMARK    1  A    between atoms: C4_5  and  N1_6 
REMARK    2  A    between atoms: N1_6  and  C5_7 
REMARK    3  A    between atoms: C9_13  and  O1_14 
REMARK    4  A    between atoms: O1_14  and  C10_15 
REMARK    5  A    between atoms: C10_15  and  C11_16 
ROOT
HETATM    1  C5  UNL     1      24.513   4.191  49.611  1.00  0.00     0.144 A 
HETATM    2  N2  UNL     1      25.483   4.865  48.981  1.00  0.00    -0.223 NA
HETATM    3  C6  UNL     1      26.786   4.591  49.145  1.00  0.00     0.236 A 
HETATM    4  N3  UNL     1      27.133   3.595  49.978  1.00  0.00    -0.241 NA
HETATM    5  C7  UNL     1      26.255   2.864  50.651  1.00  0.00     0.077 A 
HETATM    6  C8  UNL     1      26.671   1.867  51.480  1.00  0.00     0.072 A 
HETATM    7  C9  UNL     1      25.687   1.159  52.139  1.00  0.00     0.107 A 
HETATM    8  C15 UNL     1      24.342   1.450  51.963  1.00  0.00     0.136 A 
HETATM    9  C16 UNL     1      23.963   2.474  51.108  1.00  0.00     0.121 A 
HETATM   10  C17 UNL     1      24.932   3.187  50.446  1.00  0.00     0.075 A 
HETATM   11  O3  UNL     1      22.602   2.679  51.005  1.00  0.00    -0.345 OA
HETATM   12  C18 UNL     1      21.675   1.606  51.024  1.00  0.00     0.202 C 
HETATM   13  C19 UNL     1      22.119   0.471  51.879  1.00  0.00     0.202 C 
HETATM   14  O4  UNL     1      23.317   0.764  52.602  1.00  0.00    -0.344 OA
ENDROOT
BRANCH   1  15
HETATM   15  N1  UNL     1      23.174   4.579  49.364  1.00  0.00    -0.340 N 
HETATM   16  H3  UNL     1      22.331   4.912  49.857  1.00  0.00     0.167 HD
BRANCH  15  17
HETATM   17  C4  UNL     1      22.685   4.540  48.024  1.00  0.00     0.035 A 
HETATM   18  C3  UNL     1      22.262   3.415  47.294  1.00  0.00     0.032 A 
HETATM   19  C2  UNL     1      21.826   3.459  46.009  1.00  0.00     0.046 A 
HETATM   20  C1  UNL     1      21.775   4.649  45.332  1.00  0.00     0.138 A 
HETATM   21  F1  UNL     1      21.336   4.636  44.066  1.00  0.00    -0.204 F 
HETATM   22  C21 UNL     1      22.179   5.783  46.000  1.00  0.00     0.074 A 
HETATM   23  C20 UNL     1      22.620   5.725  47.305  1.00  0.00     0.056 A 
HETATM   24 CL1  UNL     1      22.077   7.260  45.044  1.00  0.00    -0.081 Cl
ENDBRANCH  15  17
ENDBRANCH   1  15
BRANCH   7  25
HETATM   25  O1  UNL     1      26.043   0.118  53.012  1.00  0.00    -0.346 OA
BRANCH  25  26
HETATM   26  C10 UNL     1      26.352   0.456  54.353  1.00  0.00     0.207 C 
BRANCH  26  27
HETATM   27  C11 UNL     1      27.710  -0.075  54.761  1.00  0.00     0.145 C 
HETATM   28  C12 UNL     1      28.439  -0.705  53.580  1.00  0.00     0.036 C 
HETATM   29  C13 UNL     1      29.709   0.136  53.464  1.00  0.00     0.029 C 
HETATM   30  C14 UNL     1      29.219   1.430  54.120  1.00  0.00     0.168 C 
HETATM   31  O2  UNL     1      28.546   0.937  55.220  1.00  0.00    -0.384 OA
ENDBRANCH  26  27
ENDBRANCH  25  26
ENDBRANCH   7  25
TORSDOF 5
ENDMDL
MODEL 2
REMARK VINA RESULT:      -8.4      5.407      9.196
REMARK  5 active torsions:
REMARK  status: ('A' for Active; 'I' for Inactive)
REMARK    1  A    between atoms: C4_5  and  N1_6 
REMARK    2  A    between atoms: N1_6  and  C5_7 
REMARK    3  A    between atoms: C9_13  and  O1_14 
REMARK    4  A    between atoms: O1_14  and  C10_15 
REMARK    5  A    between atoms: C10_15  and  C11_16 
ROOT
HETATM    1  C5  UNL     1      23.728  -0.109  53.604  1.00  0.00     0.144 A 
HETATM    2  N2  UNL     1      24.118  -0.843  54.653  1.00  0.00    -0.223 NA
HETATM    3  C6  UNL     1      23.263  -1.548  55.409  1.00  0.00     0.236 A 
HETATM    4  N3  UNL     1      21.955  -1.517  55.098  1.00  0.00    -0.241 NA
HETATM    5  C7  UNL     1      21.460  -0.824  54.081  1.00  0.00     0.077 A 
HETATM    6  C8  UNL     1      20.124  -0.834  53.818  1.00  0.00     0.072 A 
HETATM    7  C9  UNL     1      19.701  -0.084  52.741  1.00  0.00     0.107 A 
HETATM    8  C15 UNL     1      20.593   0.642  51.965  1.00  0.00     0.136 A 
HETATM    9  C16 UNL     1      21.946   0.623  52.269  1.00  0.00     0.121 A 
HETATM   10  C17 UNL     1      22.382  -0.119  53.339  1.00  0.00     0.075 A 
HETATM   11  O3  UNL     1      22.746   1.378  51.434  1.00  0.00    -0.345 OA
HETATM   12  C18 UNL     1      22.495   1.481  50.042  1.00  0.00     0.202 C 
HETATM   13  C19 UNL     1      21.045   1.420  49.708  1.00  0.00     0.202 C 
HETATM   14  O4  UNL     1      20.214   1.409  50.870  1.00  0.00    -0.344 OA
ENDROOT
BRANCH   1  15
HETATM   15  N1  UNL     1      24.723   0.599  52.888  1.00  0.00    -0.340 N 
HETATM   16  H3  UNL     1      24.829   1.372  52.213  1.00  0.00     0.167 HD
BRANCH  15  17
HETATM   17  C4  UNL     1      26.088   0.220  53.055  1.00  0.00     0.035 A 
HETATM   18  C3  UNL     1      26.685  -1.011  52.733  1.00  0.00     0.032 A 
HETATM   19  C2  UNL     1      27.995  -1.302  52.942  1.00  0.00     0.046 A 
HETATM   20  C1  UNL     1      28.833  -0.373  53.501  1.00  0.00     0.138 A 
HETATM   21  F1  UNL     1      30.117  -0.712  53.685  1.00  0.00    -0.204 F 
HETATM   22  C21 UNL     1      28.300   0.850  53.837  1.00  0.00     0.074 A 
HETATM   23  C20 UNL     1      26.968   1.133  53.620  1.00  0.00     0.056 A 
HETATM   24 CL1  UNL     1      29.457   1.972  54.549  1.00  0.00    -0.081 Cl
ENDBRANCH  15  17
ENDBRANCH   1  15
BRANCH   7  25
HETATM   25  O1  UNL     1      18.336  -0.045  52.411  1.00  0.00    -0.346 OA
BRANCH  25  26
HETATM   26  C10 UNL     1      17.550  -1.185  52.716  1.00  0.00     0.207 C 
BRANCH  26  27
HETATM   27  C11 UNL     1      16.070  -0.873  52.650  1.00  0.00     0.145 C 
HETATM   28  C12 UNL     1      15.817   0.507  52.053  1.00  0.00     0.036 C 
HETATM   29  C13 UNL     1      14.978   0.204  50.814  1.00  0.00     0.029 C 
HETATM   30  C14 UNL     1      15.418  -1.240  50.554  1.00  0.00     0.168 C 
HETATM   31  O2  UNL     1      15.388  -1.765  51.831  1.00  0.00    -0.384 OA
ENDBRANCH  26  27
ENDBRANCH  25  26
ENDBRANCH   7  25
TORSDOF 5
ENDMDL
MODEL 3
REMARK VINA RESULT:      -8.4      5.031      8.982
REMARK  5 active torsions:
REMARK  status: ('A' for Active; 'I' for Inactive)
REMARK    1  A    between atoms: C4_5  and  N1_6 
REMARK    2  A    between atoms: N1_6  and  C5_7 
REMARK    3  A    between atoms: C9_13  and  O1_14 
REMARK    4  A    between atoms: O1_14  and  C10_15 
REMARK    5  A    between atoms: C10_15  and  C11_16 
ROOT
HETATM    1  C5  UNL     1      23.895   0.584  52.633  1.00  0.00     0.144 A 
HETATM    2  N2  UNL     1      23.881  -0.484  53.440  1.00  0.00    -0.223 NA
HETATM    3  C6  UNL     1      22.802  -0.850  54.149  1.00  0.00     0.236 A 
HETATM    4  N3  UNL     1      21.684  -0.111  54.042  1.00  0.00    -0.241 NA
HETATM    5  C7  UNL     1      21.587   0.965  53.273  1.00  0.00     0.077 A 
HETATM    6  C8  UNL     1      20.424   1.671  53.208  1.00  0.00     0.072 A 
HETATM    7  C9  UNL     1      20.417   2.776  52.382  1.00  0.00     0.107 A 
HETATM    8  C15 UNL     1      21.539   3.145  51.654  1.00  0.00     0.136 A 
HETATM    9  C16 UNL     1      22.702   2.397  51.749  1.00  0.00     0.121 A 
HETATM   10  C17 UNL     1      22.724   1.295  52.568  1.00  0.00     0.075 A 
HETATM   11  O3  UNL     1      23.757   2.851  50.983  1.00  0.00    -0.345 OA
HETATM   12  C18 UNL     1      23.566   3.409  49.694  1.00  0.00     0.202 C 
HETATM   13  C19 UNL     1      22.278   4.146  49.566  1.00  0.00     0.202 C 
HETATM   14  O4  UNL     1      21.578   4.247  50.808  1.00  0.00    -0.344 OA
ENDROOT
BRANCH   1  15
HETATM   15  N1  UNL     1      25.097   0.874  51.944  1.00  0.00    -0.340 N 
HETATM   16  H3  UNL     1      25.443   1.360  51.102  1.00  0.00     0.167 HD
BRANCH  15  17
HETATM   17  C4  UNL     1      26.328   0.388  52.479  1.00  0.00     0.035 A 
HETATM   18  C3  UNL     1      26.817  -0.930  52.454  1.00  0.00     0.032 A 
HETATM   19  C2  UNL     1      27.995  -1.317  53.005  1.00  0.00     0.046 A 
HETATM   20  C1  UNL     1      28.799  -0.407  53.640  1.00  0.00     0.138 A 
HETATM   21  F1  UNL     1      29.952  -0.843  54.166  1.00  0.00    -0.204 F 
HETATM   22  C21 UNL     1      28.368   0.899  53.694  1.00  0.00     0.074 A 
HETATM   23  C20 UNL     1      27.168   1.279  53.131  1.00  0.00     0.056 A 
HETATM   24 CL1  UNL     1      29.470   1.990  54.531  1.00  0.00    -0.081 Cl
ENDBRANCH  15  17
ENDBRANCH   1  15
BRANCH   7  25
HETATM   25  O1  UNL     1      19.253   3.553  52.267  1.00  0.00    -0.346 OA
BRANCH  25  26
HETATM   26  C10 UNL     1      18.177   3.023  51.513  1.00  0.00     0.207 C 
BRANCH  26  27
HETATM   27  C11 UNL     1      17.093   4.057  51.289  1.00  0.00     0.145 C 
HETATM   28  C12 UNL     1      16.012   3.536  50.349  1.00  0.00     0.036 C 
HETATM   29  C13 UNL     1      14.749   3.588  51.206  1.00  0.00     0.029 C 
HETATM   30  C14 UNL     1      15.381   3.503  52.599  1.00  0.00     0.168 C 
HETATM   31  O2  UNL     1      16.436   4.385  52.470  1.00  0.00    -0.384 OA
ENDBRANCH  26  27
ENDBRANCH  25  26
ENDBRANCH   7  25
TORSDOF 5
ENDMDL
MODEL 4
REMARK VINA RESULT:      -8.3      1.909      2.348
REMARK  5 active torsions:
REMARK  status: ('A' for Active; 'I' for Inactive)
REMARK    1  A    between atoms: C4_5  and  N1_6 
REMARK    2  A    between atoms: N1_6  and  C5_7 
REMARK    3  A    between atoms: C9_13  and  O1_14 
REMARK    4  A    between atoms: O1_14  and  C10_15 
REMARK    5  A    between atoms: C10_15  and  C11_16 
ROOT
HETATM    1  C5  UNL     1      24.307   3.900  49.813  1.00  0.00     0.144 A 
HETATM    2  N2  UNL     1      25.212   4.626  49.146  1.00  0.00    -0.223 NA
HETATM    3  C6  UNL     1      26.535   4.435  49.269  1.00  0.00     0.236 A 
HETATM    4  N3  UNL     1      26.970   3.471  50.098  1.00  0.00    -0.241 NA
HETATM    5  C7  UNL     1      26.162   2.694  50.806  1.00  0.00     0.077 A 
HETATM    6  C8  UNL     1      26.666   1.734  51.630  1.00  0.00     0.072 A 
HETATM    7  C9  UNL     1      25.749   0.974  52.327  1.00  0.00     0.107 A 
HETATM    8  C15 UNL     1      24.384   1.179  52.193  1.00  0.00     0.136 A 
HETATM    9  C16 UNL     1      23.914   2.168  51.342  1.00  0.00     0.121 A 
HETATM   10  C17 UNL     1      24.815   2.933  50.642  1.00  0.00     0.075 A 
HETATM   11  O3  UNL     1      22.540   2.288  51.282  1.00  0.00    -0.345 OA
HETATM   12  C18 UNL     1      21.683   1.159  51.342  1.00  0.00     0.202 C 
HETATM   13  C19 UNL     1      22.225   0.063  52.191  1.00  0.00     0.202 C 
HETATM   14  O4  UNL     1      23.425   0.438  52.872  1.00  0.00    -0.344 OA
ENDROOT
BRANCH   1  15
HETATM   15  N1  UNL     1      22.939   4.201  49.607  1.00  0.00    -0.340 N 
HETATM   16  H3  UNL     1      22.034   3.740  49.427  1.00  0.00     0.167 HD
BRANCH  15  17
HETATM   17  C4  UNL     1      22.528   5.568  49.622  1.00  0.00     0.035 A 
HETATM   18  C3  UNL     1      22.415   6.420  50.734  1.00  0.00     0.032 A 
HETATM   19  C2  UNL     1      21.996   7.709  50.667  1.00  0.00     0.046 A 
HETATM   20  C1  UNL     1      21.650   8.267  49.465  1.00  0.00     0.138 A 
HETATM   21  F1  UNL     1      21.244   9.545  49.455  1.00  0.00    -0.204 F 
HETATM   22  C21 UNL     1      21.742   7.476  48.343  1.00  0.00     0.074 A 
HETATM   23  C20 UNL     1      22.167   6.167  48.424  1.00  0.00     0.056 A 
HETATM   24 CL1  UNL     1      21.273   8.283  46.848  1.00  0.00    -0.081 Cl
ENDBRANCH  15  17
ENDBRANCH   1  15
BRANCH   7  25
HETATM   25  O1  UNL     1      26.197  -0.034  53.197  1.00  0.00    -0.346 OA
BRANCH  25  26
HETATM   26  C10 UNL     1      26.521   0.337  54.526  1.00  0.00     0.207 C 
BRANCH  26  27
HETATM   27  C11 UNL     1      27.925  -0.093  54.895  1.00  0.00     0.145 C 
HETATM   28  C12 UNL     1      28.625  -0.777  53.727  1.00  0.00     0.036 C 
HETATM   29  C13 UNL     1      29.839   0.114  53.475  1.00  0.00     0.029 C 
HETATM   30  C14 UNL     1      29.316   1.429  54.059  1.00  0.00     0.168 C 
HETATM   31  O2  UNL     1      28.729   0.991  55.229  1.00  0.00    -0.384 OA
ENDBRANCH  26  27
ENDBRANCH  25  26
ENDBRANCH   7  25
TORSDOF 5
ENDMDL
MODEL 5
REMARK VINA RESULT:      -8.2      4.304      8.031
REMARK  5 active torsions:
REMARK  status: ('A' for Active; 'I' for Inactive)
REMARK    1  A    between atoms: C4_5  and  N1_6 
REMARK    2  A    between atoms: N1_6  and  C5_7 
REMARK    3  A    between atoms: C9_13  and  O1_14 
REMARK    4  A    between atoms: O1_14  and  C10_15 
REMARK    5  A    between atoms: C10_15  and  C11_16 
ROOT
HETATM    1  C5  UNL     1      25.293   2.374  51.845  1.00  0.00     0.144 A 
HETATM    2  N2  UNL     1      26.192   3.199  51.294  1.00  0.00    -0.223 NA
HETATM    3  C6  UNL     1      26.013   3.778  50.097  1.00  0.00     0.236 A 
HETATM    4  N3  UNL     1      24.880   3.517  49.421  1.00  0.00    -0.241 NA
HETATM    5  C7  UNL     1      23.925   2.716  49.873  1.00  0.00     0.077 A 
HETATM    6  C8  UNL     1      22.800   2.492  49.139  1.00  0.00     0.072 A 
HETATM    7  C9  UNL     1      21.861   1.644  49.689  1.00  0.00     0.107 A 
HETATM    8  C15 UNL     1      22.056   1.051  50.927  1.00  0.00     0.136 A 
HETATM    9  C16 UNL     1      23.217   1.307  51.642  1.00  0.00     0.121 A 
HETATM   10  C17 UNL     1      24.160   2.149  51.106  1.00  0.00     0.075 A 
HETATM   11  O3  UNL     1      23.309   0.667  52.861  1.00  0.00    -0.345 OA
HETATM   12  C18 UNL     1      22.180   0.474  53.697  1.00  0.00     0.202 C 
HETATM   13  C19 UNL     1      20.918   0.279  52.932  1.00  0.00     0.202 C 
HETATM   14  O4  UNL     1      21.139   0.193  51.522  1.00  0.00    -0.344 OA
ENDROOT
BRANCH   1  15
HETATM   15  N1  UNL     1      25.599   1.817  53.111  1.00  0.00    -0.340 N 
HETATM   16  H3  UNL     1      25.208   1.719  54.060  1.00  0.00     0.167 HD
BRANCH  15  17
HETATM   17  C4  UNL     1      26.840   1.133  53.276  1.00  0.00     0.035 A 
HETATM   18  C3  UNL     1      28.078   1.676  53.662  1.00  0.00     0.032 A 
HETATM   19  C2  UNL     1      29.223   0.957  53.778  1.00  0.00     0.046 A 
HETATM   20  C1  UNL     1      29.231  -0.387  53.516  1.00  0.00     0.138 A 
HETATM   21  F1  UNL     1      30.390  -1.049  53.646  1.00  0.00    -0.204 F 
HETATM   22  C21 UNL     1      28.046  -0.971  53.132  1.00  0.00     0.074 A 
HETATM   23  C20 UNL     1      26.888  -0.229  53.017  1.00  0.00     0.056 A 
HETATM   24 CL1  UNL     1      28.160  -2.701  52.816  1.00  0.00    -0.081 Cl
ENDBRANCH  15  17
ENDBRANCH   1  15
BRANCH   7  25
HETATM   25  O1  UNL     1      20.677   1.366  48.987  1.00  0.00    -0.346 OA
BRANCH  25  26
HETATM   26  C10 UNL     1      19.933   2.463  48.486  1.00  0.00     0.207 C 
BRANCH  26  27
HETATM   27  C11 UNL     1      18.540   2.506  49.078  1.00  0.00     0.145 C 
HETATM   28  C12 UNL     1      18.252   1.266  49.917  1.00  0.00     0.036 C 
HETATM   29  C13 UNL     1      17.978   1.839  51.306  1.00  0.00     0.029 C 
HETATM   30  C14 UNL     1      18.751   3.156  51.196  1.00  0.00     0.168 C 
HETATM   31  O2  UNL     1      18.376   3.586  49.939  1.00  0.00    -0.384 OA
ENDBRANCH  26  27
ENDBRANCH  25  26
ENDBRANCH   7  25
TORSDOF 5
ENDMDL
MODEL 6
REMARK VINA RESULT:      -8.2      3.538      4.569
REMARK  5 active torsions:
REMARK  status: ('A' for Active; 'I' for Inactive)
REMARK    1  A    between atoms: C4_5  and  N1_6 
REMARK    2  A    between atoms: N1_6  and  C5_7 
REMARK    3  A    between atoms: C9_13  and  O1_14 
REMARK    4  A    between atoms: O1_14  and  C10_15 
REMARK    5  A    between atoms: C10_15  and  C11_16 
ROOT
HETATM    1  C5  UNL     1      21.593   2.681  52.068  1.00  0.00     0.144 A 
HETATM    2  N2  UNL     1      21.850   3.632  51.163  1.00  0.00    -0.223 NA
HETATM    3  C6  UNL     1      23.038   3.754  50.550  1.00  0.00     0.236 A 
HETATM    4  N3  UNL     1      24.012   2.880  50.858  1.00  0.00    -0.241 NA
HETATM    5  C7  UNL     1      23.865   1.900  51.739  1.00  0.00     0.077 A 
HETATM    6  C8  UNL     1      24.892   1.047  52.007  1.00  0.00     0.072 A 
HETATM    7  C9  UNL     1      24.647   0.058  52.938  1.00  0.00     0.107 A 
HETATM    8  C15 UNL     1      23.416  -0.059  53.566  1.00  0.00     0.136 A 
HETATM    9  C16 UNL     1      22.397   0.832  53.263  1.00  0.00     0.121 A 
HETATM   10  C17 UNL     1      22.627   1.821  52.338  1.00  0.00     0.075 A 
HETATM   11  O3  UNL     1      21.214   0.626  53.943  1.00  0.00    -0.345 OA
HETATM   12  C18 UNL     1      20.736  -0.675  54.245  1.00  0.00     0.202 C 
HETATM   13  C19 UNL     1      21.832  -1.653  54.492  1.00  0.00     0.202 C 
HETATM   14  O4  UNL     1      23.123  -1.039  54.507  1.00  0.00    -0.344 OA
ENDROOT
BRANCH   1  15
HETATM   15  N1  UNL     1      20.304   2.659  52.654  1.00  0.00    -0.340 N 
HETATM   16  H3  UNL     1      19.841   2.660  53.576  1.00  0.00     0.167 HD
BRANCH  15  17
HETATM   17  C4  UNL     1      19.163   2.618  51.798  1.00  0.00     0.035 A 
HETATM   18  C3  UNL     1      18.357   3.693  51.386  1.00  0.00     0.032 A 
HETATM   19  C2  UNL     1      17.271   3.568  50.581  1.00  0.00     0.046 A 
HETATM   20  C1  UNL     1      16.891   2.338  50.111  1.00  0.00     0.138 A 
HETATM   21  F1  UNL     1      15.812   2.271  49.319  1.00  0.00    -0.204 F 
HETATM   22  C21 UNL     1      17.646   1.250  50.485  1.00  0.00     0.074 A 
HETATM   23  C20 UNL     1      18.746   1.390  51.304  1.00  0.00     0.056 A 
HETATM   24 CL1  UNL     1      17.076  -0.285  49.832  1.00  0.00    -0.081 Cl
ENDBRANCH  15  17
ENDBRANCH   1  15
BRANCH   7  25
HETATM   25  O1  UNL     1      25.661  -0.857  53.266  1.00  0.00    -0.346 OA
BRANCH  25  26
HETATM   26  C10 UNL     1      26.996  -0.504  52.951  1.00  0.00     0.207 C 
BRANCH  26  27
HETATM   27  C11 UNL     1      27.727   0.042  54.159  1.00  0.00     0.145 C 
HETATM   28  C12 UNL     1      29.227   0.136  53.908  1.00  0.00     0.036 C 
HETATM   29  C13 UNL     1      29.518   1.626  54.075  1.00  0.00     0.029 C 
HETATM   30  C14 UNL     1      28.132   2.194  53.759  1.00  0.00     0.168 C 
HETATM   31  O2  UNL     1      27.319   1.335  54.471  1.00  0.00    -0.384 OA
ENDBRANCH  26  27
ENDBRANCH  25  26
ENDBRANCH   7  25
TORSDOF 5
ENDMDL
MODEL 7
REMARK VINA RESULT:      -8.1      4.934      8.710
REMARK  5 active torsions:
REMARK  status: ('A' for Active; 'I' for Inactive)
REMARK    1  A    between atoms: C4_5  and  N1_6 
REMARK    2  A    between atoms: N1_6  and  C5_7 
REMARK    3  A    between atoms: C9_13  and  O1_14 
REMARK    4  A    between atoms: O1_14  and  C10_15 
REMARK    5  A    between atoms: C10_15  and  C11_16 
ROOT
HETATM    1  C5  UNL     1      24.182   2.072  51.410  1.00  0.00     0.144 A 
HETATM    2  N2  UNL     1      24.996   3.041  50.976  1.00  0.00    -0.223 NA
HETATM    3  C6  UNL     1      24.584   4.301  50.766  1.00  0.00     0.236 A 
HETATM    4  N3  UNL     1      23.295   4.602  51.004  1.00  0.00    -0.241 NA
HETATM    5  C7  UNL     1      22.404   3.721  51.436  1.00  0.00     0.077 A 
HETATM    6  C8  UNL     1      21.113   4.090  51.658  1.00  0.00     0.072 A 
HETATM    7  C9  UNL     1      20.257   3.105  52.107  1.00  0.00     0.107 A 
HETATM    8  C15 UNL     1      20.693   1.806  52.321  1.00  0.00     0.136 A 
HETATM    9  C16 UNL     1      22.018   1.473  52.082  1.00  0.00     0.121 A 
HETATM   10  C17 UNL     1      22.881   2.444  51.634  1.00  0.00     0.075 A 
HETATM   11  O3  UNL     1      22.347   0.155  52.327  1.00  0.00    -0.345 OA
HETATM   12  C18 UNL     1      21.782  -0.573  53.405  1.00  0.00     0.202 C 
HETATM   13  C19 UNL     1      20.385  -0.161  53.715  1.00  0.00     0.202 C 
HETATM   14  O4  UNL     1      19.869   0.783  52.774  1.00  0.00    -0.344 OA
ENDROOT
BRANCH   1  15
HETATM   15  N1  UNL     1      24.732   0.778  51.585  1.00  0.00    -0.340 N 
HETATM   16  H3  UNL     1      24.669  -0.179  51.205  1.00  0.00     0.167 HD
BRANCH  15  17
HETATM   17  C4  UNL     1      25.715   0.584  52.601  1.00  0.00     0.035 A 
HETATM   18  C3  UNL     1      25.817   1.243  53.838  1.00  0.00     0.032 A 
HETATM   19  C2  UNL     1      26.800   1.013  54.746  1.00  0.00     0.046 A 
HETATM   20  C1  UNL     1      27.779   0.090  54.493  1.00  0.00     0.138 A 
HETATM   21  F1  UNL     1      28.725  -0.099  55.424  1.00  0.00    -0.204 F 
HETATM   22  C21 UNL     1      27.728  -0.585  53.295  1.00  0.00     0.074 A 
HETATM   23  C20 UNL     1      26.725  -0.342  52.380  1.00  0.00     0.056 A 
HETATM   24 CL1  UNL     1      29.031  -1.748  53.063  1.00  0.00    -0.081 Cl
ENDBRANCH  15  17
ENDBRANCH   1  15
BRANCH   7  25
HETATM   25  O1  UNL     1      18.909   3.413  52.356  1.00  0.00    -0.346 OA
BRANCH  25  26
HETATM   26  C10 UNL     1      17.998   3.314  51.275  1.00  0.00     0.207 C 
BRANCH  26  27
HETATM   27  C11 UNL     1      16.903   4.355  51.374  1.00  0.00     0.145 C 
HETATM   28  C12 UNL     1      15.777   4.075  50.386  1.00  0.00     0.036 C 
HETATM   29  C13 UNL     1      14.558   3.888  51.287  1.00  0.00     0.029 C 
HETATM   30  C14 UNL     1      15.259   3.461  52.579  1.00  0.00     0.168 C 
HETATM   31  O2  UNL     1      16.305   4.361  52.630  1.00  0.00    -0.384 OA
ENDBRANCH  26  27
ENDBRANCH  25  26
ENDBRANCH   7  25
TORSDOF 5
ENDMDL
MODEL 8
REMARK VINA RESULT:      -8.0      4.069      5.606
REMARK  5 active torsions:
REMARK  status: ('A' for Active; 'I' for Inactive)
REMARK    1  A    between atoms: C4_5  and  N1_6 
REMARK    2  A    between atoms: N1_6  and  C5_7 
REMARK    3  A    between atoms: C9_13  and  O1_14 
REMARK    4  A    between atoms: O1_14  and  C10_15 
REMARK    5  A    between atoms: C10_15  and  C11_16 
ROOT
HETATM    1  C5  UNL     1      20.717   0.585  52.268  1.00  0.00     0.144 A 
HETATM    2  N2  UNL     1      19.829  -0.148  52.950  1.00  0.00    -0.223 NA
HETATM    3  C6  UNL     1      20.184  -1.028  53.899  1.00  0.00     0.236 A 
HETATM    4  N3  UNL     1      21.491  -1.178  54.178  1.00  0.00    -0.241 NA
HETATM    5  C7  UNL     1      22.453  -0.504  53.564  1.00  0.00     0.077 A 
HETATM    6  C8  UNL     1      23.759  -0.703  53.894  1.00  0.00     0.072 A 
HETATM    7  C9  UNL     1      24.692   0.042  53.202  1.00  0.00     0.107 A 
HETATM    8  C15 UNL     1      24.314   0.949  52.222  1.00  0.00     0.136 A 
HETATM    9  C16 UNL     1      22.972   1.120  51.919  1.00  0.00     0.121 A 
HETATM   10  C17 UNL     1      22.033   0.384  52.599  1.00  0.00     0.075 A 
HETATM   11  O3  UNL     1      22.706   2.046  50.930  1.00  0.00    -0.345 OA
HETATM   12  C18 UNL     1      23.458   3.242  50.797  1.00  0.00     0.202 C 
HETATM   13  C19 UNL     1      24.882   3.079  51.199  1.00  0.00     0.202 C 
HETATM   14  O4  UNL     1      25.216   1.723  51.501  1.00  0.00    -0.344 OA
ENDROOT
BRANCH   1  15
HETATM   15  N1  UNL     1      20.222   1.473  51.283  1.00  0.00    -0.340 N 
HETATM   16  H3  UNL     1      20.542   2.190  50.614  1.00  0.00     0.167 HD
BRANCH  15  17
HETATM   17  C4  UNL     1      18.818   1.494  51.024  1.00  0.00     0.035 A 
HETATM   18  C3  UNL     1      17.873   2.429  51.480  1.00  0.00     0.032 A 
HETATM   19  C2  UNL     1      16.546   2.368  51.203  1.00  0.00     0.046 A 
HETATM   20  C1  UNL     1      16.040   1.353  50.435  1.00  0.00     0.138 A 
HETATM   21  F1  UNL     1      14.722   1.341  50.193  1.00  0.00    -0.204 F 
HETATM   22  C21 UNL     1      16.922   0.408  49.963  1.00  0.00     0.074 A 
HETATM   23  C20 UNL     1      18.269   0.480  50.252  1.00  0.00     0.056 A 
HETATM   24 CL1  UNL     1      16.176  -0.856  48.988  1.00  0.00    -0.081 Cl
ENDBRANCH  15  17
ENDBRANCH   1  15
BRANCH   7  25
HETATM   25  O1  UNL     1      26.058  -0.111  53.487  1.00  0.00    -0.346 OA
BRANCH  25  26
HETATM   26  C10 UNL     1      26.577   0.563  54.620  1.00  0.00     0.207 C 
BRANCH  26  27
HETATM   27  C11 UNL     1      27.971   0.082  54.963  1.00  0.00     0.145 C 
HETATM   28  C12 UNL     1      28.591  -0.698  53.809  1.00  0.00     0.036 C 
HETATM   29  C13 UNL     1      29.837   0.115  53.465  1.00  0.00     0.029 C 
HETATM   30  C14 UNL     1      29.402   1.485  53.993  1.00  0.00     0.168 C 
HETATM   31  O2  UNL     1      28.840   1.141  55.207  1.00  0.00    -0.384 OA
ENDBRANCH  26  27
ENDBRANCH  25  26
ENDBRANCH   7  25
TORSDOF 5
ENDMDL
MODEL 9
REMARK VINA RESULT:      -7.9      4.707      8.653
REMARK  5 active torsions:
REMARK  status: ('A' for Active; 'I' for Inactive)
REMARK    1  A    between atoms: C4_5  and  N1_6 
REMARK    2  A    between atoms: N1_6  and  C5_7 
REMARK    3  A    between atoms: C9_13  and  O1_14 
REMARK    4  A    between atoms: O1_14  and  C10_15 
REMARK    5  A    between atoms: C10_15  and  C11_16 
ROOT
HETATM    1  C5  UNL     1      24.380   0.956  52.836  1.00  0.00     0.144 A 
HETATM    2  N2  UNL     1      24.391  -0.191  53.527  1.00  0.00    -0.223 NA
HETATM    3  C6  UNL     1      23.284  -0.736  54.054  1.00  0.00     0.236 A 
HETATM    4  N3  UNL     1      22.111  -0.103  53.878  1.00  0.00    -0.241 NA
HETATM    5  C7  UNL     1      21.986   1.036  53.212  1.00  0.00     0.077 A 
HETATM    6  C8  UNL     1      20.768   1.628  53.070  1.00  0.00     0.072 A 
HETATM    7  C9  UNL     1      20.734   2.812  52.361  1.00  0.00     0.107 A 
HETATM    8  C15 UNL     1      21.884   3.367  51.821  1.00  0.00     0.136 A 
HETATM    9  C16 UNL     1      23.105   2.730  51.990  1.00  0.00     0.121 A 
HETATM   10  C17 UNL     1      23.153   1.552  52.693  1.00  0.00     0.075 A 
HETATM   11  O3  UNL     1      24.185   3.367  51.412  1.00  0.00    -0.345 OA
HETATM   12  C18 UNL     1      24.084   4.044  50.170  1.00  0.00     0.202 C 
HETATM   13  C19 UNL     1      22.746   4.660  49.952  1.00  0.00     0.202 C 
HETATM   14  O4  UNL     1      21.899   4.554  51.099  1.00  0.00    -0.344 OA
ENDROOT
BRANCH   1  15
HETATM   15  N1  UNL     1      25.615   1.437  52.338  1.00  0.00    -0.340 N 
HETATM   16  H3  UNL     1      25.998   2.122  51.668  1.00  0.00     0.167 HD
BRANCH  15  17
HETATM   17  C4  UNL     1      26.824   0.868  52.838  1.00  0.00     0.035 A 
HETATM   18  C3  UNL     1      27.879   1.527  53.493  1.00  0.00     0.032 A 
HETATM   19  C2  UNL     1      29.011   0.914  53.923  1.00  0.00     0.046 A 
HETATM   20  C1  UNL     1      29.189  -0.431  53.734  1.00  0.00     0.138 A 
HETATM   21  F1  UNL     1      30.325  -0.986  54.179  1.00  0.00    -0.204 F 
HETATM   22  C21 UNL     1      28.187  -1.125  53.097  1.00  0.00     0.074 A 
HETATM   23  C20 UNL     1      27.042  -0.491  52.663  1.00  0.00     0.056 A 
HETATM   24 CL1  UNL     1      28.511  -2.846  52.900  1.00  0.00    -0.081 Cl
ENDBRANCH  15  17
ENDBRANCH   1  15
BRANCH   7  25
HETATM   25  O1  UNL     1      19.512   3.479  52.176  1.00  0.00    -0.346 OA
BRANCH  25  26
HETATM   26  C10 UNL     1      18.427   2.736  51.649  1.00  0.00     0.207 C 
BRANCH  26  27
HETATM   27  C11 UNL     1      17.884   3.367  50.384  1.00  0.00     0.145 C 
HETATM   28  C12 UNL     1      18.560   4.702  50.092  1.00  0.00     0.036 C 
HETATM   29  C13 UNL     1      19.210   4.475  48.729  1.00  0.00     0.029 C 
HETATM   30  C14 UNL     1      19.354   2.951  48.764  1.00  0.00     0.168 C 
HETATM   31  O2  UNL     1      18.123   2.575  49.265  1.00  0.00    -0.384 OA
ENDBRANCH  26  27
ENDBRANCH  25  26
ENDBRANCH   7  25
TORSDOF 5
ENDMDL
