MODEL 1
REMARK VINA RESULT:      -8.0      0.000      0.000
REMARK  7 active torsions:
REMARK  status: ('A' for Active; 'I' for Inactive)
REMARK    1  A    between atoms: O1_2  and  C2_3 
REMARK    2  A    between atoms: C5_6  and  C6_7 
REMARK    3  A    between atoms: C6_7  and  C7_8 
REMARK    4  A    between atoms: C7_8  and  O2_9 
REMARK    5  A    between atoms: O2_9  and  C8_10 
REMARK    6  A    between atoms: C8_10  and  C9_11 
REMARK    7  A    between atoms: C17_20  and  N2_21 
ROOT
HETATM    1  C9  UNL     1      24.269   1.978  51.500  1.00  0.00    -0.056 C 
HETATM    2  C10 UNL     1      25.372   1.203  51.568  1.00  0.00    -0.006 C 
HETATM    3  C11 UNL     1      25.781   1.159  52.974  1.00  0.00     0.093 A 
HETATM    4  C12 UNL     1      25.927   2.490  53.616  1.00  0.00     0.019 A 
HETATM    5  C13 UNL     1      24.846   3.259  53.514  1.00  0.00     0.004 C 
HETATM    6  C14 UNL     1      23.744   2.580  52.769  1.00  0.00     0.065 C 
HETATM    7  N1  UNL     1      27.237   2.552  54.165  1.00  0.00    -0.344 N 
HETATM    8  C15 UNL     1      27.952   1.329  53.907  1.00  0.00     0.132 A 
HETATM    9  C16 UNL     1      27.106   0.539  53.221  1.00  0.00     0.012 A 
HETATM   10  C17 UNL     1      27.382  -0.839  52.715  1.00  0.00     0.256 A 
HETATM   11  C18 UNL     1      28.772  -1.323  53.058  1.00  0.00     0.087 A 
HETATM   12  C19 UNL     1      29.562  -0.320  53.816  1.00  0.00     0.094 A 
HETATM   13  N3  UNL     1      29.258   0.864  54.218  1.00  0.00    -0.247 NA
HETATM   14  H17 UNL     1      27.594   3.387  54.678  1.00  0.00     0.167 HD
ENDROOT
BRANCH   1  15
HETATM   15  C8  UNL     1      23.569   2.249  50.214  1.00  0.00     0.202 C 
BRANCH  15  16
HETATM   16  O2  UNL     1      22.211   2.366  50.409  1.00  0.00    -0.387 OA
BRANCH  16  17
HETATM   17  C7  UNL     1      21.540   1.359  49.754  1.00  0.00     0.172 C 
BRANCH  17  18
HETATM   18  C6  UNL     1      20.461   0.843  50.699  1.00  0.00     0.064 C 
BRANCH  18  19
HETATM   19  C5  UNL     1      21.014   0.269  51.933  1.00  0.00    -0.056 A 
HETATM   20  C4  UNL     1      22.015  -0.669  52.015  1.00  0.00     0.010 A 
HETATM   21  C3  UNL     1      22.429  -1.114  53.270  1.00  0.00     0.037 A 
HETATM   22  C2  UNL     1      21.862  -0.637  54.451  1.00  0.00     0.068 A 
HETATM   23  C21 UNL     1      20.859   0.305  54.368  1.00  0.00     0.037 A 
HETATM   24  C20 UNL     1      20.452   0.742  53.120  1.00  0.00     0.010 A 
BRANCH  22  25
HETATM   25  O1  UNL     1      22.351  -1.147  55.645  1.00  0.00    -0.356 OA
HETATM   26  C1  UNL     1      23.737  -1.486  55.786  1.00  0.00     0.210 C 
ENDBRANCH  22  25
ENDBRANCH  18  19
ENDBRANCH  17  18
ENDBRANCH  16  17
ENDBRANCH  15  16
ENDBRANCH   1  15
BRANCH  10  27
HETATM   27  N2  UNL     1      26.443  -1.757  53.374  1.00  0.00     0.087 N 
HETATM   28  H19 UNL     1      26.801  -1.861  54.351  1.00  0.00     0.313 HD
HETATM   29  H20 UNL     1      26.443  -2.645  52.836  1.00  0.00     0.313 HD
ENDBRANCH  10  27
TORSDOF 7
ENDMDL
MODEL 2
REMARK VINA RESULT:      -8.0      3.015      5.369
REMARK  7 active torsions:
REMARK  status: ('A' for Active; 'I' for Inactive)
REMARK    1  A    between atoms: O1_2  and  C2_3 
REMARK    2  A    between atoms: C5_6  and  C6_7 
REMARK    3  A    between atoms: C6_7  and  C7_8 
REMARK    4  A    between atoms: C7_8  and  O2_9 
REMARK    5  A    between atoms: O2_9  and  C8_10 
REMARK    6  A    between atoms: C8_10  and  C9_11 
REMARK    7  A    between atoms: C17_20  and  N2_21 
ROOT
HETATM    1  C9  UNL     1      23.736   1.670  51.678  1.00  0.00    -0.056 C 
HETATM    2  C10 UNL     1      24.887   0.966  51.721  1.00  0.00    -0.006 C 
HETATM    3  C11 UNL     1      25.454   1.151  53.059  1.00  0.00     0.093 A 
HETATM    4  C12 UNL     1      25.587   2.567  53.483  1.00  0.00     0.019 A 
HETATM    5  C13 UNL     1      24.454   3.261  53.404  1.00  0.00     0.004 C 
HETATM    6  C14 UNL     1      23.321   2.429  52.903  1.00  0.00     0.065 C 
HETATM    7  N1  UNL     1      26.944   2.771  53.854  1.00  0.00    -0.344 N 
HETATM    8  C15 UNL     1      27.702   1.558  53.688  1.00  0.00     0.132 A 
HETATM    9  C16 UNL     1      26.836   0.637  53.229  1.00  0.00     0.012 A 
HETATM   10  C17 UNL     1      27.139  -0.788  52.895  1.00  0.00     0.256 A 
HETATM   11  C18 UNL     1      28.588  -1.149  53.132  1.00  0.00     0.087 A 
HETATM   12  C19 UNL     1      29.393  -0.009  53.638  1.00  0.00     0.094 A 
HETATM   13  N3  UNL     1      29.061   1.206  53.901  1.00  0.00    -0.247 NA
HETATM   14  H17 UNL     1      27.303   3.689  54.196  1.00  0.00     0.167 HD
ENDROOT
BRANCH   1  15
HETATM   15  C8  UNL     1      22.878   1.714  50.461  1.00  0.00     0.202 C 
BRANCH  15  16
HETATM   16  O2  UNL     1      22.277   2.945  50.329  1.00  0.00    -0.387 OA
BRANCH  16  17
HETATM   17  C7  UNL     1      22.785   3.618  49.241  1.00  0.00     0.172 C 
BRANCH  17  18
HETATM   18  C6  UNL     1      23.542   4.830  49.770  1.00  0.00     0.064 C 
BRANCH  18  19
HETATM   19  C5  UNL     1      24.970   4.803  49.423  1.00  0.00    -0.056 A 
HETATM   20  C4  UNL     1      25.829   3.746  49.602  1.00  0.00     0.010 A 
HETATM   21  C3  UNL     1      27.163   3.881  49.218  1.00  0.00     0.037 A 
HETATM   22  C2  UNL     1      27.658   5.058  48.656  1.00  0.00     0.068 A 
HETATM   23  C21 UNL     1      26.795   6.117  48.477  1.00  0.00     0.037 A 
HETATM   24  C20 UNL     1      25.473   5.977  48.860  1.00  0.00     0.010 A 
BRANCH  22  25
HETATM   25  O1  UNL     1      29.001   5.084  48.310  1.00  0.00    -0.356 OA
HETATM   26  C1  UNL     1      29.684   6.328  48.108  1.00  0.00     0.210 C 
ENDBRANCH  22  25
ENDBRANCH  18  19
ENDBRANCH  17  18
ENDBRANCH  16  17
ENDBRANCH  15  16
ENDBRANCH   1  15
BRANCH  10  27
HETATM   27  N2  UNL     1      26.341  -1.639  53.787  1.00  0.00     0.087 N 
HETATM   28  H19 UNL     1      25.955  -2.393  53.174  1.00  0.00     0.313 HD
HETATM   29  H20 UNL     1      25.609  -1.042  54.219  1.00  0.00     0.313 HD
ENDBRANCH  10  27
TORSDOF 7
ENDMDL
MODEL 3
REMARK VINA RESULT:      -7.8      2.812      6.713
REMARK  7 active torsions:
REMARK  status: ('A' for Active; 'I' for Inactive)
REMARK    1  A    between atoms: O1_2  and  C2_3 
REMARK    2  A    between atoms: C5_6  and  C6_7 
REMARK    3  A    between atoms: C6_7  and  C7_8 
REMARK    4  A    between atoms: C7_8  and  O2_9 
REMARK    5  A    between atoms: O2_9  and  C8_10 
REMARK    6  A    between atoms: C8_10  and  C9_11 
REMARK    7  A    between atoms: C17_20  and  N2_21 
ROOT
HETATM    1  C9  UNL     1      24.558  -0.815  53.628  1.00  0.00    -0.056 C 
HETATM    2  C10 UNL     1      23.507  -0.519  52.834  1.00  0.00    -0.006 C 
HETATM    3  C11 UNL     1      22.385  -0.180  53.714  1.00  0.00     0.093 A 
HETATM    4  C12 UNL     1      22.096  -1.191  54.762  1.00  0.00     0.019 A 
HETATM    5  C13 UNL     1      23.147  -1.500  55.517  1.00  0.00     0.004 C 
HETATM    6  C14 UNL     1      24.369  -0.743  55.113  1.00  0.00     0.065 C 
HETATM    7  N1  UNL     1      20.726  -1.548  54.636  1.00  0.00    -0.344 N 
HETATM    8  C15 UNL     1      20.111  -0.823  53.554  1.00  0.00     0.132 A 
HETATM    9  C16 UNL     1      21.075  -0.044  53.032  1.00  0.00     0.012 A 
HETATM   10  C17 UNL     1      20.936   0.899  51.881  1.00  0.00     0.256 A 
HETATM   11  C18 UNL     1      19.537   0.922  51.308  1.00  0.00     0.087 A 
HETATM   12  C19 UNL     1      18.610  -0.000  52.009  1.00  0.00     0.094 A 
HETATM   13  N3  UNL     1      18.802  -0.795  53.003  1.00  0.00    -0.247 NA
HETATM   14  H17 UNL     1      20.265  -2.244  55.262  1.00  0.00     0.167 HD
ENDROOT
BRANCH   1  15
HETATM   15  C8  UNL     1      25.884  -1.208  53.074  1.00  0.00     0.202 C 
BRANCH  15  16
HETATM   16  O2  UNL     1      26.901  -0.824  53.918  1.00  0.00    -0.387 OA
BRANCH  16  17
HETATM   17  C7  UNL     1      27.897  -0.185  53.215  1.00  0.00     0.172 C 
BRANCH  17  18
HETATM   18  C6  UNL     1      27.810   1.299  53.548  1.00  0.00     0.064 C 
BRANCH  18  19
HETATM   19  C5  UNL     1      26.715   1.977  52.840  1.00  0.00    -0.056 A 
HETATM   20  C4  UNL     1      26.620   2.165  51.482  1.00  0.00     0.010 A 
HETATM   21  C3  UNL     1      25.511   2.831  50.963  1.00  0.00     0.037 A 
HETATM   22  C2  UNL     1      24.489   3.316  51.778  1.00  0.00     0.068 A 
HETATM   23  C21 UNL     1      24.584   3.127  53.140  1.00  0.00     0.037 A 
HETATM   24  C20 UNL     1      25.688   2.465  53.648  1.00  0.00     0.010 A 
BRANCH  22  25
HETATM   25  O1  UNL     1      23.431   3.964  51.157  1.00  0.00    -0.356 OA
HETATM   26  C1  UNL     1      23.068   5.301  51.527  1.00  0.00     0.210 C 
ENDBRANCH  22  25
ENDBRANCH  18  19
ENDBRANCH  17  18
ENDBRANCH  16  17
ENDBRANCH  15  16
ENDBRANCH   1  15
BRANCH  10  27
HETATM   27  N2  UNL     1      21.213   2.254  52.373  1.00  0.00     0.087 N 
HETATM   28  H19 UNL     1      20.925   2.245  53.378  1.00  0.00     0.313 HD
HETATM   29  H20 UNL     1      20.663   2.917  51.792  1.00  0.00     0.313 HD
ENDBRANCH  10  27
TORSDOF 7
ENDMDL
MODEL 4
REMARK VINA RESULT:      -7.6      2.701      5.257
REMARK  7 active torsions:
REMARK  status: ('A' for Active; 'I' for Inactive)
REMARK    1  A    between atoms: O1_2  and  C2_3 
REMARK    2  A    between atoms: C5_6  and  C6_7 
REMARK    3  A    between atoms: C6_7  and  C7_8 
REMARK    4  A    between atoms: C7_8  and  O2_9 
REMARK    5  A    between atoms: O2_9  and  C8_10 
REMARK    6  A    between atoms: C8_10  and  C9_11 
REMARK    7  A    between atoms: C17_20  and  N2_21 
ROOT
HETATM    1  C9  UNL     1      22.611   1.392  52.602  1.00  0.00    -0.056 C 
HETATM    2  C10 UNL     1      23.907   1.679  52.849  1.00  0.00    -0.006 C 
HETATM    3  C11 UNL     1      24.612   0.402  52.986  1.00  0.00     0.093 A 
HETATM    4  C12 UNL     1      23.999  -0.540  53.956  1.00  0.00     0.019 A 
HETATM    5  C13 UNL     1      22.713  -0.790  53.724  1.00  0.00     0.004 C 
HETATM    6  C14 UNL     1      22.204  -0.049  52.532  1.00  0.00     0.065 C 
HETATM    7  N1  UNL     1      25.010  -0.904  54.887  1.00  0.00    -0.344 N 
HETATM    8  C15 UNL     1      26.249  -0.240  54.574  1.00  0.00     0.132 A 
HETATM    9  C16 UNL     1      26.007   0.508  53.482  1.00  0.00     0.012 A 
HETATM   10  C17 UNL     1      26.979   1.390  52.769  1.00  0.00     0.256 A 
HETATM   11  C18 UNL     1      28.353   1.376  53.398  1.00  0.00     0.087 A 
HETATM   12  C19 UNL     1      28.435   0.496  54.591  1.00  0.00     0.094 A 
HETATM   13  N3  UNL     1      27.544  -0.239  55.158  1.00  0.00    -0.247 NA
HETATM   14  H17 UNL     1      24.838  -1.565  55.676  1.00  0.00     0.167 HD
ENDROOT
BRANCH   1  15
HETATM   15  C8  UNL     1      21.588   2.456  52.404  1.00  0.00     0.202 C 
BRANCH  15  16
HETATM   16  O2  UNL     1      22.062   3.444  51.571  1.00  0.00    -0.387 OA
BRANCH  16  17
HETATM   17  C7  UNL     1      21.591   3.264  50.290  1.00  0.00     0.172 C 
BRANCH  17  18
HETATM   18  C6  UNL     1      22.739   2.702  49.459  1.00  0.00     0.064 C 
BRANCH  18  19
HETATM   19  C5  UNL     1      23.836   3.662  49.283  1.00  0.00    -0.056 A 
HETATM   20  C4  UNL     1      23.729   4.934  48.775  1.00  0.00     0.010 A 
HETATM   21  C3  UNL     1      24.872   5.725  48.672  1.00  0.00     0.037 A 
HETATM   22  C2  UNL     1      26.128   5.269  49.071  1.00  0.00     0.068 A 
HETATM   23  C21 UNL     1      26.235   3.993  49.581  1.00  0.00     0.037 A 
HETATM   24  C20 UNL     1      25.097   3.213  49.680  1.00  0.00     0.010 A 
BRANCH  22  25
HETATM   25  O1  UNL     1      27.199   6.139  48.927  1.00  0.00    -0.356 OA
HETATM   26  C1  UNL     1      28.416   5.709  48.302  1.00  0.00     0.210 C 
ENDBRANCH  22  25
ENDBRANCH  18  19
ENDBRANCH  17  18
ENDBRANCH  16  17
ENDBRANCH  15  16
ENDBRANCH   1  15
BRANCH  10  27
HETATM   27  N2  UNL     1      27.137   0.874  51.403  1.00  0.00     0.087 N 
HETATM   28  H19 UNL     1      27.753   1.565  50.918  1.00  0.00     0.313 HD
HETATM   29  H20 UNL     1      26.189   0.799  50.985  1.00  0.00     0.313 HD
ENDBRANCH  10  27
TORSDOF 7
ENDMDL
MODEL 5
REMARK VINA RESULT:      -7.4      4.918      6.607
REMARK  7 active torsions:
REMARK  status: ('A' for Active; 'I' for Inactive)
REMARK    1  A    between atoms: O1_2  and  C2_3 
REMARK    2  A    between atoms: C5_6  and  C6_7 
REMARK    3  A    between atoms: C6_7  and  C7_8 
REMARK    4  A    between atoms: C7_8  and  O2_9 
REMARK    5  A    between atoms: O2_9  and  C8_10 
REMARK    6  A    between atoms: C8_10  and  C9_11 
REMARK    7  A    between atoms: C17_20  and  N2_21 
ROOT
HETATM    1  C9  UNL     1      24.808   4.948  50.255  1.00  0.00    -0.056 C 
HETATM    2  C10 UNL     1      25.336   6.120  49.841  1.00  0.00    -0.006 C 
HETATM    3  C11 UNL     1      26.229   5.818  48.719  1.00  0.00     0.093 A 
HETATM    4  C12 UNL     1      27.232   4.759  48.997  1.00  0.00     0.019 A 
HETATM    5  C13 UNL     1      26.704   3.619  49.436  1.00  0.00     0.004 C 
HETATM    6  C14 UNL     1      25.217   3.694  49.541  1.00  0.00     0.065 C 
HETATM    7  N1  UNL     1      28.512   5.304  48.705  1.00  0.00    -0.344 N 
HETATM    8  C15 UNL     1      28.391   6.668  48.257  1.00  0.00     0.132 A 
HETATM    9  C16 UNL     1      27.076   6.950  48.272  1.00  0.00     0.012 A 
HETATM   10  C17 UNL     1      26.436   8.246  47.893  1.00  0.00     0.256 A 
HETATM   11  C18 UNL     1      27.439   9.289  47.454  1.00  0.00     0.087 A 
HETATM   12  C19 UNL     1      28.840   8.800  47.502  1.00  0.00     0.094 A 
HETATM   13  N3  UNL     1      29.323   7.658  47.847  1.00  0.00    -0.247 NA
HETATM   14  H17 UNL     1      29.395   4.759  48.814  1.00  0.00     0.167 HD
ENDROOT
BRANCH   1  15
HETATM   15  C8  UNL     1      23.845   4.869  51.388  1.00  0.00     0.202 C 
BRANCH  15  16
HETATM   16  O2  UNL     1      23.077   3.730  51.300  1.00  0.00    -0.387 OA
BRANCH  16  17
HETATM   17  C7  UNL     1      23.220   2.961  52.433  1.00  0.00     0.172 C 
BRANCH  17  18
HETATM   18  C6  UNL     1      23.272   1.504  51.990  1.00  0.00     0.064 C 
BRANCH  18  19
HETATM   19  C5  UNL     1      24.430   0.785  52.539  1.00  0.00    -0.056 A 
HETATM   20  C4  UNL     1      24.408  -0.119  53.573  1.00  0.00     0.010 A 
HETATM   21  C3  UNL     1      25.600  -0.719  53.979  1.00  0.00     0.037 A 
HETATM   22  C2  UNL     1      26.820  -0.432  53.368  1.00  0.00     0.068 A 
HETATM   23  C21 UNL     1      26.841   0.475  52.331  1.00  0.00     0.037 A 
HETATM   24  C20 UNL     1      25.655   1.067  51.933  1.00  0.00     0.010 A 
BRANCH  22  25
HETATM   25  O1  UNL     1      27.944  -1.086  53.850  1.00  0.00    -0.356 OA
HETATM   26  C1  UNL     1      29.104  -0.349  54.260  1.00  0.00     0.210 C 
ENDBRANCH  22  25
ENDBRANCH  18  19
ENDBRANCH  17  18
ENDBRANCH  16  17
ENDBRANCH  15  16
ENDBRANCH   1  15
BRANCH  10  27
HETATM   27  N2  UNL     1      25.558   7.996  46.742  1.00  0.00     0.087 N 
HETATM   28  H19 UNL     1      25.950   8.577  45.967  1.00  0.00     0.313 HD
HETATM   29  H20 UNL     1      24.595   8.269  47.017  1.00  0.00     0.313 HD
ENDBRANCH  10  27
TORSDOF 7
ENDMDL
MODEL 6
REMARK VINA RESULT:      -7.3      1.986      4.290
REMARK  7 active torsions:
REMARK  status: ('A' for Active; 'I' for Inactive)
REMARK    1  A    between atoms: O1_2  and  C2_3 
REMARK    2  A    between atoms: C5_6  and  C6_7 
REMARK    3  A    between atoms: C6_7  and  C7_8 
REMARK    4  A    between atoms: C7_8  and  O2_9 
REMARK    5  A    between atoms: O2_9  and  C8_10 
REMARK    6  A    between atoms: C8_10  and  C9_11 
REMARK    7  A    between atoms: C17_20  and  N2_21 
ROOT
HETATM    1  C9  UNL     1      22.251  -0.334  53.356  1.00  0.00    -0.056 C 
HETATM    2  C10 UNL     1      23.425   0.294  53.134  1.00  0.00    -0.006 C 
HETATM    3  C11 UNL     1      24.480  -0.554  53.693  1.00  0.00     0.093 A 
HETATM    4  C12 UNL     1      24.262  -0.962  55.103  1.00  0.00     0.019 A 
HETATM    5  C13 UNL     1      23.088  -1.550  55.318  1.00  0.00     0.004 C 
HETATM    6  C14 UNL     1      22.275  -1.653  54.070  1.00  0.00     0.065 C 
HETATM    7  N1  UNL     1      25.418  -0.579  55.837  1.00  0.00    -0.344 N 
HETATM    8  C15 UNL     1      26.376   0.062  54.973  1.00  0.00     0.132 A 
HETATM    9  C16 UNL     1      25.824   0.072  53.747  1.00  0.00     0.012 A 
HETATM   10  C17 UNL     1      26.427   0.634  52.500  1.00  0.00     0.256 A 
HETATM   11  C18 UNL     1      27.799   1.226  52.728  1.00  0.00     0.087 A 
HETATM   12  C19 UNL     1      28.244   1.126  54.141  1.00  0.00     0.094 A 
HETATM   13  N3  UNL     1      27.663   0.627  55.174  1.00  0.00    -0.247 NA
HETATM   14  H17 UNL     1      25.521  -0.757  56.860  1.00  0.00     0.167 HD
ENDROOT
BRANCH   1  15
HETATM   15  C8  UNL     1      20.949   0.241  52.918  1.00  0.00     0.202 C 
BRANCH  15  16
HETATM   16  O2  UNL     1      20.791   1.520  53.401  1.00  0.00    -0.387 OA
BRANCH  16  17
HETATM   17  C7  UNL     1      20.083   2.291  52.506  1.00  0.00     0.172 C 
BRANCH  17  18
HETATM   18  C6  UNL     1      20.865   3.583  52.301  1.00  0.00     0.064 C 
BRANCH  18  19
HETATM   19  C5  UNL     1      22.117   3.377  51.559  1.00  0.00    -0.056 A 
HETATM   20  C4  UNL     1      22.246   2.755  50.341  1.00  0.00     0.010 A 
HETATM   21  C3  UNL     1      23.511   2.640  49.767  1.00  0.00     0.037 A 
HETATM   22  C2  UNL     1      24.656   3.137  50.388  1.00  0.00     0.068 A 
HETATM   23  C21 UNL     1      24.526   3.760  51.610  1.00  0.00     0.037 A 
HETATM   24  C20 UNL     1      23.268   3.872  52.175  1.00  0.00     0.010 A 
BRANCH  22  25
HETATM   25  O1  UNL     1      25.864   2.968  49.728  1.00  0.00    -0.356 OA
HETATM   26  C1  UNL     1      26.697   4.095  49.420  1.00  0.00     0.210 C 
ENDBRANCH  22  25
ENDBRANCH  18  19
ENDBRANCH  17  18
ENDBRANCH  16  17
ENDBRANCH  15  16
ENDBRANCH   1  15
BRANCH  10  27
HETATM   27  N2  UNL     1      26.598  -0.469  51.546  1.00  0.00     0.087 N 
HETATM   28  H19 UNL     1      25.889  -0.296  50.797  1.00  0.00     0.313 HD
HETATM   29  H20 UNL     1      26.445  -1.357  52.062  1.00  0.00     0.313 HD
ENDBRANCH  10  27
TORSDOF 7
ENDMDL
MODEL 7
REMARK VINA RESULT:      -7.2      2.461      4.887
REMARK  7 active torsions:
REMARK  status: ('A' for Active; 'I' for Inactive)
REMARK    1  A    between atoms: O1_2  and  C2_3 
REMARK    2  A    between atoms: C5_6  and  C6_7 
REMARK    3  A    between atoms: C6_7  and  C7_8 
REMARK    4  A    between atoms: C7_8  and  O2_9 
REMARK    5  A    between atoms: O2_9  and  C8_10 
REMARK    6  A    between atoms: C8_10  and  C9_11 
REMARK    7  A    between atoms: C17_20  and  N2_21 
ROOT
HETATM    1  C9  UNL     1      21.263   1.692  51.367  1.00  0.00    -0.056 C 
HETATM    2  C10 UNL     1      22.428   1.047  51.588  1.00  0.00    -0.006 C 
HETATM    3  C11 UNL     1      23.048   1.668  52.761  1.00  0.00     0.093 A 
HETATM    4  C12 UNL     1      23.173   3.145  52.684  1.00  0.00     0.019 A 
HETATM    5  C13 UNL     1      22.025   3.770  52.431  1.00  0.00     0.004 C 
HETATM    6  C14 UNL     1      20.887   2.815  52.287  1.00  0.00     0.065 C 
HETATM    7  N1  UNL     1      24.540   3.465  52.903  1.00  0.00    -0.344 N 
HETATM    8  C15 UNL     1      25.313   2.268  53.115  1.00  0.00     0.132 A 
HETATM    9  C16 UNL     1      24.445   1.244  53.029  1.00  0.00     0.012 A 
HETATM   10  C17 UNL     1      24.760  -0.209  53.173  1.00  0.00     0.256 A 
HETATM   11  C18 UNL     1      26.223  -0.467  53.450  1.00  0.00     0.087 A 
HETATM   12  C19 UNL     1      27.028   0.779  53.511  1.00  0.00     0.094 A 
HETATM   13  N3  UNL     1      26.686   2.011  53.371  1.00  0.00    -0.247 NA
HETATM   14  H17 UNL     1      24.897   4.446  52.904  1.00  0.00     0.167 HD
ENDROOT
BRANCH   1  15
HETATM   15  C8  UNL     1      20.355   1.326  50.245  1.00  0.00     0.202 C 
BRANCH  15  16
HETATM   16  O2  UNL     1      21.075   0.957  49.131  1.00  0.00    -0.387 OA
BRANCH  16  17
HETATM   17  C7  UNL     1      21.146   1.998  48.233  1.00  0.00     0.172 C 
BRANCH  17  18
HETATM   18  C6  UNL     1      22.615   2.191  47.876  1.00  0.00     0.064 C 
BRANCH  18  19
HETATM   19  C5  UNL     1      23.231   3.313  48.597  1.00  0.00    -0.056 A 
HETATM   20  C4  UNL     1      24.490   3.332  49.147  1.00  0.00     0.010 A 
HETATM   21  C3  UNL     1      24.930   4.481  49.802  1.00  0.00     0.037 A 
HETATM   22  C2  UNL     1      24.133   5.619  49.919  1.00  0.00     0.068 A 
HETATM   23  C21 UNL     1      22.871   5.600  49.368  1.00  0.00     0.037 A 
HETATM   24  C20 UNL     1      22.440   4.457  48.718  1.00  0.00     0.010 A 
BRANCH  22  25
HETATM   25  O1  UNL     1      24.670   6.708  50.591  1.00  0.00    -0.356 OA
HETATM   26  C1  UNL     1      23.904   7.905  50.781  1.00  0.00     0.210 C 
ENDBRANCH  22  25
ENDBRANCH  18  19
ENDBRANCH  17  18
ENDBRANCH  16  17
ENDBRANCH  15  16
ENDBRANCH   1  15
BRANCH  10  27
HETATM   27  N2  UNL     1      24.016  -0.718  54.333  1.00  0.00     0.087 N 
HETATM   28  H19 UNL     1      23.009  -0.674  54.054  1.00  0.00     0.313 HD
HETATM   29  H20 UNL     1      24.248  -0.113  55.144  1.00  0.00     0.313 HD
ENDBRANCH  10  27
TORSDOF 7
ENDMDL
MODEL 8
REMARK VINA RESULT:      -6.9      3.274      5.905
REMARK  7 active torsions:
REMARK  status: ('A' for Active; 'I' for Inactive)
REMARK    1  A    between atoms: O1_2  and  C2_3 
REMARK    2  A    between atoms: C5_6  and  C6_7 
REMARK    3  A    between atoms: C6_7  and  C7_8 
REMARK    4  A    between atoms: C7_8  and  O2_9 
REMARK    5  A    between atoms: O2_9  and  C8_10 
REMARK    6  A    between atoms: C8_10  and  C9_11 
REMARK    7  A    between atoms: C17_20  and  N2_21 
ROOT
HETATM    1  C9  UNL     1      22.475   2.815  52.171  1.00  0.00    -0.056 C 
HETATM    2  C10 UNL     1      23.684   2.738  52.767  1.00  0.00    -0.006 C 
HETATM    3  C11 UNL     1      24.215   1.401  52.492  1.00  0.00     0.093 A 
HETATM    4  C12 UNL     1      23.293   0.289  52.834  1.00  0.00     0.019 A 
HETATM    5  C13 UNL     1      22.093   0.391  52.268  1.00  0.00     0.004 C 
HETATM    6  C14 UNL     1      21.974   1.616  51.422  1.00  0.00     0.065 C 
HETATM    7  N1  UNL     1      23.993  -0.588  53.706  1.00  0.00    -0.344 N 
HETATM    8  C15 UNL     1      25.325  -0.097  53.954  1.00  0.00     0.132 A 
HETATM    9  C16 UNL     1      25.438   1.045  53.253  1.00  0.00     0.012 A 
HETATM   10  C17 UNL     1      26.635   1.937  53.184  1.00  0.00     0.256 A 
HETATM   11  C18 UNL     1      27.794   1.426  54.009  1.00  0.00     0.087 A 
HETATM   12  C19 UNL     1      27.488   0.155  54.712  1.00  0.00     0.094 A 
HETATM   13  N3  UNL     1      26.421  -0.563  54.728  1.00  0.00    -0.247 NA
HETATM   14  H17 UNL     1      23.567  -1.458  54.093  1.00  0.00     0.167 HD
ENDROOT
BRANCH   1  15
HETATM   15  C8  UNL     1      21.634   4.043  52.239  1.00  0.00     0.202 C 
BRANCH  15  16
HETATM   16  O2  UNL     1      21.198   4.408  50.985  1.00  0.00    -0.387 OA
BRANCH  16  17
HETATM   17  C7  UNL     1      22.035   5.354  50.438  1.00  0.00     0.172 C 
BRANCH  17  18
HETATM   18  C6  UNL     1      22.677   4.733  49.203  1.00  0.00     0.064 C 
BRANCH  18  19
HETATM   19  C5  UNL     1      24.058   5.186  48.992  1.00  0.00    -0.056 A 
HETATM   20  C4  UNL     1      24.445   6.394  48.463  1.00  0.00     0.010 A 
HETATM   21  C3  UNL     1      25.803   6.675  48.328  1.00  0.00     0.037 A 
HETATM   22  C2  UNL     1      26.790   5.767  48.713  1.00  0.00     0.068 A 
HETATM   23  C21 UNL     1      26.402   4.556  49.244  1.00  0.00     0.037 A 
HETATM   24  C20 UNL     1      25.052   4.284  49.375  1.00  0.00     0.010 A 
BRANCH  22  25
HETATM   25  O1  UNL     1      28.112   6.149  48.535  1.00  0.00    -0.356 OA
HETATM   26  C1  UNL     1      28.513   7.514  48.716  1.00  0.00     0.210 C 
ENDBRANCH  22  25
ENDBRANCH  18  19
ENDBRANCH  17  18
ENDBRANCH  16  17
ENDBRANCH  15  16
ENDBRANCH   1  15
BRANCH  10  27
HETATM   27  N2  UNL     1      27.093   1.970  51.789  1.00  0.00     0.087 N 
HETATM   28  H19 UNL     1      26.236   2.170  51.224  1.00  0.00     0.313 HD
HETATM   29  H20 UNL     1      27.521   1.047  51.578  1.00  0.00     0.313 HD
ENDBRANCH  10  27
TORSDOF 7
ENDMDL
MODEL 9
REMARK VINA RESULT:      -6.9      4.591      7.627
REMARK  7 active torsions:
REMARK  status: ('A' for Active; 'I' for Inactive)
REMARK    1  A    between atoms: O1_2  and  C2_3 
REMARK    2  A    between atoms: C5_6  and  C6_7 
REMARK    3  A    between atoms: C6_7  and  C7_8 
REMARK    4  A    between atoms: C7_8  and  O2_9 
REMARK    5  A    between atoms: O2_9  and  C8_10 
REMARK    6  A    between atoms: C8_10  and  C9_11 
REMARK    7  A    between atoms: C17_20  and  N2_21 
ROOT
HETATM    1  C9  UNL     1      23.218   2.495  50.999  1.00  0.00    -0.056 C 
HETATM    2  C10 UNL     1      23.656   1.933  52.146  1.00  0.00    -0.006 C 
HETATM    3  C11 UNL     1      23.197   0.542  52.147  1.00  0.00     0.093 A 
HETATM    4  C12 UNL     1      21.744   0.372  51.898  1.00  0.00     0.019 A 
HETATM    5  C13 UNL     1      21.316   0.957  50.783  1.00  0.00     0.004 C 
HETATM    6  C14 UNL     1      22.420   1.648  50.053  1.00  0.00     0.065 C 
HETATM    7  N1  UNL     1      21.218  -0.392  52.976  1.00  0.00    -0.344 N 
HETATM    8  C15 UNL     1      22.258  -0.722  53.917  1.00  0.00     0.132 A 
HETATM    9  C16 UNL     1      23.388  -0.178  53.430  1.00  0.00     0.012 A 
HETATM   10  C17 UNL     1      24.748  -0.239  54.047  1.00  0.00     0.256 A 
HETATM   11  C18 UNL     1      24.768  -1.016  55.343  1.00  0.00     0.087 A 
HETATM   12  C19 UNL     1      23.433  -1.542  55.724  1.00  0.00     0.094 A 
HETATM   13  N3  UNL     1      22.291  -1.445  55.139  1.00  0.00    -0.247 NA
HETATM   14  H17 UNL     1      20.211  -0.658  53.041  1.00  0.00     0.167 HD
ENDROOT
BRANCH   1  15
HETATM   15  C8  UNL     1      23.500   3.916  50.653  1.00  0.00     0.202 C 
BRANCH  15  16
HETATM   16  O2  UNL     1      24.753   4.286  51.086  1.00  0.00    -0.387 OA
BRANCH  16  17
HETATM   17  C7  UNL     1      25.678   4.133  50.077  1.00  0.00     0.172 C 
BRANCH  17  18
HETATM   18  C6  UNL     1      25.414   5.226  49.049  1.00  0.00     0.064 C 
BRANCH  18  19
HETATM   19  C5  UNL     1      26.649   5.831  48.533  1.00  0.00    -0.056 A 
HETATM   20  C4  UNL     1      26.777   7.093  48.004  1.00  0.00     0.010 A 
HETATM   21  C3  UNL     1      28.026   7.520  47.556  1.00  0.00     0.037 A 
HETATM   22  C2  UNL     1      29.157   6.708  47.627  1.00  0.00     0.068 A 
HETATM   23  C21 UNL     1      29.029   5.443  48.158  1.00  0.00     0.037 A 
HETATM   24  C20 UNL     1      27.786   5.025  48.601  1.00  0.00     0.010 A 
BRANCH  22  25
HETATM   25  O1  UNL     1      30.351   7.233  47.154  1.00  0.00    -0.356 OA
HETATM   26  C1  UNL     1      30.356   8.344  46.247  1.00  0.00     0.210 C 
ENDBRANCH  22  25
ENDBRANCH  18  19
ENDBRANCH  17  18
ENDBRANCH  16  17
ENDBRANCH  15  16
ENDBRANCH   1  15
BRANCH  10  27
HETATM   27  N2  UNL     1      25.633  -0.951  53.116  1.00  0.00     0.087 N 
HETATM   28  H19 UNL     1      26.403  -0.277  52.901  1.00  0.00     0.313 HD
HETATM   29  H20 UNL     1      25.069  -1.212  52.284  1.00  0.00     0.313 HD
ENDBRANCH  10  27
TORSDOF 7
ENDMDL
