MODEL 1
REMARK VINA RESULT:      -8.3      0.000      0.000
REMARK  4 active torsions:
REMARK  status: ('A' for Active; 'I' for Inactive)
REMARK    1  A    between atoms: O1_2  and  C2_3 
REMARK       I    between atoms: C2_3  and  N1_5 
REMARK    2  A    between atoms: C6_9  and  C7_10 
REMARK    3  A    between atoms: C8_11  and  C9_12 
REMARK    4  A    between atoms: C13_18  and  N4_19 
ROOT
HETATM    1  C9  UNL     1      24.267   3.423  51.053  1.00  0.00     0.061 A 
HETATM    2  C10 UNL     1      22.998   2.824  51.126  1.00  0.00     0.061 A 
HETATM    3  C11 UNL     1      22.851   1.655  51.773  1.00  0.00     0.081 A 
HETATM    4  N2  UNL     1      21.714   0.958  51.921  1.00  0.00    -0.241 NA
HETATM    5  C12 UNL     1      21.671  -0.192  52.570  1.00  0.00     0.236 A 
HETATM    6  N3  UNL     1      22.696  -0.822  53.157  1.00  0.00    -0.222 NA
HETATM    7  C13 UNL     1      23.896  -0.246  53.094  1.00  0.00     0.154 A 
HETATM    8  C21 UNL     1      23.967   1.002  52.395  1.00  0.00     0.081 A 
HETATM    9  S1  UNL     1      25.365   2.198  52.004  1.00  0.00    -0.075 SA
ENDROOT
BRANCH   1  10
HETATM   10  C8  UNL     1      24.785   4.618  50.460  1.00  0.00    -0.057 C 
HETATM   11  C7  UNL     1      25.195   5.615  49.969  1.00  0.00    -0.075 C 
BRANCH  11  12
HETATM   12  C6  UNL     1      25.675   6.824  49.355  1.00  0.00     0.169 C 
HETATM   13  N1  UNL     1      26.951   6.578  48.722  1.00  0.00    -0.313 N 
HETATM   14  C2  UNL     1      27.809   5.430  48.531  1.00  0.00     0.363 C 
HETATM   15  C3  UNL     1      27.161   7.972  48.265  1.00  0.00     0.129 C 
HETATM   16  O2  UNL     1      27.925   4.207  48.762  1.00  0.00    -0.238 OA
HETATM   17  C4  UNL     1      27.138   8.697  49.612  1.00  0.00     0.023 C 
HETATM   18  C5  UNL     1      26.040   7.921  50.366  1.00  0.00     0.040 C 
BRANCH  14  19
HETATM   19  O1  UNL     1      28.968   5.758  47.819  1.00  0.00    -0.309 OA
HETATM   20  C1  UNL     1      30.239   5.796  48.388  1.00  0.00     0.215 C 
ENDBRANCH  14  19
ENDBRANCH  11  12
ENDBRANCH   1  10
BRANCH   7  21
HETATM   21  N4  UNL     1      25.148  -0.676  53.597  1.00  0.00    -0.316 N 
HETATM   22  C14 UNL     1      25.807  -1.658  52.760  1.00  0.00     0.110 C 
HETATM   23  C15 UNL     1      27.065  -2.016  52.616  1.00  0.00    -0.007 C 
HETATM   24  C16 UNL     1      28.044  -1.127  52.525  1.00  0.00     0.037 C 
HETATM   25  C17 UNL     1      28.586  -0.374  53.676  1.00  0.00     0.035 C 
HETATM   26 CL1  UNL     1      30.324  -0.118  53.601  1.00  0.00    -0.084 Cl
HETATM   27  C18 UNL     1      28.119   0.190  54.794  1.00  0.00     0.025 C 
HETATM   28  C19 UNL     1      26.749   0.281  55.355  1.00  0.00     0.019 C 
HETATM   29  C20 UNL     1      25.556  -0.078  54.846  1.00  0.00     0.098 C 
ENDBRANCH   7  21
TORSDOF 4
ENDMDL
MODEL 2
REMARK VINA RESULT:      -8.1      3.703      9.396
REMARK  4 active torsions:
REMARK  status: ('A' for Active; 'I' for Inactive)
REMARK    1  A    between atoms: O1_2  and  C2_3 
REMARK       I    between atoms: C2_3  and  N1_5 
REMARK    2  A    between atoms: C6_9  and  C7_10 
REMARK    3  A    between atoms: C8_11  and  C9_12 
REMARK    4  A    between atoms: C13_18  and  N4_19 
ROOT
HETATM    1  C9  UNL     1      27.763   5.654  48.440  1.00  0.00     0.061 A 
HETATM    2  C10 UNL     1      27.392   6.930  47.984  1.00  0.00     0.061 A 
HETATM    3  C11 UNL     1      28.317   7.730  47.426  1.00  0.00     0.081 A 
HETATM    4  N2  UNL     1      28.123   8.972  46.954  1.00  0.00    -0.241 NA
HETATM    5  C12 UNL     1      29.101   9.688  46.428  1.00  0.00     0.236 A 
HETATM    6  N3  UNL     1      30.379   9.317  46.285  1.00  0.00    -0.222 NA
HETATM    7  C13 UNL     1      30.724   8.102  46.709  1.00  0.00     0.154 A 
HETATM    8  C21 UNL     1      29.680   7.308  47.283  1.00  0.00     0.081 A 
HETATM    9  S1  UNL     1      29.617   5.584  48.030  1.00  0.00    -0.075 SA
ENDROOT
BRANCH   1  10
HETATM   10  C8  UNL     1      27.074   4.570  49.074  1.00  0.00    -0.057 C 
HETATM   11  C7  UNL     1      26.502   3.686  49.615  1.00  0.00    -0.075 C 
BRANCH  11  12
HETATM   12  C6  UNL     1      25.823   2.614  50.293  1.00  0.00     0.169 C 
HETATM   13  N1  UNL     1      24.742   3.147  51.091  1.00  0.00    -0.313 N 
HETATM   14  C2  UNL     1      24.177   4.456  51.329  1.00  0.00     0.363 C 
HETATM   15  C3  UNL     1      24.320   1.844  51.658  1.00  0.00     0.129 C 
HETATM   16  O2  UNL     1      24.277   5.668  51.035  1.00  0.00    -0.238 OA
HETATM   17  C4  UNL     1      25.616   1.430  52.358  1.00  0.00     0.023 C 
HETATM   18  C5  UNL     1      26.682   1.922  51.360  1.00  0.00     0.040 C 
BRANCH  14  19
HETATM   19  O1  UNL     1      23.100   4.406  52.221  1.00  0.00    -0.309 OA
HETATM   20  C1  UNL     1      21.777   4.633  51.847  1.00  0.00     0.215 C 
ENDBRANCH  14  19
ENDBRANCH  11  12
ENDBRANCH   1  10
BRANCH   7  21
HETATM   21  N4  UNL     1      31.983   7.452  46.706  1.00  0.00    -0.316 N 
HETATM   22  C14 UNL     1      32.740   7.642  47.926  1.00  0.00     0.110 C 
HETATM   23  C15 UNL     1      33.703   6.953  48.501  1.00  0.00    -0.007 C 
HETATM   24  C16 UNL     1      33.656   5.633  48.611  1.00  0.00     0.037 C 
HETATM   25  C17 UNL     1      33.912   4.700  47.494  1.00  0.00     0.035 C 
HETATM   26 CL1  UNL     1      34.773   3.242  47.970  1.00  0.00    -0.084 Cl
HETATM   27  C18 UNL     1      33.669   4.643  46.181  1.00  0.00     0.025 C 
HETATM   28  C19 UNL     1      32.982   5.583  45.263  1.00  0.00     0.019 C 
HETATM   29  C20 UNL     1      32.302   6.720  45.503  1.00  0.00     0.098 C 
ENDBRANCH   7  21
TORSDOF 4
ENDMDL
MODEL 3
REMARK VINA RESULT:      -8.0      3.218      8.525
REMARK  4 active torsions:
REMARK  status: ('A' for Active; 'I' for Inactive)
REMARK    1  A    between atoms: O1_2  and  C2_3 
REMARK       I    between atoms: C2_3  and  N1_5 
REMARK    2  A    between atoms: C6_9  and  C7_10 
REMARK    3  A    between atoms: C8_11  and  C9_12 
REMARK    4  A    between atoms: C13_18  and  N4_19 
ROOT
HETATM    1  C9  UNL     1      23.505   3.786  50.440  1.00  0.00     0.061 A 
HETATM    2  C10 UNL     1      22.793   4.365  49.376  1.00  0.00     0.061 A 
HETATM    3  C11 UNL     1      23.354   5.359  48.666  1.00  0.00     0.081 A 
HETATM    4  N2  UNL     1      22.802   6.017  47.634  1.00  0.00    -0.241 NA
HETATM    5  C12 UNL     1      23.432   6.991  47.001  1.00  0.00     0.236 A 
HETATM    6  N3  UNL     1      24.657   7.461  47.267  1.00  0.00    -0.222 NA
HETATM    7  C13 UNL     1      25.331   6.903  48.271  1.00  0.00     0.154 A 
HETATM    8  C21 UNL     1      24.669   5.844  48.971  1.00  0.00     0.081 A 
HETATM    9  S1  UNL     1      25.140   4.754  50.429  1.00  0.00    -0.075 SA
ENDROOT
BRANCH   1  10
HETATM   10  C8  UNL     1      23.232   2.750  51.390  1.00  0.00    -0.057 C 
HETATM   11  C7  UNL     1      22.988   1.903  52.181  1.00  0.00    -0.075 C 
BRANCH  11  12
HETATM   12  C6  UNL     1      22.689   0.892  53.160  1.00  0.00     0.169 C 
HETATM   13  N1  UNL     1      23.846   0.050  53.363  1.00  0.00    -0.313 N 
HETATM   14  C2  UNL     1      25.201   0.013  52.862  1.00  0.00     0.363 C 
HETATM   15  C3  UNL     1      23.198  -0.860  54.337  1.00  0.00     0.129 C 
HETATM   16  O2  UNL     1      26.011   0.583  52.098  1.00  0.00    -0.238 OA
HETATM   17  C4  UNL     1      22.047  -1.388  53.478  1.00  0.00     0.023 C 
HETATM   18  C5  UNL     1      21.645  -0.129  52.686  1.00  0.00     0.040 C 
BRANCH  14  19
HETATM   19  O1  UNL     1      25.932  -1.048  53.409  1.00  0.00    -0.309 OA
HETATM   20  C1  UNL     1      26.884  -1.775  52.700  1.00  0.00     0.215 C 
ENDBRANCH  14  19
ENDBRANCH  11  12
ENDBRANCH   1  10
BRANCH   7  21
HETATM   21  N4  UNL     1      26.617   7.196  48.788  1.00  0.00    -0.316 N 
HETATM   22  C14 UNL     1      27.667   6.356  48.251  1.00  0.00     0.110 C 
HETATM   23  C15 UNL     1      28.969   6.512  48.133  1.00  0.00    -0.007 C 
HETATM   24  C16 UNL     1      29.507   7.643  47.699  1.00  0.00     0.037 C 
HETATM   25  C17 UNL     1      29.623   8.869  48.515  1.00  0.00     0.035 C 
HETATM   26 CL1  UNL     1      31.109   9.768  48.236  1.00  0.00    -0.084 Cl
HETATM   27  C18 UNL     1      28.900   9.515  49.435  1.00  0.00     0.025 C 
HETATM   28  C19 UNL     1      27.579   9.217  50.039  1.00  0.00     0.019 C 
HETATM   29  C20 UNL     1      26.668   8.266  49.756  1.00  0.00     0.098 C 
ENDBRANCH   7  21
TORSDOF 4
ENDMDL
MODEL 4
REMARK VINA RESULT:      -7.7      1.802      2.309
REMARK  4 active torsions:
REMARK  status: ('A' for Active; 'I' for Inactive)
REMARK    1  A    between atoms: O1_2  and  C2_3 
REMARK       I    between atoms: C2_3  and  N1_5 
REMARK    2  A    between atoms: C6_9  and  C7_10 
REMARK    3  A    between atoms: C8_11  and  C9_12 
REMARK    4  A    between atoms: C13_18  and  N4_19 
ROOT
HETATM    1  C9  UNL     1      24.674   3.403  50.895  1.00  0.00     0.061 A 
HETATM    2  C10 UNL     1      23.379   2.861  50.936  1.00  0.00     0.061 A 
HETATM    3  C11 UNL     1      23.159   1.713  51.600  1.00  0.00     0.081 A 
HETATM    4  N2  UNL     1      21.988   1.069  51.722  1.00  0.00    -0.241 NA
HETATM    5  C12 UNL     1      21.873  -0.064  52.391  1.00  0.00     0.236 A 
HETATM    6  N3  UNL     1      22.849  -0.725  53.026  1.00  0.00    -0.222 NA
HETATM    7  C13 UNL     1      24.074  -0.203  52.993  1.00  0.00     0.154 A 
HETATM    8  C21 UNL     1      24.224   1.026  52.273  1.00  0.00     0.081 A 
HETATM    9  S1  UNL     1      25.685   2.151  51.907  1.00  0.00    -0.075 SA
ENDROOT
BRANCH   1  10
HETATM   10  C8  UNL     1      25.265   4.562  50.297  1.00  0.00    -0.057 C 
HETATM   11  C7  UNL     1      25.761   5.508  49.787  1.00  0.00    -0.075 C 
BRANCH  11  12
HETATM   12  C6  UNL     1      26.388   6.647  49.170  1.00  0.00     0.169 C 
HETATM   13  N1  UNL     1      25.486   7.241  48.209  1.00  0.00    -0.313 N 
HETATM   14  C2  UNL     1      24.132   6.992  47.768  1.00  0.00     0.363 C 
HETATM   15  C3  UNL     1      26.425   8.293  47.754  1.00  0.00     0.129 C 
HETATM   16  O2  UNL     1      23.136   6.253  47.931  1.00  0.00    -0.238 OA
HETATM   17  C4  UNL     1      27.572   7.418  47.242  1.00  0.00     0.023 C 
HETATM   18  C5  UNL     1      27.585   6.281  48.282  1.00  0.00     0.040 C 
BRANCH  14  19
HETATM   19  O1  UNL     1      23.729   7.899  46.781  1.00  0.00    -0.309 OA
HETATM   20  C1  UNL     1      23.773   7.625  45.417  1.00  0.00     0.215 C 
ENDBRANCH  14  19
ENDBRANCH  11  12
ENDBRANCH   1  10
BRANCH   7  21
HETATM   21  N4  UNL     1      25.289  -0.676  53.546  1.00  0.00    -0.316 N 
HETATM   22  C14 UNL     1      25.926  -1.710  52.758  1.00  0.00     0.110 C 
HETATM   23  C15 UNL     1      27.170  -2.130  52.664  1.00  0.00    -0.007 C 
HETATM   24  C16 UNL     1      28.192  -1.291  52.581  1.00  0.00     0.037 C 
HETATM   25  C17 UNL     1      28.733  -0.531  53.727  1.00  0.00     0.035 C 
HETATM   26 CL1  UNL     1      30.483  -0.358  53.702  1.00  0.00    -0.084 Cl
HETATM   27  C18 UNL     1      28.259   0.085  54.815  1.00  0.00     0.025 C 
HETATM   28  C19 UNL     1      26.879   0.255  55.329  1.00  0.00     0.019 C 
HETATM   29  C20 UNL     1      25.686  -0.063  54.792  1.00  0.00     0.098 C 
ENDBRANCH   7  21
TORSDOF 4
ENDMDL
MODEL 5
REMARK VINA RESULT:      -7.7      4.542      7.462
REMARK  4 active torsions:
REMARK  status: ('A' for Active; 'I' for Inactive)
REMARK    1  A    between atoms: O1_2  and  C2_3 
REMARK       I    between atoms: C2_3  and  N1_5 
REMARK    2  A    between atoms: C6_9  and  C7_10 
REMARK    3  A    between atoms: C8_11  and  C9_12 
REMARK    4  A    between atoms: C13_18  and  N4_19 
ROOT
HETATM    1  C9  UNL     1      28.456   6.332  47.974  1.00  0.00     0.061 A 
HETATM    2  C10 UNL     1      27.918   7.532  47.480  1.00  0.00     0.061 A 
HETATM    3  C11 UNL     1      26.617   7.808  47.681  1.00  0.00     0.081 A 
HETATM    4  N2  UNL     1      25.957   8.900  47.266  1.00  0.00    -0.241 NA
HETATM    5  C12 UNL     1      24.670   9.079  47.506  1.00  0.00     0.236 A 
HETATM    6  N3  UNL     1      23.853   8.249  48.165  1.00  0.00    -0.222 NA
HETATM    7  C13 UNL     1      24.370   7.117  48.640  1.00  0.00     0.154 A 
HETATM    8  C21 UNL     1      25.763   6.901  48.393  1.00  0.00     0.081 A 
HETATM    9  S1  UNL     1      26.960   5.512  48.812  1.00  0.00    -0.075 SA
ENDROOT
BRANCH   1  10
HETATM   10  C8  UNL     1      29.750   5.719  47.942  1.00  0.00    -0.057 C 
HETATM   11  C7  UNL     1      30.822   5.220  47.896  1.00  0.00    -0.075 C 
BRANCH  11  12
HETATM   12  C6  UNL     1      32.120   4.602  47.819  1.00  0.00     0.169 C 
HETATM   13  N1  UNL     1      33.143   5.569  48.148  1.00  0.00    -0.313 N 
HETATM   14  C2  UNL     1      33.165   6.954  48.562  1.00  0.00     0.363 C 
HETATM   15  C3  UNL     1      34.287   4.654  47.927  1.00  0.00     0.129 C 
HETATM   16  O2  UNL     1      32.443   7.940  48.827  1.00  0.00    -0.238 OA
HETATM   17  C4  UNL     1      34.060   4.297  46.457  1.00  0.00     0.023 C 
HETATM   18  C5  UNL     1      32.523   4.199  46.394  1.00  0.00     0.040 C 
BRANCH  14  19
HETATM   19  O1  UNL     1      34.470   7.420  48.756  1.00  0.00    -0.309 OA
HETATM   20  C1  UNL     1      35.093   8.340  47.917  1.00  0.00     0.215 C 
ENDBRANCH  14  19
ENDBRANCH  11  12
ENDBRANCH   1  10
BRANCH   7  21
HETATM   21  N4  UNL     1      23.758   6.055  49.350  1.00  0.00    -0.316 N 
HETATM   22  C14 UNL     1      23.321   4.963  48.504  1.00  0.00     0.110 C 
HETATM   23  C15 UNL     1      23.090   3.688  48.733  1.00  0.00    -0.007 C 
HETATM   24  C16 UNL     1      23.916   2.940  49.451  1.00  0.00     0.037 C 
HETATM   25  C17 UNL     1      24.009   2.994  50.925  1.00  0.00     0.035 C 
HETATM   26 CL1  UNL     1      24.283   1.427  51.676  1.00  0.00    -0.084 Cl
HETATM   27  C18 UNL     1      23.946   3.922  51.885  1.00  0.00     0.025 C 
HETATM   28  C19 UNL     1      23.738   5.389  51.826  1.00  0.00     0.019 C 
HETATM   29  C20 UNL     1      23.667   6.234  50.780  1.00  0.00     0.098 C 
ENDBRANCH   7  21
TORSDOF 4
ENDMDL
MODEL 6
REMARK VINA RESULT:      -7.7      5.450      9.575
REMARK  4 active torsions:
REMARK  status: ('A' for Active; 'I' for Inactive)
REMARK    1  A    between atoms: O1_2  and  C2_3 
REMARK       I    between atoms: C2_3  and  N1_5 
REMARK    2  A    between atoms: C6_9  and  C7_10 
REMARK    3  A    between atoms: C8_11  and  C9_12 
REMARK    4  A    between atoms: C13_18  and  N4_19 
ROOT
HETATM    1  C9  UNL     1      20.721   0.009  52.820  1.00  0.00     0.061 A 
HETATM    2  C10 UNL     1      21.632  -0.760  53.564  1.00  0.00     0.061 A 
HETATM    3  C11 UNL     1      22.906  -0.348  53.683  1.00  0.00     0.081 A 
HETATM    4  N2  UNL     1      23.891  -0.973  54.348  1.00  0.00    -0.241 NA
HETATM    5  C12 UNL     1      25.120  -0.491  54.402  1.00  0.00     0.236 A 
HETATM    6  N3  UNL     1      25.567   0.636  53.835  1.00  0.00    -0.222 NA
HETATM    7  C13 UNL     1      24.697   1.367  53.139  1.00  0.00     0.154 A 
HETATM    8  C21 UNL     1      23.358   0.865  53.067  1.00  0.00     0.081 A 
HETATM    9  S1  UNL     1      21.785   1.469  52.232  1.00  0.00    -0.075 SA
ENDROOT
BRANCH   1  10
HETATM   10  C8  UNL     1      19.336  -0.119  52.480  1.00  0.00    -0.057 C 
HETATM   11  C7  UNL     1      18.196  -0.237  52.183  1.00  0.00    -0.075 C 
BRANCH  11  12
HETATM   12  C6  UNL     1      16.816  -0.374  51.798  1.00  0.00     0.169 C 
HETATM   13  N1  UNL     1      16.298  -1.636  52.276  1.00  0.00    -0.313 N 
HETATM   14  C2  UNL     1      16.812  -2.737  53.059  1.00  0.00     0.363 C 
HETATM   15  C3  UNL     1      14.948  -1.474  51.687  1.00  0.00     0.129 C 
HETATM   16  O2  UNL     1      17.820  -3.161  53.666  1.00  0.00    -0.238 OA
HETATM   17  C4  UNL     1      15.320  -1.345  50.208  1.00  0.00     0.023 C 
HETATM   18  C5  UNL     1      16.614  -0.512  50.283  1.00  0.00     0.040 C 
BRANCH  14  19
HETATM   19  O1  UNL     1      15.854  -3.742  53.238  1.00  0.00    -0.309 OA
HETATM   20  C1  UNL     1      16.123  -4.963  53.852  1.00  0.00     0.215 C 
ENDBRANCH  14  19
ENDBRANCH  11  12
ENDBRANCH   1  10
BRANCH   7  21
HETATM   21  N4  UNL     1      24.880   2.577  52.425  1.00  0.00    -0.316 N 
HETATM   22  C14 UNL     1      25.775   2.458  51.294  1.00  0.00     0.110 C 
HETATM   23  C15 UNL     1      25.919   3.152  50.185  1.00  0.00    -0.007 C 
HETATM   24  C16 UNL     1      24.881   3.539  49.457  1.00  0.00     0.037 C 
HETATM   25  C17 UNL     1      23.987   4.658  49.821  1.00  0.00     0.035 C 
HETATM   26 CL1  UNL     1      23.440   5.606  48.443  1.00  0.00    -0.084 Cl
HETATM   27  C18 UNL     1      23.455   5.175  50.932  1.00  0.00     0.025 C 
HETATM   28  C19 UNL     1      23.572   4.781  52.357  1.00  0.00     0.019 C 
HETATM   29  C20 UNL     1      24.156   3.717  52.939  1.00  0.00     0.098 C 
ENDBRANCH   7  21
TORSDOF 4
ENDMDL
MODEL 7
REMARK VINA RESULT:      -7.7      3.527      8.735
REMARK  4 active torsions:
REMARK  status: ('A' for Active; 'I' for Inactive)
REMARK    1  A    between atoms: O1_2  and  C2_3 
REMARK       I    between atoms: C2_3  and  N1_5 
REMARK    2  A    between atoms: C6_9  and  C7_10 
REMARK    3  A    between atoms: C8_11  and  C9_12 
REMARK    4  A    between atoms: C13_18  and  N4_19 
ROOT
HETATM    1  C9  UNL     1      25.204   3.747  49.918  1.00  0.00     0.061 A 
HETATM    2  C10 UNL     1      23.952   3.821  49.283  1.00  0.00     0.061 A 
HETATM    3  C11 UNL     1      23.630   4.919  48.577  1.00  0.00     0.081 A 
HETATM    4  N2  UNL     1      22.478   5.144  47.926  1.00  0.00    -0.241 NA
HETATM    5  C12 UNL     1      22.250   6.263  47.263  1.00  0.00     0.236 A 
HETATM    6  N3  UNL     1      23.081   7.305  47.136  1.00  0.00    -0.222 NA
HETATM    7  C13 UNL     1      24.270   7.226  47.731  1.00  0.00     0.154 A 
HETATM    8  C21 UNL     1      24.540   6.021  48.456  1.00  0.00     0.081 A 
HETATM    9  S1  UNL     1      26.006   5.408  49.462  1.00  0.00    -0.075 SA
ENDROOT
BRANCH   1  10
HETATM   10  C8  UNL     1      25.863   2.774  50.735  1.00  0.00    -0.057 C 
HETATM   11  C7  UNL     1      26.407   1.955  51.395  1.00  0.00    -0.075 C 
BRANCH  11  12
HETATM   12  C6  UNL     1      27.048   0.944  52.195  1.00  0.00     0.169 C 
HETATM   13  N1  UNL     1      26.054   0.212  52.947  1.00  0.00    -0.313 N 
HETATM   14  C2  UNL     1      24.612   0.229  53.049  1.00  0.00     0.363 C 
HETATM   15  C3  UNL     1      27.018  -0.660  53.657  1.00  0.00     0.129 C 
HETATM   16  O2  UNL     1      23.576   0.786  52.625  1.00  0.00    -0.238 OA
HETATM   17  C4  UNL     1      27.851   0.401  54.379  1.00  0.00     0.023 C 
HETATM   18  C5  UNL     1      27.924   1.517  53.318  1.00  0.00     0.040 C 
BRANCH  14  19
HETATM   19  O1  UNL     1      24.142  -0.727  53.957  1.00  0.00    -0.309 OA
HETATM   20  C1  UNL     1      22.800  -0.868  54.302  1.00  0.00     0.215 C 
ENDBRANCH  14  19
ENDBRANCH  11  12
ENDBRANCH   1  10
BRANCH   7  21
HETATM   21  N4  UNL     1      25.333   8.161  47.786  1.00  0.00    -0.316 N 
HETATM   22  C14 UNL     1      25.321   8.988  48.975  1.00  0.00     0.110 C 
HETATM   23  C15 UNL     1      26.257   9.659  49.611  1.00  0.00    -0.007 C 
HETATM   24  C16 UNL     1      27.452   9.140  49.856  1.00  0.00     0.037 C 
HETATM   25  C17 UNL     1      28.513   8.992  48.839  1.00  0.00     0.035 C 
HETATM   26 CL1  UNL     1      30.134   9.284  49.456  1.00  0.00    -0.084 Cl
HETATM   27  C18 UNL     1      28.600   8.687  47.540  1.00  0.00     0.025 C 
HETATM   28  C19 UNL     1      27.563   8.350  46.535  1.00  0.00     0.019 C 
HETATM   29  C20 UNL     1      26.239   8.140  46.662  1.00  0.00     0.098 C 
ENDBRANCH   7  21
TORSDOF 4
ENDMDL
MODEL 8
REMARK VINA RESULT:      -7.6      3.803      6.494
REMARK  4 active torsions:
REMARK  status: ('A' for Active; 'I' for Inactive)
REMARK    1  A    between atoms: O1_2  and  C2_3 
REMARK       I    between atoms: C2_3  and  N1_5 
REMARK    2  A    between atoms: C6_9  and  C7_10 
REMARK    3  A    between atoms: C8_11  and  C9_12 
REMARK    4  A    between atoms: C13_18  and  N4_19 
ROOT
HETATM    1  C9  UNL     1      27.865   5.512  48.562  1.00  0.00     0.061 A 
HETATM    2  C10 UNL     1      26.985   6.607  48.597  1.00  0.00     0.061 A 
HETATM    3  C11 UNL     1      25.722   6.430  49.023  1.00  0.00     0.081 A 
HETATM    4  N2  UNL     1      24.766   7.368  49.106  1.00  0.00    -0.241 NA
HETATM    5  C12 UNL     1      23.545   7.094  49.531  1.00  0.00     0.236 A 
HETATM    6  N3  UNL     1      23.081   5.903  49.928  1.00  0.00    -0.222 NA
HETATM    7  C13 UNL     1      23.922   4.870  49.902  1.00  0.00     0.154 A 
HETATM    8  C21 UNL     1      25.251   5.142  49.445  1.00  0.00     0.081 A 
HETATM    9  S1  UNL     1      26.786   4.084  49.201  1.00  0.00    -0.075 SA
ENDROOT
BRANCH   1  10
HETATM   10  C8  UNL     1      29.230   5.328  48.171  1.00  0.00    -0.057 C 
HETATM   11  C7  UNL     1      30.357   5.155  47.852  1.00  0.00    -0.075 C 
BRANCH  11  12
HETATM   12  C6  UNL     1      31.731   4.934  47.486  1.00  0.00     0.169 C 
HETATM   13  N1  UNL     1      32.166   5.965  46.571  1.00  0.00    -0.313 N 
HETATM   14  C2  UNL     1      31.576   7.150  45.989  1.00  0.00     0.363 C 
HETATM   15  C3  UNL     1      33.531   5.423  46.375  1.00  0.00     0.129 C 
HETATM   16  O2  UNL     1      30.537   7.844  45.947  1.00  0.00    -0.238 OA
HETATM   17  C4  UNL     1      33.188   4.041  45.815  1.00  0.00     0.023 C 
HETATM   18  C5  UNL     1      31.945   3.667  46.646  1.00  0.00     0.040 C 
BRANCH  14  19
HETATM   19  O1  UNL     1      32.469   7.815  45.141  1.00  0.00    -0.309 OA
HETATM   20  C1  UNL     1      32.392   7.769  43.751  1.00  0.00     0.215 C 
ENDBRANCH  14  19
ENDBRANCH  11  12
ENDBRANCH   1  10
BRANCH   7  21
HETATM   21  N4  UNL     1      23.715   3.510  50.240  1.00  0.00    -0.316 N 
HETATM   22  C14 UNL     1      24.184   3.161  51.566  1.00  0.00     0.110 C 
HETATM   23  C15 UNL     1      23.866   2.199  52.406  1.00  0.00    -0.007 C 
HETATM   24  C16 UNL     1      22.607   1.864  52.648  1.00  0.00     0.037 C 
HETATM   25  C17 UNL     1      21.769   1.074  51.721  1.00  0.00     0.035 C 
HETATM   26 CL1  UNL     1      20.686  -0.053  52.528  1.00  0.00    -0.084 Cl
HETATM   27  C18 UNL     1      21.589   0.968  50.401  1.00  0.00     0.025 C 
HETATM   28  C19 UNL     1      22.223   1.671  49.259  1.00  0.00     0.019 C 
HETATM   29  C20 UNL     1      23.085   2.704  49.221  1.00  0.00     0.098 C 
ENDBRANCH   7  21
TORSDOF 4
ENDMDL
MODEL 9
REMARK VINA RESULT:      -7.5      4.855     10.779
REMARK  4 active torsions:
REMARK  status: ('A' for Active; 'I' for Inactive)
REMARK    1  A    between atoms: O1_2  and  C2_3 
REMARK       I    between atoms: C2_3  and  N1_5 
REMARK    2  A    between atoms: C6_9  and  C7_10 
REMARK    3  A    between atoms: C8_11  and  C9_12 
REMARK    4  A    between atoms: C13_18  and  N4_19 
ROOT
HETATM    1  C9  UNL     1      29.195   6.032  48.173  1.00  0.00     0.061 A 
HETATM    2  C10 UNL     1      30.516   5.737  47.798  1.00  0.00     0.061 A 
HETATM    3  C11 UNL     1      31.341   6.734  47.431  1.00  0.00     0.081 A 
HETATM    4  N2  UNL     1      32.619   6.613  47.039  1.00  0.00    -0.241 NA
HETATM    5  C12 UNL     1      33.350   7.656  46.688  1.00  0.00     0.236 A 
HETATM    6  N3  UNL     1      32.962   8.937  46.664  1.00  0.00    -0.222 NA
HETATM    7  C13 UNL     1      31.711   9.213  47.029  1.00  0.00     0.154 A 
HETATM    8  C21 UNL     1      30.900   8.099  47.415  1.00  0.00     0.081 A 
HETATM    9  S1  UNL     1      29.117   7.922  47.987  1.00  0.00    -0.075 SA
ENDROOT
BRANCH   1  10
HETATM   10  C8  UNL     1      28.070   5.255  48.598  1.00  0.00    -0.057 C 
HETATM   11  C7  UNL     1      27.147   4.612  48.968  1.00  0.00    -0.075 C 
BRANCH  11  12
HETATM   12  C6  UNL     1      26.042   3.813  49.427  1.00  0.00     0.169 C 
HETATM   13  N1  UNL     1      25.095   4.646  50.133  1.00  0.00    -0.313 N 
HETATM   14  C2  UNL     1      24.982   6.054  50.439  1.00  0.00     0.363 C 
HETATM   15  C3  UNL     1      24.168   3.547  50.490  1.00  0.00     0.129 C 
HETATM   16  O2  UNL     1      25.536   7.167  50.299  1.00  0.00    -0.238 OA
HETATM   17  C4  UNL     1      25.113   2.659  51.302  1.00  0.00     0.023 C 
HETATM   18  C5  UNL     1      26.429   2.799  50.512  1.00  0.00     0.040 C 
BRANCH  14  19
HETATM   19  O1  UNL     1      23.824   6.337  51.173  1.00  0.00    -0.309 OA
HETATM   20  C1  UNL     1      22.818   7.191  50.726  1.00  0.00     0.215 C 
ENDBRANCH  14  19
ENDBRANCH  11  12
ENDBRANCH   1  10
BRANCH   7  21
HETATM   21  N4  UNL     1      31.024  10.451  47.086  1.00  0.00    -0.316 N 
HETATM   22  C14 UNL     1      30.235  10.735  45.905  1.00  0.00     0.110 C 
HETATM   23  C15 UNL     1      29.189  11.503  45.688  1.00  0.00    -0.007 C 
HETATM   24  C16 UNL     1      28.154  11.535  46.515  1.00  0.00     0.037 C 
HETATM   25  C17 UNL     1      28.159  12.232  47.818  1.00  0.00     0.035 C 
HETATM   26 CL1  UNL     1      26.630  13.004  48.216  1.00  0.00    -0.084 Cl
HETATM   27  C18 UNL     1      29.020  12.450  48.818  1.00  0.00     0.025 C 
HETATM   28  C19 UNL     1      30.430  12.034  49.013  1.00  0.00     0.019 C 
HETATM   29  C20 UNL     1      31.222  11.218  48.294  1.00  0.00     0.098 C 
ENDBRANCH   7  21
TORSDOF 4
ENDMDL
