MODEL 1
REMARK VINA RESULT:      -7.6      0.000      0.000
REMARK  8 active torsions:
REMARK  status: ('A' for Active; 'I' for Inactive)
REMARK    1  A    between atoms: N1_2  and  C3_4 
REMARK    2  A    between atoms: C3_4  and  C4_5 
REMARK    3  A    between atoms: C5_6  and  C6_7 
REMARK    4  A    between atoms: C6_7  and  N2_8 
REMARK    5  A    between atoms: N2_8  and  C7_9 
REMARK    6  A    between atoms: C11_13  and  C19_24 
REMARK    7  A    between atoms: N3_15  and  N4_16 
REMARK    8  A    between atoms: N4_16  and  C13_17 
ROOT
HETATM    1  C7  UNL     1      27.284  -0.449  53.050  1.00  0.00     0.049 A 
HETATM    2  C8  UNL     1      27.816  -1.747  53.009  1.00  0.00     0.024 A 
HETATM    3  C9  UNL     1      29.076  -1.312  53.347  1.00  0.00    -0.010 A 
HETATM    4  C10 UNL     1      29.497  -0.038  53.601  1.00  0.00     0.045 A 
HETATM    5  C11 UNL     1      29.537   1.133  53.756  1.00  0.00     0.089 A 
HETATM    6  C12 UNL     1      28.178   0.662  53.391  1.00  0.00     0.247 A 
HETATM    7  N3  UNL     1      27.395   1.883  53.364  1.00  0.00     0.220 N 
HETATM    8  C19 UNL     1      28.683   2.422  53.719  1.00  0.00     0.297 A 
HETATM    9  N5  UNL     1      28.726   1.148  53.572  1.00  0.00     0.000 N 
ENDROOT
BRANCH   1  10
HETATM   10  N2  UNL     1      25.914  -0.201  52.789  1.00  0.00    -0.381 N 
HETATM   11  H11 UNL     1      25.229   0.224  52.214  1.00  0.00     0.160 HD
BRANCH  10  12
HETATM   12  C6  UNL     1      25.128  -0.858  53.798  1.00  0.00     0.214 C 
BRANCH  12  13
HETATM   13  C5  UNL     1      23.751  -0.358  53.645  1.00  0.00    -0.085 C 
HETATM   14  C4  UNL     1      22.624   0.057  53.533  1.00  0.00    -0.075 C 
BRANCH  14  15
HETATM   15  C3  UNL     1      21.262   0.580  53.414  1.00  0.00     0.364 C 
BRANCH  15  16
HETATM   16  N1  UNL     1      21.210   1.528  52.293  1.00  0.00     0.090 N 
HETATM   17  C1  UNL     1      21.244   0.803  51.040  1.00  0.00     0.310 C 
HETATM   18  C2  UNL     1      20.092   2.415  52.404  1.00  0.00     0.310 C 
ENDBRANCH  15  16
ENDBRANCH  14  15
ENDBRANCH  12  13
ENDBRANCH  10  12
ENDBRANCH   1  10
BRANCH   7  19
HETATM   19  N4  UNL     1      26.088   2.399  53.135  1.00  0.00    -0.188 N 
HETATM   20  H15 UNL     1      25.294   2.459  53.834  1.00  0.00     0.196 HD
BRANCH  19  21
HETATM   21  C13 UNL     1      25.724   2.882  51.806  1.00  0.00     0.058 A 
HETATM   22  C14 UNL     1      26.569   2.919  50.744  1.00  0.00     0.031 A 
HETATM   23  C15 UNL     1      26.182   3.380  49.512  1.00  0.00     0.004 A 
HETATM   24  C16 UNL     1      24.883   3.823  49.349  1.00  0.00     0.019 A 
HETATM   25  C17 UNL     1      24.000   3.800  50.408  1.00  0.00     0.013 A 
HETATM   26 BR1  UNL     1      22.226   4.441  50.047  1.00  0.00    -0.051 Br
HETATM   27  C18 UNL     1      24.407   3.331  51.643  1.00  0.00     0.050 A 
ENDBRANCH  19  21
ENDBRANCH   7  19
TORSDOF 8
ENDMDL
MODEL 2
REMARK VINA RESULT:      -7.4      2.637      6.046
REMARK  8 active torsions:
REMARK  status: ('A' for Active; 'I' for Inactive)
REMARK    1  A    between atoms: N1_2  and  C3_4 
REMARK    2  A    between atoms: C3_4  and  C4_5 
REMARK    3  A    between atoms: C5_6  and  C6_7 
REMARK    4  A    between atoms: C6_7  and  N2_8 
REMARK    5  A    between atoms: N2_8  and  C7_9 
REMARK    6  A    between atoms: C11_13  and  C19_24 
REMARK    7  A    between atoms: N3_15  and  N4_16 
REMARK    8  A    between atoms: N4_16  and  C13_17 
ROOT
HETATM    1  C7  UNL     1      21.862   0.241  52.603  1.00  0.00     0.049 A 
HETATM    2  C8  UNL     1      20.463   0.133  52.645  1.00  0.00     0.024 A 
HETATM    3  C9  UNL     1      20.488  -0.599  53.808  1.00  0.00    -0.010 A 
HETATM    4  C10 UNL     1      21.569  -0.997  54.540  1.00  0.00     0.045 A 
HETATM    5  C11 UNL     1      22.672  -1.178  54.929  1.00  0.00     0.089 A 
HETATM    6  C12 UNL     1      22.643  -0.388  53.673  1.00  0.00     0.247 A 
HETATM    7  N3  UNL     1      24.045  -0.137  53.401  1.00  0.00     0.220 N 
HETATM    8  C19 UNL     1      24.160  -0.899  54.618  1.00  0.00     0.297 A 
HETATM    9  N5  UNL     1      22.936  -0.748  54.268  1.00  0.00     0.000 N 
ENDROOT
BRANCH   1  10
HETATM   10  N2  UNL     1      22.519   0.950  51.568  1.00  0.00    -0.381 N 
HETATM   11  H11 UNL     1      23.216   0.961  50.864  1.00  0.00     0.160 HD
BRANCH  10  12
HETATM   12  C6  UNL     1      21.928   2.256  51.461  1.00  0.00     0.214 C 
BRANCH  12  13
HETATM   13  C5  UNL     1      23.018   3.179  51.099  1.00  0.00    -0.085 C 
HETATM   14  C4  UNL     1      23.902   3.945  50.806  1.00  0.00    -0.075 C 
BRANCH  14  15
HETATM   15  C3  UNL     1      24.965   4.893  50.466  1.00  0.00     0.364 C 
BRANCH  15  16
HETATM   16  N1  UNL     1      25.773   4.334  49.375  1.00  0.00     0.090 N 
HETATM   17  C1  UNL     1      26.664   5.351  48.858  1.00  0.00     0.310 C 
HETATM   18  C2  UNL     1      26.451   3.140  49.780  1.00  0.00     0.310 C 
ENDBRANCH  15  16
ENDBRANCH  14  15
ENDBRANCH  12  13
ENDBRANCH  10  12
ENDBRANCH   1  10
BRANCH   7  19
HETATM   19  N4  UNL     1      24.939   0.492  52.490  1.00  0.00    -0.188 N 
HETATM   20  H15 UNL     1      24.745   0.751  51.480  1.00  0.00     0.196 HD
BRANCH  19  21
HETATM   21  C13 UNL     1      26.298   0.813  52.915  1.00  0.00     0.058 A 
HETATM   22  C14 UNL     1      26.729   2.059  53.238  1.00  0.00     0.031 A 
HETATM   23  C15 UNL     1      28.017   2.314  53.634  1.00  0.00     0.004 A 
HETATM   24  C16 UNL     1      28.907   1.260  53.706  1.00  0.00     0.019 A 
HETATM   25  C17 UNL     1      28.503  -0.019  53.385  1.00  0.00     0.013 A 
HETATM   26 BR1  UNL     1      29.837  -1.392  53.528  1.00  0.00    -0.051 Br
HETATM   27  C18 UNL     1      27.200  -0.257  52.987  1.00  0.00     0.050 A 
ENDBRANCH  19  21
ENDBRANCH   7  19
TORSDOF 8
ENDMDL
MODEL 3
REMARK VINA RESULT:      -7.3      3.327      7.202
REMARK  8 active torsions:
REMARK  status: ('A' for Active; 'I' for Inactive)
REMARK    1  A    between atoms: N1_2  and  C3_4 
REMARK    2  A    between atoms: C3_4  and  C4_5 
REMARK    3  A    between atoms: C5_6  and  C6_7 
REMARK    4  A    between atoms: C6_7  and  N2_8 
REMARK    5  A    between atoms: N2_8  and  C7_9 
REMARK    6  A    between atoms: C11_13  and  C19_24 
REMARK    7  A    between atoms: N3_15  and  N4_16 
REMARK    8  A    between atoms: N4_16  and  C13_17 
ROOT
HETATM    1  C7  UNL     1      24.559   3.087  50.361  1.00  0.00     0.049 A 
HETATM    2  C8  UNL     1      23.876   3.267  49.149  1.00  0.00     0.024 A 
HETATM    3  C9  UNL     1      22.801   2.519  49.568  1.00  0.00    -0.010 A 
HETATM    4  C10 UNL     1      22.616   1.892  50.766  1.00  0.00     0.045 A 
HETATM    5  C11 UNL     1      22.761   1.481  51.866  1.00  0.00     0.089 A 
HETATM    6  C12 UNL     1      23.920   2.288  51.412  1.00  0.00     0.247 A 
HETATM    7  N3  UNL     1      24.821   2.253  52.548  1.00  0.00     0.220 N 
HETATM    8  C19 UNL     1      23.738   1.456  53.064  1.00  0.00     0.297 A 
HETATM    9  N5  UNL     1      23.500   1.862  51.871  1.00  0.00     0.000 N 
ENDROOT
BRANCH   1  10
HETATM   10  N2  UNL     1      25.830   3.670  50.588  1.00  0.00    -0.381 N 
HETATM   11  H11 UNL     1      26.412   4.225  51.167  1.00  0.00     0.160 HD
BRANCH  10  12
HETATM   12  C6  UNL     1      26.701   3.310  49.502  1.00  0.00     0.214 C 
BRANCH  12  13
HETATM   13  C5  UNL     1      27.211   4.572  48.940  1.00  0.00    -0.085 C 
HETATM   14  C4  UNL     1      27.621   5.613  48.490  1.00  0.00    -0.075 C 
BRANCH  14  15
HETATM   15  C3  UNL     1      28.115   6.888  47.967  1.00  0.00     0.364 C 
BRANCH  15  16
HETATM   16  N1  UNL     1      29.491   7.097  48.437  1.00  0.00     0.090 N 
HETATM   17  C1  UNL     1      30.421   6.501  47.502  1.00  0.00     0.310 C 
HETATM   18  C2  UNL     1      29.756   8.480  48.694  1.00  0.00     0.310 C 
ENDBRANCH  15  16
ENDBRANCH  14  15
ENDBRANCH  12  13
ENDBRANCH  10  12
ENDBRANCH   1  10
BRANCH   7  19
HETATM   19  N4  UNL     1      26.084   2.706  53.021  1.00  0.00    -0.188 N 
HETATM   20  H15 UNL     1      26.374   3.708  53.212  1.00  0.00     0.196 HD
BRANCH  19  21
HETATM   21  C13 UNL     1      27.156   1.743  53.256  1.00  0.00     0.058 A 
HETATM   22  C14 UNL     1      28.371   2.057  53.776  1.00  0.00     0.031 A 
HETATM   23  C15 UNL     1      29.349   1.117  53.981  1.00  0.00     0.004 A 
HETATM   24  C16 UNL     1      29.085  -0.196  53.645  1.00  0.00     0.019 A 
HETATM   25  C17 UNL     1      27.862  -0.549  53.114  1.00  0.00     0.013 A 
HETATM   26 BR1  UNL     1      27.624  -2.407  52.691  1.00  0.00    -0.051 Br
HETATM   27  C18 UNL     1      26.887   0.412  52.914  1.00  0.00     0.050 A 
ENDBRANCH  19  21
ENDBRANCH   7  19
TORSDOF 8
ENDMDL
MODEL 4
REMARK VINA RESULT:      -7.3      2.499      6.327
REMARK  8 active torsions:
REMARK  status: ('A' for Active; 'I' for Inactive)
REMARK    1  A    between atoms: N1_2  and  C3_4 
REMARK    2  A    between atoms: C3_4  and  C4_5 
REMARK    3  A    between atoms: C5_6  and  C6_7 
REMARK    4  A    between atoms: C6_7  and  N2_8 
REMARK    5  A    between atoms: N2_8  and  C7_9 
REMARK    6  A    between atoms: C11_13  and  C19_24 
REMARK    7  A    between atoms: N3_15  and  N4_16 
REMARK    8  A    between atoms: N4_16  and  C13_17 
ROOT
HETATM    1  C7  UNL     1      25.734   5.241  49.872  1.00  0.00     0.049 A 
HETATM    2  C8  UNL     1      26.512   5.624  48.768  1.00  0.00     0.024 A 
HETATM    3  C9  UNL     1      25.620   6.602  48.396  1.00  0.00    -0.010 A 
HETATM    4  C10 UNL     1      24.443   6.953  48.991  1.00  0.00     0.045 A 
HETATM    5  C11 UNL     1      23.513   7.007  49.719  1.00  0.00     0.089 A 
HETATM    6  C12 UNL     1      24.476   5.952  50.120  1.00  0.00     0.247 A 
HETATM    7  N3  UNL     1      23.868   5.372  51.302  1.00  0.00     0.220 N 
HETATM    8  C19 UNL     1      22.883   6.373  50.981  1.00  0.00     0.297 A 
HETATM    9  N5  UNL     1      23.856   6.381  50.146  1.00  0.00     0.000 N 
ENDROOT
BRANCH   1  10
HETATM   10  N2  UNL     1      26.148   4.205  50.745  1.00  0.00    -0.381 N 
HETATM   11  H11 UNL     1      26.327   3.905  51.672  1.00  0.00     0.160 HD
BRANCH  10  12
HETATM   12  C6  UNL     1      26.448   3.037  49.962  1.00  0.00     0.214 C 
BRANCH  12  13
HETATM   13  C5  UNL     1      26.608   1.926  50.915  1.00  0.00    -0.085 C 
HETATM   14  C4  UNL     1      26.725   1.019  51.701  1.00  0.00    -0.075 C 
BRANCH  14  15
HETATM   15  C3  UNL     1      26.842  -0.084  52.657  1.00  0.00     0.364 C 
BRANCH  15  16
HETATM   16  N1  UNL     1      27.326   0.444  53.940  1.00  0.00     0.090 N 
HETATM   17  C1  UNL     1      26.328   0.224  54.965  1.00  0.00     0.310 C 
HETATM   18  C2  UNL     1      28.611  -0.088  54.278  1.00  0.00     0.310 C 
ENDBRANCH  15  16
ENDBRANCH  14  15
ENDBRANCH  12  13
ENDBRANCH  10  12
ENDBRANCH   1  10
BRANCH   7  19
HETATM   19  N4  UNL     1      24.040   4.379  52.307  1.00  0.00    -0.188 N 
HETATM   20  H15 UNL     1      24.592   4.469  53.207  1.00  0.00     0.196 HD
BRANCH  19  21
HETATM   21  C13 UNL     1      23.447   3.057  52.126  1.00  0.00     0.058 A 
HETATM   22  C14 UNL     1      23.472   2.070  53.057  1.00  0.00     0.031 A 
HETATM   23  C15 UNL     1      22.900   0.841  52.843  1.00  0.00     0.004 A 
HETATM   24  C16 UNL     1      22.277   0.603  51.634  1.00  0.00     0.019 A 
HETATM   25  C17 UNL     1      22.234   1.585  50.666  1.00  0.00     0.013 A 
HETATM   26 BR1  UNL     1      21.336   1.126  49.031  1.00  0.00    -0.051 Br
HETATM   27  C18 UNL     1      22.816   2.818  50.899  1.00  0.00     0.050 A 
ENDBRANCH  19  21
ENDBRANCH   7  19
TORSDOF 8
ENDMDL
MODEL 5
REMARK VINA RESULT:      -7.3      2.305      5.933
REMARK  8 active torsions:
REMARK  status: ('A' for Active; 'I' for Inactive)
REMARK    1  A    between atoms: N1_2  and  C3_4 
REMARK    2  A    between atoms: C3_4  and  C4_5 
REMARK    3  A    between atoms: C5_6  and  C6_7 
REMARK    4  A    between atoms: C6_7  and  N2_8 
REMARK    5  A    between atoms: N2_8  and  C7_9 
REMARK    6  A    between atoms: C11_13  and  C19_24 
REMARK    7  A    between atoms: N3_15  and  N4_16 
REMARK    8  A    between atoms: N4_16  and  C13_17 
ROOT
HETATM    1  C7  UNL     1      22.669   1.326  51.304  1.00  0.00     0.049 A 
HETATM    2  C8  UNL     1      21.732   0.340  51.649  1.00  0.00     0.024 A 
HETATM    3  C9  UNL     1      21.136   0.381  50.410  1.00  0.00    -0.010 A 
HETATM    4  C10 UNL     1      21.459   1.158  49.335  1.00  0.00     0.045 A 
HETATM    5  C11 UNL     1      21.976   1.943  48.617  1.00  0.00     0.089 A 
HETATM    6  C12 UNL     1      22.618   1.898  49.955  1.00  0.00     0.247 A 
HETATM    7  N3  UNL     1      23.677   2.883  49.853  1.00  0.00     0.220 N 
HETATM    8  C19 UNL     1      23.111   2.989  48.533  1.00  0.00     0.297 A 
HETATM    9  N5  UNL     1      22.495   2.118  49.244  1.00  0.00     0.000 N 
ENDROOT
BRANCH   1  10
HETATM   10  N2  UNL     1      23.659   1.759  52.220  1.00  0.00    -0.381 N 
HETATM   11  H11 UNL     1      24.318   2.449  52.486  1.00  0.00     0.160 HD
BRANCH  10  12
HETATM   12  C6  UNL     1      23.793   0.767  53.253  1.00  0.00     0.214 C 
BRANCH  12  13
HETATM   13  C5  UNL     1      25.128   0.168  53.084  1.00  0.00    -0.085 C 
HETATM   14  C4  UNL     1      26.228  -0.310  52.951  1.00  0.00    -0.075 C 
BRANCH  14  15
HETATM   15  C3  UNL     1      27.571  -0.874  52.807  1.00  0.00     0.364 C 
BRANCH  15  16
HETATM   16  N1  UNL     1      28.476  -0.199  53.748  1.00  0.00     0.090 N 
HETATM   17  C1  UNL     1      29.762  -0.863  53.747  1.00  0.00     0.310 C 
HETATM   18  C2  UNL     1      28.563   1.204  53.482  1.00  0.00     0.310 C 
ENDBRANCH  15  16
ENDBRANCH  14  15
ENDBRANCH  12  13
ENDBRANCH  10  12
ENDBRANCH   1  10
BRANCH   7  19
HETATM   19  N4  UNL     1      24.744   3.494  50.570  1.00  0.00    -0.188 N 
HETATM   20  H15 UNL     1      24.944   3.417  51.607  1.00  0.00     0.196 HD
BRANCH  19  21
HETATM   21  C13 UNL     1      25.683   4.364  49.866  1.00  0.00     0.058 A 
HETATM   22  C14 UNL     1      26.833   3.940  49.282  1.00  0.00     0.031 A 
HETATM   23  C15 UNL     1      27.686   4.794  48.630  1.00  0.00     0.004 A 
HETATM   24  C16 UNL     1      27.359   6.135  48.568  1.00  0.00     0.019 A 
HETATM   25  C17 UNL     1      26.199   6.598  49.152  1.00  0.00     0.013 A 
HETATM   26 BR1  UNL     1      25.862   8.482  48.992  1.00  0.00    -0.051 Br
HETATM   27  C18 UNL     1      25.351   5.723  49.805  1.00  0.00     0.050 A 
ENDBRANCH  19  21
ENDBRANCH   7  19
TORSDOF 8
ENDMDL
MODEL 6
REMARK VINA RESULT:      -7.2      1.773      4.317
REMARK  8 active torsions:
REMARK  status: ('A' for Active; 'I' for Inactive)
REMARK    1  A    between atoms: N1_2  and  C3_4 
REMARK    2  A    between atoms: C3_4  and  C4_5 
REMARK    3  A    between atoms: C5_6  and  C6_7 
REMARK    4  A    between atoms: C6_7  and  N2_8 
REMARK    5  A    between atoms: N2_8  and  C7_9 
REMARK    6  A    between atoms: C11_13  and  C19_24 
REMARK    7  A    between atoms: N3_15  and  N4_16 
REMARK    8  A    between atoms: N4_16  and  C13_17 
ROOT
HETATM    1  C7  UNL     1      27.413   1.676  53.121  1.00  0.00     0.049 A 
HETATM    2  C8  UNL     1      28.568   2.386  53.482  1.00  0.00     0.024 A 
HETATM    3  C9  UNL     1      29.290   1.234  53.691  1.00  0.00    -0.010 A 
HETATM    4  C10 UNL     1      28.885  -0.062  53.551  1.00  0.00     0.045 A 
HETATM    5  C11 UNL     1      28.243  -1.033  53.344  1.00  0.00     0.089 A 
HETATM    6  C12 UNL     1      27.465   0.210  53.120  1.00  0.00     0.247 A 
HETATM    7  N3  UNL     1      26.160  -0.277  52.717  1.00  0.00     0.220 N 
HETATM    8  C19 UNL     1      26.843  -1.530  52.914  1.00  0.00     0.297 A 
HETATM    9  N5  UNL     1      27.608  -0.529  53.158  1.00  0.00     0.000 N 
ENDROOT
BRANCH   1  10
HETATM   10  N2  UNL     1      26.221   2.343  52.746  1.00  0.00    -0.381 N 
HETATM   11  H11 UNL     1      25.298   2.617  52.981  1.00  0.00     0.160 HD
BRANCH  10  12
HETATM   12  C6  UNL     1      26.395   2.889  51.427  1.00  0.00     0.214 C 
BRANCH  12  13
HETATM   13  C5  UNL     1      25.046   3.196  50.922  1.00  0.00    -0.085 C 
HETATM   14  C4  UNL     1      23.945   3.442  50.495  1.00  0.00    -0.075 C 
BRANCH  14  15
HETATM   15  C3  UNL     1      22.612   3.723  49.958  1.00  0.00     0.364 C 
BRANCH  15  16
HETATM   16  N1  UNL     1      21.842   4.472  50.961  1.00  0.00     0.090 N 
HETATM   17  C1  UNL     1      21.601   3.632  52.115  1.00  0.00     0.310 C 
HETATM   18  C2  UNL     1      22.469   5.716  51.287  1.00  0.00     0.310 C 
ENDBRANCH  15  16
ENDBRANCH  14  15
ENDBRANCH  12  13
ENDBRANCH  10  12
ENDBRANCH   1  10
BRANCH   7  19
HETATM   19  N4  UNL     1      24.857   0.136  52.320  1.00  0.00    -0.188 N 
HETATM   20  H15 UNL     1      24.602   0.730  51.480  1.00  0.00     0.196 HD
BRANCH  19  21
HETATM   21  C13 UNL     1      23.702  -0.234  53.134  1.00  0.00     0.058 A 
HETATM   22  C14 UNL     1      23.780  -0.786  54.372  1.00  0.00     0.031 A 
HETATM   23  C15 UNL     1      22.667  -1.117  55.102  1.00  0.00     0.004 A 
HETATM   24  C16 UNL     1      21.421  -0.878  54.554  1.00  0.00     0.019 A 
HETATM   25  C17 UNL     1      21.307  -0.317  53.299  1.00  0.00     0.013 A 
HETATM   26 BR1  UNL     1      19.520  -0.035  52.655  1.00  0.00    -0.051 Br
HETATM   27  C18 UNL     1      22.441   0.010  52.577  1.00  0.00     0.050 A 
ENDBRANCH  19  21
ENDBRANCH   7  19
TORSDOF 8
ENDMDL
MODEL 7
REMARK VINA RESULT:      -7.1      2.322      5.316
REMARK  8 active torsions:
REMARK  status: ('A' for Active; 'I' for Inactive)
REMARK    1  A    between atoms: N1_2  and  C3_4 
REMARK    2  A    between atoms: C3_4  and  C4_5 
REMARK    3  A    between atoms: C5_6  and  C6_7 
REMARK    4  A    between atoms: C6_7  and  N2_8 
REMARK    5  A    between atoms: N2_8  and  C7_9 
REMARK    6  A    between atoms: C11_13  and  C19_24 
REMARK    7  A    between atoms: N3_15  and  N4_16 
REMARK    8  A    between atoms: N4_16  and  C13_17 
ROOT
HETATM    1  C7  UNL     1      27.212   1.973  53.114  1.00  0.00     0.049 A 
HETATM    2  C8  UNL     1      28.523   2.475  53.126  1.00  0.00     0.024 A 
HETATM    3  C9  UNL     1      28.930   1.572  54.080  1.00  0.00    -0.010 A 
HETATM    4  C10 UNL     1      28.199   0.597  54.696  1.00  0.00     0.045 A 
HETATM    5  C11 UNL     1      27.322  -0.122  55.031  1.00  0.00     0.089 A 
HETATM    6  C12 UNL     1      26.885   0.853  54.002  1.00  0.00     0.247 A 
HETATM    7  N3  UNL     1      25.485   0.528  53.804  1.00  0.00     0.220 N 
HETATM    8  C19 UNL     1      25.828  -0.450  54.804  1.00  0.00     0.297 A 
HETATM    9  N5  UNL     1      26.833   0.286  54.497  1.00  0.00     0.000 N 
ENDROOT
BRANCH   1  10
HETATM   10  N2  UNL     1      26.221   2.513  52.258  1.00  0.00    -0.381 N 
HETATM   11  H11 UNL     1      25.350   2.975  52.163  1.00  0.00     0.160 HD
BRANCH  10  12
HETATM   12  C6  UNL     1      26.638   2.323  50.896  1.00  0.00     0.214 C 
BRANCH  12  13
HETATM   13  C5  UNL     1      26.362   3.589  50.195  1.00  0.00    -0.085 C 
HETATM   14  C4  UNL     1      26.127   4.630  49.633  1.00  0.00    -0.075 C 
BRANCH  14  15
HETATM   15  C3  UNL     1      25.837   5.905  48.973  1.00  0.00     0.364 C 
BRANCH  15  16
HETATM   16  N1  UNL     1      25.912   6.984  49.966  1.00  0.00     0.090 N 
HETATM   17  C1  UNL     1      26.311   8.216  49.318  1.00  0.00     0.310 C 
HETATM   18  C2  UNL     1      24.694   7.104  50.708  1.00  0.00     0.310 C 
ENDBRANCH  15  16
ENDBRANCH  14  15
ENDBRANCH  12  13
ENDBRANCH  10  12
ENDBRANCH   1  10
BRANCH   7  19
HETATM   19  N4  UNL     1      24.321   0.886  53.069  1.00  0.00    -0.188 N 
HETATM   20  H15 UNL     1      24.242   1.629  52.317  1.00  0.00     0.196 HD
BRANCH  19  21
HETATM   21  C13 UNL     1      23.052   0.223  53.356  1.00  0.00     0.058 A 
HETATM   22  C14 UNL     1      22.870  -0.696  54.339  1.00  0.00     0.031 A 
HETATM   23  C15 UNL     1      21.658  -1.294  54.573  1.00  0.00     0.004 A 
HETATM   24  C16 UNL     1      20.584  -0.946  53.777  1.00  0.00     0.019 A 
HETATM   25  C17 UNL     1      20.734  -0.016  52.770  1.00  0.00     0.013 A 
HETATM   26 BR1  UNL     1      19.163   0.380  51.739  1.00  0.00    -0.051 Br
HETATM   27  C18 UNL     1      21.964   0.577  52.548  1.00  0.00     0.050 A 
ENDBRANCH  19  21
ENDBRANCH   7  19
TORSDOF 8
ENDMDL
MODEL 8
REMARK VINA RESULT:      -7.0      2.606      5.639
REMARK  8 active torsions:
REMARK  status: ('A' for Active; 'I' for Inactive)
REMARK    1  A    between atoms: N1_2  and  C3_4 
REMARK    2  A    between atoms: C3_4  and  C4_5 
REMARK    3  A    between atoms: C5_6  and  C6_7 
REMARK    4  A    between atoms: C6_7  and  N2_8 
REMARK    5  A    between atoms: N2_8  and  C7_9 
REMARK    6  A    between atoms: C11_13  and  C19_24 
REMARK    7  A    between atoms: N3_15  and  N4_16 
REMARK    8  A    between atoms: N4_16  and  C13_17 
ROOT
HETATM    1  C7  UNL     1      24.425   5.497  50.959  1.00  0.00     0.049 A 
HETATM    2  C8  UNL     1      23.851   6.680  50.469  1.00  0.00     0.024 A 
HETATM    3  C9  UNL     1      24.636   6.671  49.340  1.00  0.00    -0.010 A 
HETATM    4  C10 UNL     1      25.587   5.764  48.972  1.00  0.00     0.045 A 
HETATM    5  C11 UNL     1      26.320   4.836  48.946  1.00  0.00     0.089 A 
HETATM    6  C12 UNL     1      25.472   4.847  50.164  1.00  0.00     0.247 A 
HETATM    7  N3  UNL     1      25.896   3.660  50.881  1.00  0.00     0.220 N 
HETATM    8  C19 UNL     1      26.757   3.576  49.729  1.00  0.00     0.297 A 
HETATM    9  N5  UNL     1      25.996   4.607  49.678  1.00  0.00     0.000 N 
ENDROOT
BRANCH   1  10
HETATM   10  N2  UNL     1      24.003   4.921  52.183  1.00  0.00    -0.381 N 
HETATM   11  H11 UNL     1      24.247   4.545  53.066  1.00  0.00     0.160 HD
BRANCH  10  12
HETATM   12  C6  UNL     1      22.568   4.829  52.175  1.00  0.00     0.214 C 
BRANCH  12  13
HETATM   13  C5  UNL     1      22.243   3.392  52.217  1.00  0.00    -0.085 C 
HETATM   14  C4  UNL     1      21.987   2.214  52.241  1.00  0.00    -0.075 C 
BRANCH  14  15
HETATM   15  C3  UNL     1      21.700   0.778  52.259  1.00  0.00     0.364 C 
BRANCH  15  16
HETATM   16  N1  UNL     1      21.917   0.265  53.619  1.00  0.00     0.090 N 
HETATM   17  C1  UNL     1      20.812  -0.590  53.998  1.00  0.00     0.310 C 
HETATM   18  C2  UNL     1      23.193  -0.369  53.745  1.00  0.00     0.310 C 
ENDBRANCH  15  16
ENDBRANCH  14  15
ENDBRANCH  12  13
ENDBRANCH  10  12
ENDBRANCH   1  10
BRANCH   7  19
HETATM   19  N4  UNL     1      25.672   2.894  52.059  1.00  0.00    -0.188 N 
HETATM   20  H15 UNL     1      24.828   2.936  52.698  1.00  0.00     0.196 HD
BRANCH  19  21
HETATM   21  C13 UNL     1      26.692   1.952  52.514  1.00  0.00     0.058 A 
HETATM   22  C14 UNL     1      27.852   2.311  53.123  1.00  0.00     0.031 A 
HETATM   23  C15 UNL     1      28.781   1.390  53.535  1.00  0.00     0.004 A 
HETATM   24  C16 UNL     1      28.525   0.050  53.321  1.00  0.00     0.019 A 
HETATM   25  C17 UNL     1      27.357  -0.348  52.706  1.00  0.00     0.013 A 
HETATM   26 BR1  UNL     1      27.123  -2.240  52.472  1.00  0.00    -0.051 Br
HETATM   27  C18 UNL     1      26.430   0.594  52.297  1.00  0.00     0.050 A 
ENDBRANCH  19  21
ENDBRANCH   7  19
TORSDOF 8
ENDMDL
MODEL 9
REMARK VINA RESULT:      -6.9      2.377      4.841
REMARK  8 active torsions:
REMARK  status: ('A' for Active; 'I' for Inactive)
REMARK    1  A    between atoms: N1_2  and  C3_4 
REMARK    2  A    between atoms: C3_4  and  C4_5 
REMARK    3  A    between atoms: C5_6  and  C6_7 
REMARK    4  A    between atoms: C6_7  and  N2_8 
REMARK    5  A    between atoms: N2_8  and  C7_9 
REMARK    6  A    between atoms: C11_13  and  C19_24 
REMARK    7  A    between atoms: N3_15  and  N4_16 
REMARK    8  A    between atoms: N4_16  and  C13_17 
ROOT
HETATM    1  C7  UNL     1      25.970   1.253  52.468  1.00  0.00     0.049 A 
HETATM    2  C8  UNL     1      27.061   0.374  52.380  1.00  0.00     0.024 A 
HETATM    3  C9  UNL     1      26.327  -0.689  52.850  1.00  0.00    -0.010 A 
HETATM    4  C10 UNL     1      25.014  -0.718  53.223  1.00  0.00     0.045 A 
HETATM    5  C11 UNL     1      23.895  -0.416  53.461  1.00  0.00     0.089 A 
HETATM    6  C12 UNL     1      24.690   0.730  52.955  1.00  0.00     0.247 A 
HETATM    7  N3  UNL     1      23.737   1.824  52.952  1.00  0.00     0.220 N 
HETATM    8  C19 UNL     1      22.898   0.765  53.451  1.00  0.00     0.297 A 
HETATM    9  N5  UNL     1      24.091   0.355  53.218  1.00  0.00     0.000 N 
ENDROOT
BRANCH   1  10
HETATM   10  N2  UNL     1      26.081   2.612  52.083  1.00  0.00    -0.381 N 
HETATM   11  H11 UNL     1      25.904   3.564  52.290  1.00  0.00     0.160 HD
BRANCH  10  12
HETATM   12  C6  UNL     1      26.761   2.676  50.817  1.00  0.00     0.214 C 
BRANCH  12  13
HETATM   13  C5  UNL     1      26.227   3.856  50.116  1.00  0.00    -0.085 C 
HETATM   14  C4  UNL     1      25.779   4.824  49.553  1.00  0.00    -0.075 C 
BRANCH  14  15
HETATM   15  C3  UNL     1      25.228   6.009  48.893  1.00  0.00     0.364 C 
BRANCH  15  16
HETATM   16  N1  UNL     1      24.016   6.433  49.606  1.00  0.00     0.090 N 
HETATM   17  C1  UNL     1      24.380   7.029  50.874  1.00  0.00     0.310 C 
HETATM   18  C2  UNL     1      23.197   7.282  48.796  1.00  0.00     0.310 C 
ENDBRANCH  15  16
ENDBRANCH  14  15
ENDBRANCH  12  13
ENDBRANCH  10  12
ENDBRANCH   1  10
BRANCH   7  19
HETATM   19  N4  UNL     1      23.584   3.207  52.650  1.00  0.00    -0.188 N 
HETATM   20  H15 UNL     1      24.046   4.024  53.141  1.00  0.00     0.196 HD
BRANCH  19  21
HETATM   21  C13 UNL     1      22.678   3.616  51.580  1.00  0.00     0.058 A 
HETATM   22  C14 UNL     1      21.712   4.562  51.711  1.00  0.00     0.031 A 
HETATM   23  C15 UNL     1      20.883   4.915  50.677  1.00  0.00     0.004 A 
HETATM   24  C16 UNL     1      21.040   4.285  49.458  1.00  0.00     0.019 A 
HETATM   25  C17 UNL     1      22.011   3.320  49.291  1.00  0.00     0.013 A 
HETATM   26 BR1  UNL     1      22.125   2.523  47.548  1.00  0.00    -0.051 Br
HETATM   27  C18 UNL     1      22.838   2.976  50.345  1.00  0.00     0.050 A 
ENDBRANCH  19  21
ENDBRANCH   7  19
TORSDOF 8
ENDMDL
