MODEL 1
REMARK VINA RESULT:      -7.9      0.000      0.000
REMARK  5 active torsions:
REMARK  status: ('A' for Active; 'I' for Inactive)
REMARK    1  A    between atoms: C6_10  and  N4_11 
REMARK    2  A    between atoms: N4_11  and  C7_12 
REMARK    3  A    between atoms: C7_12  and  C8_13 
REMARK    4  A    between atoms: C7_12  and  C9_15 
REMARK    5  A    between atoms: C8_13  and  O1_14 
ROOT
HETATM    1  C1  UNL     1      26.722   0.193  51.839  1.00  0.00     0.310 C 
HETATM    2  N1  UNL     1      27.084   0.725  53.146  1.00  0.00     0.093 N 
HETATM    3  C2  UNL     1      26.392  -0.062  54.148  1.00  0.00     0.319 C 
HETATM    4  C3  UNL     1      24.956   0.225  53.763  1.00  0.00     0.022 A 
HETATM    5  S1  UNL     1      23.225  -0.330  53.658  1.00  0.00    -0.072 SA
HETATM    6  C4  UNL     1      22.594   1.190  52.927  1.00  0.00     0.114 A 
HETATM    7  N2  UNL     1      21.337   1.424  52.599  1.00  0.00    -0.234 NA
HETATM    8  C5  UNL     1      21.031   2.615  52.068  1.00  0.00     0.236 A 
HETATM    9  N3  UNL     1      22.060   3.438  51.935  1.00  0.00    -0.224 NA
HETATM   10  C6  UNL     1      23.309   3.192  52.267  1.00  0.00     0.139 A 
HETATM   11  C15 UNL     1      23.725   2.008  52.814  1.00  0.00     0.054 A 
HETATM   12  C16 UNL     1      24.946   1.543  53.231  1.00  0.00     0.002 A 
HETATM   13  C17 UNL     1      26.351   1.995  53.306  1.00  0.00     0.313 C 
ENDROOT
BRANCH  10  14
HETATM   14  N4  UNL     1      24.177   4.306  52.025  1.00  0.00    -0.363 N 
HETATM   15  H7  UNL     1      24.963   4.597  52.622  1.00  0.00     0.162 HD
BRANCH  14  16
HETATM   16  C7  UNL     1      24.059   5.195  50.899  1.00  0.00     0.140 C 
BRANCH  16  17
HETATM   17  C8  UNL     1      23.923   6.623  51.292  1.00  0.00     0.194 C 
BRANCH  17  18
HETATM   18  O1  UNL     1      24.431   6.734  52.601  1.00  0.00    -0.399 OA
HETATM   19  H11 UNL     1      24.820   7.642  52.715  1.00  0.00     0.209 HD
ENDBRANCH  17  18
ENDBRANCH  16  17
BRANCH  16  20
HETATM   20  C9  UNL     1      25.304   5.060  50.098  1.00  0.00    -0.034 A 
HETATM   21  C10 UNL     1      26.010   3.883  49.952  1.00  0.00     0.009 A 
HETATM   22  C11 UNL     1      27.164   3.837  49.189  1.00  0.00     0.001 A 
HETATM   23  C12 UNL     1      27.654   4.963  48.546  1.00  0.00     0.000 A 
HETATM   24  C13 UNL     1      26.982   6.171  48.662  1.00  0.00     0.001 A 
HETATM   25  C14 UNL     1      25.839   6.161  49.432  1.00  0.00     0.009 A 
ENDBRANCH  16  20
ENDBRANCH  14  16
ENDBRANCH  10  14
TORSDOF 5
ENDMDL
MODEL 2
REMARK VINA RESULT:      -7.8      3.254      5.492
REMARK  5 active torsions:
REMARK  status: ('A' for Active; 'I' for Inactive)
REMARK    1  A    between atoms: C6_10  and  N4_11 
REMARK    2  A    between atoms: N4_11  and  C7_12 
REMARK    3  A    between atoms: C7_12  and  C8_13 
REMARK    4  A    between atoms: C7_12  and  C9_15 
REMARK    5  A    between atoms: C8_13  and  O1_14 
ROOT
HETATM    1  C1  UNL     1      22.097   3.463  51.917  1.00  0.00     0.310 C 
HETATM    2  N1  UNL     1      21.902   2.633  50.737  1.00  0.00     0.093 N 
HETATM    3  C2  UNL     1      20.643   1.931  50.898  1.00  0.00     0.319 C 
HETATM    4  C3  UNL     1      20.947   1.130  52.147  1.00  0.00     0.022 A 
HETATM    5  S1  UNL     1      20.362   0.354  53.688  1.00  0.00    -0.072 SA
HETATM    6  C4  UNL     1      21.970  -0.284  54.188  1.00  0.00     0.114 A 
HETATM    7  N2  UNL     1      22.217  -0.982  55.281  1.00  0.00    -0.234 NA
HETATM    8  C5  UNL     1      23.473  -1.390  55.504  1.00  0.00     0.236 A 
HETATM    9  N3  UNL     1      24.341  -1.032  54.568  1.00  0.00    -0.224 NA
HETATM   10  C6  UNL     1      24.081  -0.337  53.483  1.00  0.00     0.139 A 
HETATM   11  C15 UNL     1      22.833   0.127  53.165  1.00  0.00     0.054 A 
HETATM   12  C16 UNL     1      22.341   0.852  52.110  1.00  0.00     0.002 A 
HETATM   13  C17 UNL     1      22.822   1.488  50.865  1.00  0.00     0.313 C 
ENDROOT
BRANCH  10  14
HETATM   14  N4  UNL     1      25.236  -0.146  52.656  1.00  0.00    -0.363 N 
HETATM   15  H7  UNL     1      25.528  -0.756  51.880  1.00  0.00     0.162 HD
BRANCH  14  16
HETATM   16  C7  UNL     1      26.171   0.937  52.809  1.00  0.00     0.140 C 
BRANCH  16  17
HETATM   17  C8  UNL     1      25.827   1.853  53.930  1.00  0.00     0.194 C 
BRANCH  17  18
HETATM   18  O1  UNL     1      25.320   3.032  53.350  1.00  0.00    -0.399 OA
HETATM   19  H11 UNL     1      25.885   3.797  53.640  1.00  0.00     0.209 HD
ENDBRANCH  17  18
ENDBRANCH  16  17
BRANCH  16  20
HETATM   20  C9  UNL     1      27.498   0.336  53.104  1.00  0.00    -0.034 A 
HETATM   21  C10 UNL     1      28.601   1.054  53.521  1.00  0.00     0.009 A 
HETATM   22  C11 UNL     1      29.806   0.420  53.776  1.00  0.00     0.001 A 
HETATM   23  C12 UNL     1      29.952  -0.949  53.622  1.00  0.00     0.000 A 
HETATM   24  C13 UNL     1      28.875  -1.716  53.204  1.00  0.00     0.001 A 
HETATM   25  C14 UNL     1      27.699  -1.036  52.965  1.00  0.00     0.009 A 
ENDBRANCH  16  20
ENDBRANCH  14  16
ENDBRANCH  10  14
TORSDOF 5
ENDMDL
MODEL 3
REMARK VINA RESULT:      -7.6      2.492      4.631
REMARK  5 active torsions:
REMARK  status: ('A' for Active; 'I' for Inactive)
REMARK    1  A    between atoms: C6_10  and  N4_11 
REMARK    2  A    between atoms: N4_11  and  C7_12 
REMARK    3  A    between atoms: C7_12  and  C8_13 
REMARK    4  A    between atoms: C7_12  and  C9_15 
REMARK    5  A    between atoms: C8_13  and  O1_14 
ROOT
HETATM    1  C1  UNL     1      20.667   2.871  51.840  1.00  0.00     0.310 C 
HETATM    2  N1  UNL     1      20.816   2.061  50.639  1.00  0.00     0.093 N 
HETATM    3  C2  UNL     1      19.834   0.996  50.703  1.00  0.00     0.319 C 
HETATM    4  C3  UNL     1      20.294   0.289  51.961  1.00  0.00     0.022 A 
HETATM    5  S1  UNL     1      19.886  -0.681  53.447  1.00  0.00    -0.072 SA
HETATM    6  C4  UNL     1      21.578  -0.802  54.051  1.00  0.00     0.114 A 
HETATM    7  N2  UNL     1      21.961  -1.424  55.151  1.00  0.00    -0.234 NA
HETATM    8  C5  UNL     1      23.266  -1.427  55.457  1.00  0.00     0.236 A 
HETATM    9  N3  UNL     1      24.035  -0.785  54.589  1.00  0.00    -0.224 NA
HETATM   10  C6  UNL     1      23.639  -0.170  53.496  1.00  0.00     0.139 A 
HETATM   11  C15 UNL     1      22.331  -0.108  53.097  1.00  0.00     0.054 A 
HETATM   12  C16 UNL     1      21.704   0.461  52.018  1.00  0.00     0.002 A 
HETATM   13  C17 UNL     1      22.039   1.256  50.818  1.00  0.00     0.313 C 
ENDROOT
BRANCH  10  14
HETATM   14  N4  UNL     1      24.726   0.398  52.755  1.00  0.00    -0.363 N 
HETATM   15  H7  UNL     1      25.138   0.008  51.897  1.00  0.00     0.162 HD
BRANCH  14  16
HETATM   16  C7  UNL     1      25.410   1.610  53.123  1.00  0.00     0.140 C 
BRANCH  16  17
HETATM   17  C8  UNL     1      26.791   1.373  53.622  1.00  0.00     0.194 C 
BRANCH  17  18
HETATM   18  O1  UNL     1      26.676   1.000  54.975  1.00  0.00    -0.399 OA
HETATM   19  H11 UNL     1      26.126   0.173  55.031  1.00  0.00     0.209 HD
ENDBRANCH  17  18
ENDBRANCH  16  17
BRANCH  16  20
HETATM   20  C9  UNL     1      25.506   2.451  51.901  1.00  0.00    -0.034 A 
HETATM   21  C10 UNL     1      26.496   2.324  50.947  1.00  0.00     0.009 A 
HETATM   22  C11 UNL     1      26.517   3.147  49.833  1.00  0.00     0.001 A 
HETATM   23  C12 UNL     1      25.554   4.123  49.633  1.00  0.00     0.000 A 
HETATM   24  C13 UNL     1      24.539   4.291  50.563  1.00  0.00     0.001 A 
HETATM   25  C14 UNL     1      24.563   3.447  51.652  1.00  0.00     0.009 A 
ENDBRANCH  16  20
ENDBRANCH  14  16
ENDBRANCH  10  14
TORSDOF 5
ENDMDL
MODEL 4
REMARK VINA RESULT:      -7.6      3.072      6.705
REMARK  5 active torsions:
REMARK  status: ('A' for Active; 'I' for Inactive)
REMARK    1  A    between atoms: C6_10  and  N4_11 
REMARK    2  A    between atoms: N4_11  and  C7_12 
REMARK    3  A    between atoms: C7_12  and  C8_13 
REMARK    4  A    between atoms: C7_12  and  C9_15 
REMARK    5  A    between atoms: C8_13  and  O1_14 
ROOT
HETATM    1  C1  UNL     1      22.694   2.774  49.636  1.00  0.00     0.310 C 
HETATM    2  N1  UNL     1      22.639   3.804  50.664  1.00  0.00     0.093 N 
HETATM    3  C2  UNL     1      23.917   4.488  50.669  1.00  0.00     0.319 C 
HETATM    4  C3  UNL     1      24.830   3.335  51.029  1.00  0.00     0.022 A 
HETATM    5  S1  UNL     1      26.458   2.529  50.893  1.00  0.00    -0.072 SA
HETATM    6  C4  UNL     1      26.042   1.112  51.926  1.00  0.00     0.114 A 
HETATM    7  N2  UNL     1      26.853   0.116  52.229  1.00  0.00    -0.234 NA
HETATM    8  C5  UNL     1      26.388  -0.862  53.019  1.00  0.00     0.236 A 
HETATM    9  N3  UNL     1      25.132  -0.702  53.410  1.00  0.00    -0.224 NA
HETATM   10  C6  UNL     1      24.336   0.298  53.100  1.00  0.00     0.139 A 
HETATM   11  C15 UNL     1      24.714   1.343  52.301  1.00  0.00     0.054 A 
HETATM   12  C16 UNL     1      24.067   2.469  51.858  1.00  0.00     0.002 A 
HETATM   13  C17 UNL     1      22.741   3.115  51.963  1.00  0.00     0.313 C 
ENDROOT
BRANCH  10  14
HETATM   14  N4  UNL     1      23.045   0.190  53.714  1.00  0.00    -0.363 N 
HETATM   15  H7  UNL     1      22.579   0.922  54.267  1.00  0.00     0.162 HD
BRANCH  14  16
HETATM   16  C7  UNL     1      22.214  -0.983  53.649  1.00  0.00     0.140 C 
BRANCH  16  17
HETATM   17  C8  UNL     1      21.854  -1.520  54.988  1.00  0.00     0.194 C 
BRANCH  17  18
HETATM   18  O1  UNL     1      23.059  -1.673  55.702  1.00  0.00    -0.399 OA
HETATM   19  H11 UNL     1      23.283  -0.806  56.136  1.00  0.00     0.209 HD
ENDBRANCH  17  18
ENDBRANCH  16  17
BRANCH  16  20
HETATM   20  C9  UNL     1      20.954  -0.593  52.962  1.00  0.00    -0.034 A 
HETATM   21  C10 UNL     1      19.690  -0.870  53.442  1.00  0.00     0.009 A 
HETATM   22  C11 UNL     1      18.563  -0.473  52.742  1.00  0.00     0.001 A 
HETATM   23  C12 UNL     1      18.658   0.213  51.542  1.00  0.00     0.000 A 
HETATM   24  C13 UNL     1      19.905   0.515  51.017  1.00  0.00     0.001 A 
HETATM   25  C14 UNL     1      20.994   0.098  51.752  1.00  0.00     0.009 A 
ENDBRANCH  16  20
ENDBRANCH  14  16
ENDBRANCH  10  14
TORSDOF 5
ENDMDL
MODEL 5
REMARK VINA RESULT:      -7.5      3.440      5.618
REMARK  5 active torsions:
REMARK  status: ('A' for Active; 'I' for Inactive)
REMARK    1  A    between atoms: C6_10  and  N4_11 
REMARK    2  A    between atoms: N4_11  and  C7_12 
REMARK    3  A    between atoms: C7_12  and  C8_13 
REMARK    4  A    between atoms: C7_12  and  C9_15 
REMARK    5  A    between atoms: C8_13  and  O1_14 
ROOT
HETATM    1  C1  UNL     1      23.102   4.295  52.309  1.00  0.00     0.310 C 
HETATM    2  N1  UNL     1      22.986   3.743  50.967  1.00  0.00     0.093 N 
HETATM    3  C2  UNL     1      21.600   3.371  50.762  1.00  0.00     0.319 C 
HETATM    4  C3  UNL     1      21.443   2.330  51.851  1.00  0.00     0.022 A 
HETATM    5  S1  UNL     1      20.384   1.495  53.074  1.00  0.00    -0.072 SA
HETATM    6  C4  UNL     1      21.666   0.392  53.696  1.00  0.00     0.114 A 
HETATM    7  N2  UNL     1      21.511  -0.510  54.647  1.00  0.00    -0.234 NA
HETATM    8  C5  UNL     1      22.568  -1.258  54.990  1.00  0.00     0.236 A 
HETATM    9  N3  UNL     1      23.674  -0.991  54.311  1.00  0.00    -0.224 NA
HETATM   10  C6  UNL     1      23.814  -0.087  53.365  1.00  0.00     0.139 A 
HETATM   11  C15 UNL     1      22.797   0.727  52.943  1.00  0.00     0.054 A 
HETATM   12  C16 UNL     1      22.716   1.713  51.994  1.00  0.00     0.002 A 
HETATM   13  C17 UNL     1      23.582   2.395  51.008  1.00  0.00     0.313 C 
ENDROOT
BRANCH  10  14
HETATM   14  N4  UNL     1      25.133  -0.070  52.805  1.00  0.00    -0.363 N 
HETATM   15  H7  UNL     1      25.424   0.451  51.966  1.00  0.00     0.162 HD
BRANCH  14  16
HETATM   16  C7  UNL     1      26.249  -0.804  53.341  1.00  0.00     0.140 C 
BRANCH  16  17
HETATM   17  C8  UNL     1      26.797  -1.811  52.394  1.00  0.00     0.194 C 
BRANCH  17  18
HETATM   18  O1  UNL     1      27.478  -2.770  53.169  1.00  0.00    -0.399 OA
HETATM   19  H11 UNL     1      28.000  -3.359  52.560  1.00  0.00     0.209 HD
ENDBRANCH  17  18
ENDBRANCH  16  17
BRANCH  16  20
HETATM   20  C9  UNL     1      27.325   0.181  53.630  1.00  0.00    -0.034 A 
HETATM   21  C10 UNL     1      28.442  -0.091  54.394  1.00  0.00     0.009 A 
HETATM   22  C11 UNL     1      29.403   0.881  54.618  1.00  0.00     0.001 A 
HETATM   23  C12 UNL     1      29.281   2.156  54.090  1.00  0.00     0.000 A 
HETATM   24  C13 UNL     1      28.177   2.481  53.317  1.00  0.00     0.001 A 
HETATM   25  C14 UNL     1      27.252   1.477  53.123  1.00  0.00     0.009 A 
ENDBRANCH  16  20
ENDBRANCH  14  16
ENDBRANCH  10  14
TORSDOF 5
ENDMDL
MODEL 6
REMARK VINA RESULT:      -7.4      3.351      5.711
REMARK  5 active torsions:
REMARK  status: ('A' for Active; 'I' for Inactive)
REMARK    1  A    between atoms: C6_10  and  N4_11 
REMARK    2  A    between atoms: N4_11  and  C7_12 
REMARK    3  A    between atoms: C7_12  and  C8_13 
REMARK    4  A    between atoms: C7_12  and  C9_15 
REMARK    5  A    between atoms: C8_13  and  O1_14 
ROOT
HETATM    1  C1  UNL     1      23.892   3.854  52.702  1.00  0.00     0.310 C 
HETATM    2  N1  UNL     1      24.403   3.298  51.457  1.00  0.00     0.093 N 
HETATM    3  C2  UNL     1      23.387   3.490  50.441  1.00  0.00     0.319 C 
HETATM    4  C3  UNL     1      22.259   2.677  51.039  1.00  0.00     0.022 A 
HETATM    5  S1  UNL     1      20.472   2.417  51.273  1.00  0.00    -0.072 SA
HETATM    6  C4  UNL     1      20.637   0.946  52.299  1.00  0.00     0.114 A 
HETATM    7  N2  UNL     1      19.641   0.248  52.812  1.00  0.00    -0.234 NA
HETATM    8  C5  UNL     1      19.936  -0.830  53.551  1.00  0.00     0.236 A 
HETATM    9  N3  UNL     1      21.233  -1.070  53.679  1.00  0.00    -0.224 NA
HETATM   10  C6  UNL     1      22.216  -0.366  53.161  1.00  0.00     0.139 A 
HETATM   11  C15 UNL     1      22.020   0.751  52.394  1.00  0.00     0.054 A 
HETATM   12  C16 UNL     1      22.875   1.619  51.762  1.00  0.00     0.002 A 
HETATM   13  C17 UNL     1      24.327   1.830  51.583  1.00  0.00     0.313 C 
ENDROOT
BRANCH  10  14
HETATM   14  N4  UNL     1      23.507  -0.911  53.459  1.00  0.00    -0.363 N 
HETATM   15  H7  UNL     1      24.002  -1.622  52.904  1.00  0.00     0.162 HD
BRANCH  14  16
HETATM   16  C7  UNL     1      24.296  -0.542  54.605  1.00  0.00     0.140 C 
BRANCH  16  17
HETATM   17  C8  UNL     1      24.220  -1.532  55.712  1.00  0.00     0.194 C 
BRANCH  17  18
HETATM   18  O1  UNL     1      22.855  -1.818  55.908  1.00  0.00    -0.399 OA
HETATM   19  H11 UNL     1      22.778  -2.604  56.512  1.00  0.00     0.209 HD
ENDBRANCH  17  18
ENDBRANCH  16  17
BRANCH  16  20
HETATM   20  C9  UNL     1      25.712  -0.467  54.158  1.00  0.00    -0.034 A 
HETATM   21  C10 UNL     1      26.184  -1.008  52.979  1.00  0.00     0.009 A 
HETATM   22  C11 UNL     1      27.520  -0.897  52.631  1.00  0.00     0.001 A 
HETATM   23  C12 UNL     1      28.430  -0.245  53.448  1.00  0.00     0.000 A 
HETATM   24  C13 UNL     1      28.007   0.314  54.644  1.00  0.00     0.001 A 
HETATM   25  C14 UNL     1      26.668   0.177  54.942  1.00  0.00     0.009 A 
ENDBRANCH  16  20
ENDBRANCH  14  16
ENDBRANCH  10  14
TORSDOF 5
ENDMDL
MODEL 7
REMARK VINA RESULT:      -7.3      2.539      4.637
REMARK  5 active torsions:
REMARK  status: ('A' for Active; 'I' for Inactive)
REMARK    1  A    between atoms: C6_10  and  N4_11 
REMARK    2  A    between atoms: N4_11  and  C7_12 
REMARK    3  A    between atoms: C7_12  and  C8_13 
REMARK    4  A    between atoms: C7_12  and  C9_15 
REMARK    5  A    between atoms: C8_13  and  O1_14 
ROOT
HETATM    1  C1  UNL     1      20.829   0.820  54.170  1.00  0.00     0.310 C 
HETATM    2  N1  UNL     1      20.707  -0.274  53.216  1.00  0.00     0.093 N 
HETATM    3  C2  UNL     1      20.909  -1.514  53.941  1.00  0.00     0.319 C 
HETATM    4  C3  UNL     1      22.326  -1.304  54.431  1.00  0.00     0.022 A 
HETATM    5  S1  UNL     1      23.598  -1.586  55.704  1.00  0.00    -0.072 SA
HETATM    6  C4  UNL     1      24.896  -0.659  54.867  1.00  0.00     0.114 A 
HETATM    7  N2  UNL     1      26.128  -0.487  55.309  1.00  0.00    -0.234 NA
HETATM    8  C5  UNL     1      26.977   0.227  54.559  1.00  0.00     0.236 A 
HETATM    9  N3  UNL     1      26.460   0.687  53.430  1.00  0.00    -0.224 NA
HETATM   10  C6  UNL     1      25.229   0.508  53.001  1.00  0.00     0.139 A 
HETATM   11  C15 UNL     1      24.286  -0.204  53.692  1.00  0.00     0.054 A 
HETATM   12  C16 UNL     1      22.974  -0.516  53.442  1.00  0.00     0.002 A 
HETATM   13  C17 UNL     1      21.942  -0.276  52.410  1.00  0.00     0.313 C 
ENDROOT
BRANCH  10  14
HETATM   14  N4  UNL     1      24.995   1.109  51.722  1.00  0.00    -0.363 N 
HETATM   15  H7  UNL     1      24.742   0.608  50.859  1.00  0.00     0.162 HD
BRANCH  14  16
HETATM   16  C7  UNL     1      25.094   2.521  51.460  1.00  0.00     0.140 C 
BRANCH  16  17
HETATM   17  C8  UNL     1      26.281   2.882  50.640  1.00  0.00     0.194 C 
BRANCH  17  18
HETATM   18  O1  UNL     1      27.364   3.015  51.530  1.00  0.00    -0.399 OA
HETATM   19  H11 UNL     1      27.997   2.263  51.376  1.00  0.00     0.209 HD
ENDBRANCH  17  18
ENDBRANCH  16  17
BRANCH  16  20
HETATM   20  C9  UNL     1      23.879   2.915  50.700  1.00  0.00    -0.034 A 
HETATM   21  C10 UNL     1      22.611   2.984  51.242  1.00  0.00     0.009 A 
HETATM   22  C11 UNL     1      21.527   3.360  50.467  1.00  0.00     0.001 A 
HETATM   23  C12 UNL     1      21.669   3.679  49.127  1.00  0.00     0.000 A 
HETATM   24  C13 UNL     1      22.922   3.624  48.533  1.00  0.00     0.001 A 
HETATM   25  C14 UNL     1      23.966   3.245  49.348  1.00  0.00     0.009 A 
ENDBRANCH  16  20
ENDBRANCH  14  16
ENDBRANCH  10  14
TORSDOF 5
ENDMDL
MODEL 8
REMARK VINA RESULT:      -7.2      2.381      5.432
REMARK  5 active torsions:
REMARK  status: ('A' for Active; 'I' for Inactive)
REMARK    1  A    between atoms: C6_10  and  N4_11 
REMARK    2  A    between atoms: N4_11  and  C7_12 
REMARK    3  A    between atoms: C7_12  and  C8_13 
REMARK    4  A    between atoms: C7_12  and  C9_15 
REMARK    5  A    between atoms: C8_13  and  O1_14 
ROOT
HETATM    1  C1  UNL     1      23.990   5.306  50.967  1.00  0.00     0.310 C 
HETATM    2  N1  UNL     1      24.931   4.766  49.995  1.00  0.00     0.093 N 
HETATM    3  C2  UNL     1      24.160   4.118  48.952  1.00  0.00     0.319 C 
HETATM    4  C3  UNL     1      23.464   3.048  49.766  1.00  0.00     0.022 A 
HETATM    5  S1  UNL     1      22.008   1.988  50.035  1.00  0.00    -0.072 SA
HETATM    6  C4  UNL     1      22.654   1.165  51.502  1.00  0.00     0.114 A 
HETATM    7  N2  UNL     1      22.032   0.233  52.199  1.00  0.00    -0.234 NA
HETATM    8  C5  UNL     1      22.657  -0.284  53.265  1.00  0.00     0.236 A 
HETATM    9  N3  UNL     1      23.861   0.220  53.495  1.00  0.00    -0.224 NA
HETATM   10  C6  UNL     1      24.468   1.150  52.791  1.00  0.00     0.139 A 
HETATM   11  C15 UNL     1      23.916   1.742  51.687  1.00  0.00     0.054 A 
HETATM   12  C16 UNL     1      24.358   2.707  50.818  1.00  0.00     0.002 A 
HETATM   13  C17 UNL     1      25.539   3.571  50.609  1.00  0.00     0.313 C 
ENDROOT
BRANCH  10  14
HETATM   14  N4  UNL     1      25.780   1.451  53.284  1.00  0.00    -0.363 N 
HETATM   15  H7  UNL     1      26.004   1.782  54.233  1.00  0.00     0.162 HD
BRANCH  14  16
HETATM   16  C7  UNL     1      26.983   1.342  52.503  1.00  0.00     0.140 C 
BRANCH  16  17
HETATM   17  C8  UNL     1      28.038   2.307  52.914  1.00  0.00     0.194 C 
BRANCH  17  18
HETATM   18  O1  UNL     1      27.618   2.871  54.135  1.00  0.00    -0.399 OA
HETATM   19  H11 UNL     1      26.682   3.192  54.032  1.00  0.00     0.209 HD
ENDBRANCH  17  18
ENDBRANCH  16  17
BRANCH  16  20
HETATM   20  C9  UNL     1      27.518  -0.031  52.706  1.00  0.00    -0.034 A 
HETATM   21  C10 UNL     1      28.746  -0.310  53.270  1.00  0.00     0.009 A 
HETATM   22  C11 UNL     1      29.174  -1.618  53.426  1.00  0.00     0.001 A 
HETATM   23  C12 UNL     1      28.393  -2.690  53.025  1.00  0.00     0.000 A 
HETATM   24  C13 UNL     1      27.151  -2.462  52.451  1.00  0.00     0.001 A 
HETATM   25  C14 UNL     1      26.773  -1.144  52.320  1.00  0.00     0.009 A 
ENDBRANCH  16  20
ENDBRANCH  14  16
ENDBRANCH  10  14
TORSDOF 5
ENDMDL
MODEL 9
REMARK VINA RESULT:      -7.0      2.674      6.512
REMARK  5 active torsions:
REMARK  status: ('A' for Active; 'I' for Inactive)
REMARK    1  A    between atoms: C6_10  and  N4_11 
REMARK    2  A    between atoms: N4_11  and  C7_12 
REMARK    3  A    between atoms: C7_12  and  C8_13 
REMARK    4  A    between atoms: C7_12  and  C9_15 
REMARK    5  A    between atoms: C8_13  and  O1_14 
ROOT
HETATM    1  C1  UNL     1      20.380   2.399  50.482  1.00  0.00     0.310 C 
HETATM    2  N1  UNL     1      20.242   3.436  51.495  1.00  0.00     0.093 N 
HETATM    3  C2  UNL     1      20.410   4.718  50.838  1.00  0.00     0.319 C 
HETATM    4  C3  UNL     1      21.827   4.568  50.327  1.00  0.00     0.022 A 
HETATM    5  S1  UNL     1      23.082   4.949  49.063  1.00  0.00    -0.072 SA
HETATM    6  C4  UNL     1      24.407   4.007  49.838  1.00  0.00     0.114 A 
HETATM    7  N2  UNL     1      25.639   3.888  49.378  1.00  0.00    -0.234 NA
HETATM    8  C5  UNL     1      26.510   3.153  50.081  1.00  0.00     0.236 A 
HETATM    9  N3  UNL     1      26.013   2.620  51.188  1.00  0.00    -0.224 NA
HETATM   10  C6  UNL     1      24.782   2.747  51.634  1.00  0.00     0.139 A 
HETATM   11  C15 UNL     1      23.817   3.474  50.990  1.00  0.00     0.054 A 
HETATM   12  C16 UNL     1      22.501   3.741  51.267  1.00  0.00     0.002 A 
HETATM   13  C17 UNL     1      21.484   3.422  52.291  1.00  0.00     0.313 C 
ENDROOT
BRANCH  10  14
HETATM   14  N4  UNL     1      24.572   2.072  52.880  1.00  0.00    -0.363 N 
HETATM   15  H7  UNL     1      24.146   2.482  53.723  1.00  0.00     0.162 HD
BRANCH  14  16
HETATM   16  C7  UNL     1      24.946   0.705  53.133  1.00  0.00     0.140 C 
BRANCH  16  17
HETATM   17  C8  UNL     1      25.964   0.566  54.209  1.00  0.00     0.194 C 
BRANCH  17  18
HETATM   18  O1  UNL     1      26.607   1.814  54.323  1.00  0.00    -0.399 OA
HETATM   19  H11 UNL     1      27.225   1.783  55.102  1.00  0.00     0.209 HD
ENDBRANCH  17  18
ENDBRANCH  16  17
BRANCH  16  20
HETATM   20  C9  UNL     1      23.720  -0.013  53.571  1.00  0.00    -0.034 A 
HETATM   21  C10 UNL     1      23.648  -0.812  54.694  1.00  0.00     0.009 A 
HETATM   22  C11 UNL     1      22.467  -1.450  55.037  1.00  0.00     0.001 A 
HETATM   23  C12 UNL     1      21.320  -1.313  54.271  1.00  0.00     0.000 A 
HETATM   24  C13 UNL     1      21.341  -0.522  53.132  1.00  0.00     0.001 A 
HETATM   25  C14 UNL     1      22.540   0.090  52.837  1.00  0.00     0.009 A 
ENDBRANCH  16  20
ENDBRANCH  14  16
ENDBRANCH  10  14
TORSDOF 5
ENDMDL
