MODEL 1
REMARK VINA RESULT:      -8.0      0.000      0.000
REMARK  2 active torsions:
REMARK  status: ('A' for Active; 'I' for Inactive)
REMARK    1  A    between atoms: C9_11  and  N3_12 
REMARK       I    between atoms: N3_12  and  C10_13 
REMARK    2  A    between atoms: C10_13  and  C11_15 
ROOT
HETATM    1  C1  UNL     1      27.890  -0.820  53.079  1.00  0.00     0.018 C 
HETATM    2  C2  UNL     1      27.676  -0.030  54.349  1.00  0.00     0.046 C 
HETATM    3  C3  UNL     1      28.758   0.968  54.504  1.00  0.00    -0.021 C 
HETATM    4  C4  UNL     1      28.653   1.970  53.610  1.00  0.00    -0.011 C 
HETATM    5  C5  UNL     1      27.562   1.989  52.634  1.00  0.00     0.147 C 
HETATM    6  N1  UNL     1      26.327   1.419  53.041  1.00  0.00    -0.373 N 
HETATM    7  C6  UNL     1      25.259   1.979  52.385  1.00  0.00     0.243 C 
HETATM    8  N2  UNL     1      23.926   1.871  52.856  1.00  0.00    -0.372 N 
HETATM    9  C7  UNL     1      23.275   0.734  53.462  1.00  0.00     0.058 A 
HETATM   10  C8  UNL     1      21.919   0.784  53.342  1.00  0.00     0.061 A 
HETATM   11  C9  UNL     1      21.190  -0.269  53.895  1.00  0.00     0.037 A 
HETATM   12  C12 UNL     1      21.867  -1.287  54.521  1.00  0.00     0.032 A 
HETATM   13  C13 UNL     1      23.224  -1.326  54.634  1.00  0.00     0.034 A 
HETATM   14  C14 UNL     1      23.975  -0.300  54.099  1.00  0.00     0.056 A 
HETATM   15  N4  UNL     1      25.399  -0.450  54.279  1.00  0.00    -0.366 N 
HETATM   16  C15 UNL     1      26.314   0.661  54.191  1.00  0.00     0.188 C 
HETATM   17  H11 UNL     1      23.293   2.722  52.767  1.00  0.00     0.161 HD
HETATM   18  H18 UNL     1      25.679  -1.456  54.480  1.00  0.00     0.161 HD
ENDROOT
BRANCH  11  19
HETATM   19  N3  UNL     1      19.786  -0.218  53.771  1.00  0.00    -0.326 N 
HETATM   20  C10 UNL     1      19.309  -0.127  52.443  1.00  0.00     0.235 C 
HETATM   21  O1  UNL     1      20.091  -0.095  51.456  1.00  0.00    -0.272 OA
HETATM   22  H13 UNL     1      19.161  -0.247  54.610  1.00  0.00     0.169 HD
BRANCH  20  23
HETATM   23  C11 UNL     1      17.849  -0.066  52.176  1.00  0.00     0.217 C 
HETATM   24 CL1  UNL     1      17.065  -1.468  52.949  1.00  0.00    -0.121 Cl
ENDBRANCH  20  23
ENDBRANCH  11  19
TORSDOF 2
ENDMDL
MODEL 2
REMARK VINA RESULT:      -7.7      5.153      7.640
REMARK  2 active torsions:
REMARK  status: ('A' for Active; 'I' for Inactive)
REMARK    1  A    between atoms: C9_11  and  N3_12 
REMARK       I    between atoms: N3_12  and  C10_13 
REMARK    2  A    between atoms: C10_13  and  C11_15 
ROOT
HETATM    1  C1  UNL     1      22.340   6.379  49.859  1.00  0.00     0.018 C 
HETATM    2  C2  UNL     1      22.510   5.441  48.688  1.00  0.00     0.046 C 
HETATM    3  C3  UNL     1      22.542   6.215  47.427  1.00  0.00    -0.021 C 
HETATM    4  C4  UNL     1      23.680   6.924  47.299  1.00  0.00    -0.011 C 
HETATM    5  C5  UNL     1      24.713   6.873  48.336  1.00  0.00     0.147 C 
HETATM    6  N1  UNL     1      24.845   5.653  49.049  1.00  0.00    -0.373 N 
HETATM    7  C6  UNL     1      26.120   5.467  49.522  1.00  0.00     0.243 C 
HETATM    8  N2  UNL     1      26.612   4.201  49.927  1.00  0.00    -0.372 N 
HETATM    9  C7  UNL     1      25.926   3.158  50.653  1.00  0.00     0.058 A 
HETATM   10  C8  UNL     1      26.783   2.319  51.298  1.00  0.00     0.061 A 
HETATM   11  C9  UNL     1      26.223   1.275  52.032  1.00  0.00     0.037 A 
HETATM   12  C12 UNL     1      24.856   1.147  52.067  1.00  0.00     0.032 A 
HETATM   13  C13 UNL     1      24.008   1.994  51.418  1.00  0.00     0.034 A 
HETATM   14  C14 UNL     1      24.529   3.037  50.683  1.00  0.00     0.056 A 
HETATM   15  N4  UNL     1      23.537   3.866  50.041  1.00  0.00    -0.366 N 
HETATM   16  C15 UNL     1      23.845   4.716  48.918  1.00  0.00     0.188 C 
HETATM   17  H11 UNL     1      27.616   3.951  49.679  1.00  0.00     0.161 HD
HETATM   18  H18 UNL     1      22.577   3.771  50.490  1.00  0.00     0.161 HD
ENDROOT
BRANCH  11  19
HETATM   19  N3  UNL     1      27.110   0.405  52.701  1.00  0.00    -0.326 N 
HETATM   20  C10 UNL     1      27.568   0.872  53.955  1.00  0.00     0.235 C 
HETATM   21  O1  UNL     1      27.202   1.982  54.426  1.00  0.00    -0.272 OA
HETATM   22  H13 UNL     1      27.397  -0.510  52.285  1.00  0.00     0.169 HD
BRANCH  20  23
HETATM   23  C11 UNL     1      28.508   0.051  54.760  1.00  0.00     0.217 C 
HETATM   24 CL1  UNL     1      29.704  -0.690  53.666  1.00  0.00    -0.121 Cl
ENDBRANCH  20  23
ENDBRANCH  11  19
TORSDOF 2
ENDMDL
MODEL 3
REMARK VINA RESULT:      -7.7      1.744      2.723
REMARK  2 active torsions:
REMARK  status: ('A' for Active; 'I' for Inactive)
REMARK    1  A    between atoms: C9_11  and  N3_12 
REMARK       I    between atoms: N3_12  and  C10_13 
REMARK    2  A    between atoms: C10_13  and  C11_15 
ROOT
HETATM    1  C1  UNL     1      28.058   2.473  53.859  1.00  0.00     0.018 C 
HETATM    2  C2  UNL     1      28.248   1.332  52.888  1.00  0.00     0.046 C 
HETATM    3  C3  UNL     1      29.363   0.471  53.341  1.00  0.00    -0.021 C 
HETATM    4  C4  UNL     1      29.040  -0.236  54.440  1.00  0.00    -0.011 C 
HETATM    5  C5  UNL     1      27.715  -0.107  55.049  1.00  0.00     0.147 C 
HETATM    6  N1  UNL     1      26.631   0.167  54.175  1.00  0.00    -0.373 N 
HETATM    7  C6  UNL     1      25.439  -0.306  54.665  1.00  0.00     0.243 C 
HETATM    8  N2  UNL     1      24.297  -0.502  53.849  1.00  0.00    -0.372 N 
HETATM    9  C7  UNL     1      23.808   0.325  52.771  1.00  0.00     0.058 A 
HETATM   10  C8  UNL     1      22.478   0.147  52.537  1.00  0.00     0.061 A 
HETATM   11  C9  UNL     1      21.903   0.900  51.514  1.00  0.00     0.037 A 
HETATM   12  C12 UNL     1      22.695   1.769  50.805  1.00  0.00     0.032 A 
HETATM   13  C13 UNL     1      24.026   1.939  51.049  1.00  0.00     0.034 A 
HETATM   14  C14 UNL     1      24.625   1.210  52.054  1.00  0.00     0.056 A 
HETATM   15  N4  UNL     1      26.035   1.474  52.219  1.00  0.00    -0.366 N 
HETATM   16  C15 UNL     1      26.923   0.555  52.886  1.00  0.00     0.188 C 
HETATM   17  H11 UNL     1      23.695  -1.361  54.027  1.00  0.00     0.161 HD
HETATM   18  H18 UNL     1      26.325   2.407  51.798  1.00  0.00     0.161 HD
ENDROOT
BRANCH  11  19
HETATM   19  N3  UNL     1      20.526   0.716  51.271  1.00  0.00    -0.326 N 
HETATM   20  C10 UNL     1      19.677   1.624  51.947  1.00  0.00     0.235 C 
HETATM   21  O1  UNL     1      20.132   2.522  52.704  1.00  0.00    -0.272 OA
HETATM   22  H13 UNL     1      20.178  -0.039  50.637  1.00  0.00     0.169 HD
BRANCH  20  23
HETATM   23  C11 UNL     1      18.204   1.537  51.777  1.00  0.00     0.217 C 
HETATM   24 CL1  UNL     1      17.758  -0.167  51.507  1.00  0.00    -0.121 Cl
ENDBRANCH  20  23
ENDBRANCH  11  19
TORSDOF 2
ENDMDL
MODEL 4
REMARK VINA RESULT:      -7.5      4.597      7.253
REMARK  2 active torsions:
REMARK  status: ('A' for Active; 'I' for Inactive)
REMARK    1  A    between atoms: C9_11  and  N3_12 
REMARK       I    between atoms: N3_12  and  C10_13 
REMARK    2  A    between atoms: C10_13  and  C11_15 
ROOT
HETATM    1  C1  UNL     1      21.742  -1.000  52.458  1.00  0.00     0.018 C 
HETATM    2  C2  UNL     1      21.707   0.222  53.344  1.00  0.00     0.046 C 
HETATM    3  C3  UNL     1      21.519  -0.188  54.754  1.00  0.00    -0.021 C 
HETATM    4  C4  UNL     1      22.616  -0.785  55.257  1.00  0.00    -0.011 C 
HETATM    5  C5  UNL     1      23.814  -0.964  54.433  1.00  0.00     0.147 C 
HETATM    6  N1  UNL     1      24.070   0.027  53.450  1.00  0.00    -0.373 N 
HETATM    7  C6  UNL     1      25.408   0.139  53.165  1.00  0.00     0.243 C 
HETATM    8  N2  UNL     1      25.964   1.273  52.523  1.00  0.00    -0.372 N 
HETATM    9  C7  UNL     1      25.416   2.053  51.438  1.00  0.00     0.058 A 
HETATM   10  C8  UNL     1      26.374   2.728  50.744  1.00  0.00     0.061 A 
HETATM   11  C9  UNL     1      25.951   3.514  49.673  1.00  0.00     0.037 A 
HETATM   12  C12 UNL     1      24.611   3.566  49.376  1.00  0.00     0.032 A 
HETATM   13  C13 UNL     1      23.662   2.884  50.078  1.00  0.00     0.034 A 
HETATM   14  C14 UNL     1      24.046   2.098  51.143  1.00  0.00     0.056 A 
HETATM   15  N4  UNL     1      22.956   1.425  51.809  1.00  0.00    -0.366 N 
HETATM   16  C15 UNL     1      23.063   0.919  53.155  1.00  0.00     0.188 C 
HETATM   17  H11 UNL     1      26.911   1.625  52.858  1.00  0.00     0.161 HD
HETATM   18  H18 UNL     1      22.089   1.354  51.197  1.00  0.00     0.161 HD
ENDROOT
BRANCH  11  19
HETATM   19  N3  UNL     1      26.942   4.214  48.953  1.00  0.00    -0.326 N 
HETATM   20  C10 UNL     1      26.851   5.623  49.033  1.00  0.00     0.235 C 
HETATM   21  O1  UNL     1      25.947   6.195  49.699  1.00  0.00    -0.272 OA
HETATM   22  H13 UNL     1      27.680   3.712  48.409  1.00  0.00     0.169 HD
BRANCH  20  23
HETATM   23  C11 UNL     1      27.835   6.477  48.318  1.00  0.00     0.217 C 
HETATM   24 CL1  UNL     1      29.355   5.566  48.132  1.00  0.00    -0.121 Cl
ENDBRANCH  20  23
ENDBRANCH  11  19
TORSDOF 2
ENDMDL
MODEL 5
REMARK VINA RESULT:      -7.5      5.097      7.753
REMARK  2 active torsions:
REMARK  status: ('A' for Active; 'I' for Inactive)
REMARK    1  A    between atoms: C9_11  and  N3_12 
REMARK       I    between atoms: N3_12  and  C10_13 
REMARK    2  A    between atoms: C10_13  and  C11_15 
ROOT
HETATM    1  C1  UNL     1      22.519   5.843  48.349  1.00  0.00     0.018 C 
HETATM    2  C2  UNL     1      23.389   6.738  49.199  1.00  0.00     0.046 C 
HETATM    3  C3  UNL     1      22.660   7.985  49.522  1.00  0.00    -0.021 C 
HETATM    4  C4  UNL     1      21.657   7.771  50.395  1.00  0.00    -0.011 C 
HETATM    5  C5  UNL     1      21.391   6.428  50.915  1.00  0.00     0.147 C 
HETATM    6  N1  UNL     1      22.509   5.566  51.066  1.00  0.00    -0.373 N 
HETATM    7  C6  UNL     1      22.313   4.635  52.055  1.00  0.00     0.243 C 
HETATM    8  N2  UNL     1      23.378   3.919  52.657  1.00  0.00    -0.372 N 
HETATM    9  C7  UNL     1      24.561   3.372  52.034  1.00  0.00     0.058 A 
HETATM   10  C8  UNL     1      25.107   2.353  52.755  1.00  0.00     0.061 A 
HETATM   11  C9  UNL     1      26.256   1.752  52.242  1.00  0.00     0.037 A 
HETATM   12  C12 UNL     1      26.769   2.210  51.054  1.00  0.00     0.032 A 
HETATM   13  C13 UNL     1      26.213   3.230  50.341  1.00  0.00     0.034 A 
HETATM   14  C14 UNL     1      25.077   3.846  50.821  1.00  0.00     0.056 A 
HETATM   15  N4  UNL     1      24.579   4.911  49.982  1.00  0.00    -0.366 N 
HETATM   16  C15 UNL     1      23.696   5.939  50.475  1.00  0.00     0.188 C 
HETATM   17  H11 UNL     1      23.334   3.742  53.705  1.00  0.00     0.161 HD
HETATM   18  H18 UNL     1      24.938   4.841  48.983  1.00  0.00     0.161 HD
ENDROOT
BRANCH  11  19
HETATM   19  N3  UNL     1      26.822   0.697  52.988  1.00  0.00    -0.326 N 
HETATM   20  C10 UNL     1      27.803   1.093  53.926  1.00  0.00     0.235 C 
HETATM   21  O1  UNL     1      28.135   2.299  54.074  1.00  0.00    -0.272 OA
HETATM   22  H13 UNL     1      26.526  -0.295  52.843  1.00  0.00     0.169 HD
BRANCH  20  23
HETATM   23  C11 UNL     1      28.478   0.077  54.775  1.00  0.00     0.217 C 
HETATM   24 CL1  UNL     1      29.413  -1.018  53.724  1.00  0.00    -0.121 Cl
ENDBRANCH  20  23
ENDBRANCH  11  19
TORSDOF 2
ENDMDL
MODEL 6
REMARK VINA RESULT:      -7.4      3.993      7.168
REMARK  2 active torsions:
REMARK  status: ('A' for Active; 'I' for Inactive)
REMARK    1  A    between atoms: C9_11  and  N3_12 
REMARK       I    between atoms: N3_12  and  C10_13 
REMARK    2  A    between atoms: C10_13  and  C11_15 
ROOT
HETATM    1  C1  UNL     1      19.040   1.346  51.845  1.00  0.00     0.018 C 
HETATM    2  C2  UNL     1      19.860   1.004  50.624  1.00  0.00     0.046 C 
HETATM    3  C3  UNL     1      19.283   1.667  49.433  1.00  0.00    -0.021 C 
HETATM    4  C4  UNL     1      19.477   2.999  49.453  1.00  0.00    -0.011 C 
HETATM    5  C5  UNL     1      20.188   3.634  50.564  1.00  0.00     0.147 C 
HETATM    6  N1  UNL     1      21.208   2.872  51.192  1.00  0.00    -0.373 N 
HETATM    7  C6  UNL     1      22.177   3.667  51.753  1.00  0.00     0.243 C 
HETATM    8  N2  UNL     1      23.463   3.183  52.099  1.00  0.00    -0.372 N 
HETATM    9  C7  UNL     1      23.818   1.912  52.685  1.00  0.00     0.058 A 
HETATM   10  C8  UNL     1      25.016   1.952  53.333  1.00  0.00     0.061 A 
HETATM   11  C9  UNL     1      25.455   0.774  53.936  1.00  0.00     0.037 A 
HETATM   12  C12 UNL     1      24.669  -0.348  53.849  1.00  0.00     0.032 A 
HETATM   13  C13 UNL     1      23.472  -0.376  53.199  1.00  0.00     0.034 A 
HETATM   14  C14 UNL     1      23.009   0.771  52.591  1.00  0.00     0.056 A 
HETATM   15  N4  UNL     1      21.732   0.622  51.934  1.00  0.00    -0.366 N 
HETATM   16  C15 UNL     1      21.276   1.526  50.908  1.00  0.00     0.188 C 
HETATM   17  H11 UNL     1      24.301   3.812  51.917  1.00  0.00     0.161 HD
HETATM   18  H18 UNL     1      21.187  -0.218  52.294  1.00  0.00     0.161 HD
ENDROOT
BRANCH  11  19
HETATM   19  N3  UNL     1      26.695   0.815  54.608  1.00  0.00    -0.326 N 
HETATM   20  C10 UNL     1      27.784   0.289  53.876  1.00  0.00     0.235 C 
HETATM   21  O1  UNL     1      27.643  -0.177  52.714  1.00  0.00    -0.272 OA
HETATM   22  H13 UNL     1      26.782   1.208  55.573  1.00  0.00     0.169 HD
BRANCH  20  23
HETATM   23  C11 UNL     1      29.146   0.272  54.471  1.00  0.00     0.217 C 
HETATM   24 CL1  UNL     1      30.083  -1.045  53.720  1.00  0.00    -0.121 Cl
ENDBRANCH  20  23
ENDBRANCH  11  19
TORSDOF 2
ENDMDL
MODEL 7
REMARK VINA RESULT:      -7.3      4.986      6.865
REMARK  2 active torsions:
REMARK  status: ('A' for Active; 'I' for Inactive)
REMARK    1  A    between atoms: C9_11  and  N3_12 
REMARK       I    between atoms: N3_12  and  C10_13 
REMARK    2  A    between atoms: C10_13  and  C11_15 
ROOT
HETATM    1  C1  UNL     1      27.698   1.075  53.410  1.00  0.00     0.018 C 
HETATM    2  C2  UNL     1      27.132   0.283  52.256  1.00  0.00     0.046 C 
HETATM    3  C3  UNL     1      26.612  -1.013  52.745  1.00  0.00    -0.021 C 
HETATM    4  C4  UNL     1      25.489  -0.864  53.473  1.00  0.00    -0.011 C 
HETATM    5  C5  UNL     1      24.917   0.464  53.701  1.00  0.00     0.147 C 
HETATM    6  N1  UNL     1      25.093   1.424  52.670  1.00  0.00    -0.373 N 
HETATM    7  C6  UNL     1      24.090   2.361  52.660  1.00  0.00     0.243 C 
HETATM    8  N2  UNL     1      23.819   3.184  51.538  1.00  0.00    -0.372 N 
HETATM    9  C7  UNL     1      24.755   3.815  50.637  1.00  0.00     0.058 A 
HETATM   10  C8  UNL     1      24.223   4.896  50.003  1.00  0.00     0.061 A 
HETATM   11  C9  UNL     1      25.044   5.581  49.109  1.00  0.00     0.037 A 
HETATM   12  C12 UNL     1      26.329   5.137  48.916  1.00  0.00     0.032 A 
HETATM   13  C13 UNL     1      26.852   4.053  49.557  1.00  0.00     0.034 A 
HETATM   14  C14 UNL     1      26.066   3.354  50.447  1.00  0.00     0.056 A 
HETATM   15  N4  UNL     1      26.725   2.227  51.064  1.00  0.00    -0.366 N 
HETATM   16  C15 UNL     1      25.999   1.140  51.672  1.00  0.00     0.188 C 
HETATM   17  H11 UNL     1      22.803   3.385  51.297  1.00  0.00     0.161 HD
HETATM   18  H18 UNL     1      27.785   2.301  51.013  1.00  0.00     0.161 HD
ENDROOT
BRANCH  11  19
HETATM   19  N3  UNL     1      24.493   6.701  48.452  1.00  0.00    -0.326 N 
HETATM   20  C10 UNL     1      24.626   7.924  49.150  1.00  0.00     0.235 C 
HETATM   21  O1  UNL     1      25.195   7.992  50.272  1.00  0.00    -0.272 OA
HETATM   22  H13 UNL     1      24.026   6.615  47.520  1.00  0.00     0.169 HD
BRANCH  20  23
HETATM   23  C11 UNL     1      24.087   9.180  48.567  1.00  0.00     0.217 C 
HETATM   24 CL1  UNL     1      22.339   9.266  48.908  1.00  0.00    -0.121 Cl
ENDBRANCH  20  23
ENDBRANCH  11  19
TORSDOF 2
ENDMDL
MODEL 8
REMARK VINA RESULT:      -7.2      4.785      6.198
REMARK  2 active torsions:
REMARK  status: ('A' for Active; 'I' for Inactive)
REMARK    1  A    between atoms: C9_11  and  N3_12 
REMARK       I    between atoms: N3_12  and  C10_13 
REMARK    2  A    between atoms: C10_13  and  C11_15 
ROOT
HETATM    1  C1  UNL     1      25.453   7.253  47.602  1.00  0.00     0.018 C 
HETATM    2  C2  UNL     1      26.538   6.572  48.402  1.00  0.00     0.046 C 
HETATM    3  C3  UNL     1      27.622   7.536  48.695  1.00  0.00    -0.021 C 
HETATM    4  C4  UNL     1      27.243   8.464  49.595  1.00  0.00    -0.011 C 
HETATM    5  C5  UNL     1      25.895   8.443  50.167  1.00  0.00     0.147 C 
HETATM    6  N1  UNL     1      25.285   7.171  50.326  1.00  0.00    -0.373 N 
HETATM    7  C6  UNL     1      24.372   7.161  51.351  1.00  0.00     0.243 C 
HETATM    8  N2  UNL     1      23.910   5.965  51.956  1.00  0.00    -0.372 N 
HETATM    9  C7  UNL     1      23.592   4.704  51.329  1.00  0.00     0.058 A 
HETATM   10  C8  UNL     1      22.734   3.952  52.074  1.00  0.00     0.061 A 
HETATM   11  C9  UNL     1      22.360   2.712  51.559  1.00  0.00     0.037 A 
HETATM   12  C12 UNL     1      22.867   2.317  50.346  1.00  0.00     0.032 A 
HETATM   13  C13 UNL     1      23.724   3.079  49.609  1.00  0.00     0.034 A 
HETATM   14  C14 UNL     1      24.114   4.310  50.089  1.00  0.00     0.056 A 
HETATM   15  N4  UNL     1      25.022   5.026  49.224  1.00  0.00    -0.366 N 
HETATM   16  C15 UNL     1      25.867   6.093  49.698  1.00  0.00     0.188 C 
HETATM   17  H11 UNL     1      23.769   5.959  53.011  1.00  0.00     0.161 HD
HETATM   18  H18 UNL     1      24.989   4.673  48.221  1.00  0.00     0.161 HD
ENDROOT
BRANCH  11  19
HETATM   19  N3  UNL     1      21.471   1.933  52.330  1.00  0.00    -0.326 N 
HETATM   20  C10 UNL     1      22.090   0.957  53.145  1.00  0.00     0.235 C 
HETATM   21  O1  UNL     1      23.341   0.807  53.171  1.00  0.00    -0.272 OA
HETATM   22  H13 UNL     1      20.437   2.080  52.288  1.00  0.00     0.169 HD
BRANCH  20  23
HETATM   23  C11 UNL     1      21.266   0.070  54.006  1.00  0.00     0.217 C 
HETATM   24 CL1  UNL     1      22.352  -0.929  55.006  1.00  0.00    -0.121 Cl
ENDBRANCH  20  23
ENDBRANCH  11  19
TORSDOF 2
ENDMDL
MODEL 9
REMARK VINA RESULT:      -7.1      3.992      7.414
REMARK  2 active torsions:
REMARK  status: ('A' for Active; 'I' for Inactive)
REMARK    1  A    between atoms: C9_11  and  N3_12 
REMARK       I    between atoms: N3_12  and  C10_13 
REMARK    2  A    between atoms: C10_13  and  C11_15 
ROOT
HETATM    1  C1  UNL     1      20.400   3.904  49.841  1.00  0.00     0.018 C 
HETATM    2  C2  UNL     1      19.938   3.954  51.278  1.00  0.00     0.046 C 
HETATM    3  C3  UNL     1      18.463   3.847  51.332  1.00  0.00    -0.021 C 
HETATM    4  C4  UNL     1      18.035   2.611  51.014  1.00  0.00    -0.011 C 
HETATM    5  C5  UNL     1      18.989   1.555  50.668  1.00  0.00     0.147 C 
HETATM    6  N1  UNL     1      20.257   1.603  51.304  1.00  0.00    -0.373 N 
HETATM    7  C6  UNL     1      20.825   0.359  51.417  1.00  0.00     0.243 C 
HETATM    8  N2  UNL     1      21.879   0.075  52.321  1.00  0.00    -0.372 N 
HETATM    9  C7  UNL     1      23.016   0.897  52.666  1.00  0.00     0.058 A 
HETATM   10  C8  UNL     1      24.060   0.169  53.150  1.00  0.00     0.061 A 
HETATM   11  C9  UNL     1      25.211   0.867  53.514  1.00  0.00     0.037 A 
HETATM   12  C12 UNL     1      25.233   2.232  53.366  1.00  0.00     0.032 A 
HETATM   13  C13 UNL     1      24.181   2.950  52.879  1.00  0.00     0.034 A 
HETATM   14  C14 UNL     1      23.028   2.291  52.511  1.00  0.00     0.056 A 
HETATM   15  N4  UNL     1      21.985   3.153  52.010  1.00  0.00    -0.366 N 
HETATM   16  C15 UNL     1      20.599   2.756  51.975  1.00  0.00     0.188 C 
HETATM   17  H11 UNL     1      21.864  -0.858  52.832  1.00  0.00     0.161 HD
HETATM   18  H18 UNL     1      22.359   4.093  51.681  1.00  0.00     0.161 HD
ENDROOT
BRANCH  11  19
HETATM   19  N3  UNL     1      26.293   0.113  54.016  1.00  0.00    -0.326 N 
HETATM   20  C10 UNL     1      27.234  -0.295  53.043  1.00  0.00     0.235 C 
HETATM   21  O1  UNL     1      27.103  -0.001  51.825  1.00  0.00    -0.272 OA
HETATM   22  H13 UNL     1      26.375  -0.116  55.033  1.00  0.00     0.169 HD
BRANCH  20  23
HETATM   23  C11 UNL     1      28.421  -1.096  53.441  1.00  0.00     0.217 C 
HETATM   24 CL1  UNL     1      29.852  -0.034  53.450  1.00  0.00    -0.121 Cl
ENDBRANCH  20  23
ENDBRANCH  11  19
TORSDOF 2
ENDMDL
