MODEL 1
REMARK VINA RESULT:      -6.8      0.000      0.000
REMARK  5 active torsions:
REMARK  status: ('A' for Active; 'I' for Inactive)
REMARK    1  A    between atoms: O1_2  and  C2_3 
REMARK    2  A    between atoms: C4_5  and  N1_6 
REMARK    3  A    between atoms: N1_6  and  C5_7 
REMARK    4  A    between atoms: N3_9  and  C6_10 
REMARK    5  A    between atoms: C13_18  and  O2_19 
ROOT
HETATM    1  C2  UNL     1      26.812   1.361  52.847  1.00  0.00     0.106 A 
HETATM    2  C3  UNL     1      25.748   2.272  52.931  1.00  0.00     0.090 A 
HETATM    3  C4  UNL     1      24.421   1.845  53.050  1.00  0.00     0.138 A 
HETATM    4  N3  UNL     1      24.208   0.519  53.079  1.00  0.00    -0.304 N 
HETATM    5  C12 UNL     1      25.229  -0.352  52.998  1.00  0.00     0.138 A 
HETATM    6  C13 UNL     1      26.543   0.007  52.881  1.00  0.00     0.117 A 
ENDROOT
BRANCH   4   7
HETATM    7  C6  UNL     1      22.834   0.176  53.203  1.00  0.00     0.042 A 
HETATM    8  C7  UNL     1      22.376  -0.502  54.340  1.00  0.00     0.030 A 
HETATM    9  C8  UNL     1      21.057  -0.840  54.488  1.00  0.00     0.004 A 
HETATM   10  C9  UNL     1      20.100  -0.535  53.528  1.00  0.00     0.019 A 
HETATM   11  C10 UNL     1      20.588   0.128  52.431  1.00  0.00     0.013 A 
HETATM   12 BR1  UNL     1      19.300   0.564  51.089  1.00  0.00    -0.051 Br
HETATM   13  C11 UNL     1      21.896   0.500  52.212  1.00  0.00     0.049 A 
ENDBRANCH   4   7
BRANCH   3  14
HETATM   14  N1  UNL     1      23.669   2.875  53.106  1.00  0.00    -0.225 NA
BRANCH  14  15
HETATM   15  C5  UNL     1      23.743   4.043  52.312  1.00  0.00     0.225 C 
HETATM   16  N2  UNL     1      23.606   5.137  53.021  1.00  0.00    -0.293 NA
HETATM   17  H6  UNL     1      23.636   6.093  52.593  1.00  0.00     0.187 HD
ENDBRANCH  14  15
ENDBRANCH   3  14
BRANCH   6  18
HETATM   18  O2  UNL     1      27.563  -0.901  52.800  1.00  0.00    -0.352 OA
HETATM   19  C14 UNL     1      27.464  -2.284  52.680  1.00  0.00     0.210 C 
ENDBRANCH   6  18
BRANCH   1  20
HETATM   20  O1  UNL     1      28.137   1.733  52.729  1.00  0.00    -0.353 OA
HETATM   21  C1  UNL     1      28.905   2.332  53.746  1.00  0.00     0.210 C 
ENDBRANCH   1  20
TORSDOF 5
ENDMDL
MODEL 2
REMARK VINA RESULT:      -6.6      3.859      6.046
REMARK  5 active torsions:
REMARK  status: ('A' for Active; 'I' for Inactive)
REMARK    1  A    between atoms: O1_2  and  C2_3 
REMARK    2  A    between atoms: C4_5  and  N1_6 
REMARK    3  A    between atoms: N1_6  and  C5_7 
REMARK    4  A    between atoms: N3_9  and  C6_10 
REMARK    5  A    between atoms: C13_18  and  O2_19 
ROOT
HETATM    1  C2  UNL     1      23.365   2.410  50.924  1.00  0.00     0.106 A 
HETATM    2  C3  UNL     1      24.622   2.819  50.453  1.00  0.00     0.090 A 
HETATM    3  C4  UNL     1      25.807   2.437  51.092  1.00  0.00     0.138 A 
HETATM    4  N3  UNL     1      25.689   1.660  52.182  1.00  0.00    -0.304 N 
HETATM    5  C12 UNL     1      24.483   1.270  52.631  1.00  0.00     0.138 A 
HETATM    6  C13 UNL     1      23.294   1.611  52.048  1.00  0.00     0.117 A 
ENDROOT
BRANCH   4   7
HETATM    7  C6  UNL     1      26.940   1.320  52.764  1.00  0.00     0.042 A 
HETATM    8  C7  UNL     1      27.715   2.304  53.393  1.00  0.00     0.030 A 
HETATM    9  C8  UNL     1      28.922   2.005  53.967  1.00  0.00     0.004 A 
HETATM   10  C9  UNL     1      29.448   0.719  53.961  1.00  0.00     0.019 A 
HETATM   11  C10 UNL     1      28.660  -0.214  53.336  1.00  0.00     0.013 A 
HETATM   12 BR1  UNL     1      29.352  -1.995  53.309  1.00  0.00    -0.051 Br
HETATM   13  C11 UNL     1      27.440   0.011  52.738  1.00  0.00     0.049 A 
ENDBRANCH   4   7
BRANCH   3  14
HETATM   14  N1  UNL     1      26.790   2.946  50.456  1.00  0.00    -0.225 NA
BRANCH  14  15
HETATM   15  C5  UNL     1      26.743   3.897  49.412  1.00  0.00     0.225 C 
HETATM   16  N2  UNL     1      27.783   4.695  49.416  1.00  0.00    -0.293 NA
HETATM   17  H6  UNL     1      27.910   5.460  48.712  1.00  0.00     0.187 HD
ENDBRANCH  14  15
ENDBRANCH   3  14
BRANCH   6  18
HETATM   18  O2  UNL     1      22.080   1.200  52.527  1.00  0.00    -0.352 OA
HETATM   19  C14 UNL     1      21.607  -0.103  52.642  1.00  0.00     0.210 C 
ENDBRANCH   6  18
BRANCH   1  20
HETATM   20  O1  UNL     1      22.169   2.760  50.328  1.00  0.00    -0.353 OA
HETATM   21  C1  UNL     1      21.712   2.285  49.084  1.00  0.00     0.210 C 
ENDBRANCH   1  20
TORSDOF 5
ENDMDL
MODEL 3
REMARK VINA RESULT:      -6.5      3.360      5.848
REMARK  5 active torsions:
REMARK  status: ('A' for Active; 'I' for Inactive)
REMARK    1  A    between atoms: O1_2  and  C2_3 
REMARK    2  A    between atoms: C4_5  and  N1_6 
REMARK    3  A    between atoms: N1_6  and  C5_7 
REMARK    4  A    between atoms: N3_9  and  C6_10 
REMARK    5  A    between atoms: C13_18  and  O2_19 
ROOT
HETATM    1  C2  UNL     1      23.209   0.194  53.056  1.00  0.00     0.106 A 
HETATM    2  C3  UNL     1      24.335   0.921  53.471  1.00  0.00     0.090 A 
HETATM    3  C4  UNL     1      24.829   2.001  52.729  1.00  0.00     0.138 A 
HETATM    4  N3  UNL     1      24.175   2.312  51.597  1.00  0.00    -0.304 N 
HETATM    5  C12 UNL     1      23.096   1.614  51.202  1.00  0.00     0.138 A 
HETATM    6  C13 UNL     1      22.570   0.552  51.885  1.00  0.00     0.117 A 
ENDROOT
BRANCH   4   7
HETATM    7  C6  UNL     1      24.743   3.419  50.911  1.00  0.00     0.042 A 
HETATM    8  C7  UNL     1      25.836   3.232  50.054  1.00  0.00     0.030 A 
HETATM    9  C8  UNL     1      26.400   4.280  49.376  1.00  0.00     0.004 A 
HETATM   10  C9  UNL     1      25.929   5.581  49.495  1.00  0.00     0.019 A 
HETATM   11  C10 UNL     1      24.859   5.723  50.343  1.00  0.00     0.013 A 
HETATM   12 BR1  UNL     1      24.184   7.500  50.531  1.00  0.00    -0.051 Br
HETATM   13  C11 UNL     1      24.241   4.720  51.056  1.00  0.00     0.049 A 
ENDBRANCH   4   7
BRANCH   3  14
HETATM   14  N1  UNL     1      25.850   2.472  53.333  1.00  0.00    -0.225 NA
BRANCH  14  15
HETATM   15  C5  UNL     1      27.097   1.840  53.541  1.00  0.00     0.225 C 
HETATM   16  N2  UNL     1      28.013   2.675  53.968  1.00  0.00    -0.293 NA
HETATM   17  H6  UNL     1      28.996   2.376  54.173  1.00  0.00     0.187 HD
ENDBRANCH  14  15
ENDBRANCH   3  14
BRANCH   6  18
HETATM   18  O2  UNL     1      21.470  -0.141  51.459  1.00  0.00    -0.352 OA
HETATM   19  C14 UNL     1      20.137   0.252  51.527  1.00  0.00     0.210 C 
ENDBRANCH   6  18
BRANCH   1  20
HETATM   20  O1  UNL     1      22.684  -0.877  53.753  1.00  0.00    -0.353 OA
HETATM   21  C1  UNL     1      21.870  -0.780  54.897  1.00  0.00     0.210 C 
ENDBRANCH   1  20
TORSDOF 5
ENDMDL
MODEL 4
REMARK VINA RESULT:      -6.3      2.829      4.977
REMARK  5 active torsions:
REMARK  status: ('A' for Active; 'I' for Inactive)
REMARK    1  A    between atoms: O1_2  and  C2_3 
REMARK    2  A    between atoms: C4_5  and  N1_6 
REMARK    3  A    between atoms: N1_6  and  C5_7 
REMARK    4  A    between atoms: N3_9  and  C6_10 
REMARK    5  A    between atoms: C13_18  and  O2_19 
ROOT
HETATM    1  C2  UNL     1      25.325  -0.018  53.940  1.00  0.00     0.106 A 
HETATM    2  C3  UNL     1      24.359   0.212  52.949  1.00  0.00     0.090 A 
HETATM    3  C4  UNL     1      24.464   1.281  52.052  1.00  0.00     0.138 A 
HETATM    4  N3  UNL     1      25.535   2.082  52.182  1.00  0.00    -0.304 N 
HETATM    5  C12 UNL     1      26.459   1.860  53.132  1.00  0.00     0.138 A 
HETATM    6  C13 UNL     1      26.409   0.833  54.034  1.00  0.00     0.117 A 
ENDROOT
BRANCH   4   7
HETATM    7  C6  UNL     1      25.560   3.138  51.231  1.00  0.00     0.042 A 
HETATM    8  C7  UNL     1      26.481   3.114  50.175  1.00  0.00     0.030 A 
HETATM    9  C8  UNL     1      26.526   4.116  49.242  1.00  0.00     0.004 A 
HETATM   10  C9  UNL     1      25.668   5.208  49.284  1.00  0.00     0.019 A 
HETATM   11  C10 UNL     1      24.783   5.194  50.331  1.00  0.00     0.013 A 
HETATM   12 BR1  UNL     1      23.587   6.682  50.421  1.00  0.00    -0.051 Br
HETATM   13  C11 UNL     1      24.679   4.226  51.305  1.00  0.00     0.049 A 
ENDBRANCH   4   7
BRANCH   3  14
HETATM   14  N1  UNL     1      23.457   1.250  51.267  1.00  0.00    -0.225 NA
BRANCH  14  15
HETATM   15  C5  UNL     1      22.090   1.173  51.620  1.00  0.00     0.225 C 
HETATM   16  N2  UNL     1      21.483   2.330  51.518  1.00  0.00    -0.293 NA
HETATM   17  H6  UNL     1      20.467   2.455  51.741  1.00  0.00     0.187 HD
ENDBRANCH  14  15
ENDBRANCH   3  14
BRANCH   6  18
HETATM   18  O2  UNL     1      27.364   0.630  54.992  1.00  0.00    -0.352 OA
HETATM   19  C14 UNL     1      28.670   0.185  54.811  1.00  0.00     0.210 C 
ENDBRANCH   6  18
BRANCH   1  20
HETATM   20  O1  UNL     1      25.266  -1.059  54.846  1.00  0.00    -0.353 OA
HETATM   21  C1  UNL     1      24.194  -1.310  55.723  1.00  0.00     0.210 C 
ENDBRANCH   1  20
TORSDOF 5
ENDMDL
MODEL 5
REMARK VINA RESULT:      -6.3      1.886      3.601
REMARK  5 active torsions:
REMARK  status: ('A' for Active; 'I' for Inactive)
REMARK    1  A    between atoms: O1_2  and  C2_3 
REMARK    2  A    between atoms: C4_5  and  N1_6 
REMARK    3  A    between atoms: N1_6  and  C5_7 
REMARK    4  A    between atoms: N3_9  and  C6_10 
REMARK    5  A    between atoms: C13_18  and  O2_19 
ROOT
HETATM    1  C2  UNL     1      26.891  -0.059  53.684  1.00  0.00     0.106 A 
HETATM    2  C3  UNL     1      25.581  -0.542  53.822  1.00  0.00     0.090 A 
HETATM    3  C4  UNL     1      24.484   0.136  53.276  1.00  0.00     0.138 A 
HETATM    4  N3  UNL     1      24.742   1.275  52.612  1.00  0.00    -0.304 N 
HETATM    5  C12 UNL     1      25.998   1.736  52.481  1.00  0.00     0.138 A 
HETATM    6  C13 UNL     1      27.105   1.117  52.992  1.00  0.00     0.117 A 
ENDROOT
BRANCH   4   7
HETATM    7  C6  UNL     1      23.573   1.894  52.091  1.00  0.00     0.042 A 
HETATM    8  C7  UNL     1      23.050   3.040  52.704  1.00  0.00     0.030 A 
HETATM    9  C8  UNL     1      21.928   3.660  52.221  1.00  0.00     0.004 A 
HETATM   10  C9  UNL     1      21.245   3.195  51.104  1.00  0.00     0.019 A 
HETATM   11  C10 UNL     1      21.788   2.071  50.534  1.00  0.00     0.013 A 
HETATM   12 BR1  UNL     1      20.876   1.403  48.994  1.00  0.00    -0.051 Br
HETATM   13  C11 UNL     1      22.910   1.395  50.961  1.00  0.00     0.049 A 
ENDBRANCH   4   7
BRANCH   3  14
HETATM   14  N1  UNL     1      23.426  -0.523  53.550  1.00  0.00    -0.225 NA
BRANCH  14  15
HETATM   15  C5  UNL     1      23.065  -1.100  54.789  1.00  0.00     0.225 C 
HETATM   16  N2  UNL     1      21.777  -1.323  54.880  1.00  0.00    -0.293 NA
HETATM   17  H6  UNL     1      21.336  -1.747  55.730  1.00  0.00     0.187 HD
ENDBRANCH  14  15
ENDBRANCH   3  14
BRANCH   6  18
HETATM   18  O2  UNL     1      28.373   1.609  52.845  1.00  0.00    -0.352 OA
HETATM   19  C14 UNL     1      29.024   2.539  53.649  1.00  0.00     0.210 C 
ENDBRANCH   6  18
BRANCH   1  20
HETATM   20  O1  UNL     1      28.003  -0.691  54.204  1.00  0.00    -0.353 OA
HETATM   21  C1  UNL     1      28.906  -1.481  53.467  1.00  0.00     0.210 C 
ENDBRANCH   1  20
TORSDOF 5
ENDMDL
MODEL 6
REMARK VINA RESULT:      -6.3      2.544      3.568
REMARK  5 active torsions:
REMARK  status: ('A' for Active; 'I' for Inactive)
REMARK    1  A    between atoms: O1_2  and  C2_3 
REMARK    2  A    between atoms: C4_5  and  N1_6 
REMARK    3  A    between atoms: N1_6  and  C5_7 
REMARK    4  A    between atoms: N3_9  and  C6_10 
REMARK    5  A    between atoms: C13_18  and  O2_19 
ROOT
HETATM    1  C2  UNL     1      27.142   0.137  53.683  1.00  0.00     0.106 A 
HETATM    2  C3  UNL     1      27.395   1.178  52.776  1.00  0.00     0.090 A 
HETATM    3  C4  UNL     1      26.359   1.934  52.215  1.00  0.00     0.138 A 
HETATM    4  N3  UNL     1      25.106   1.619  52.584  1.00  0.00    -0.304 N 
HETATM    5  C12 UNL     1      24.866   0.621  53.452  1.00  0.00     0.138 A 
HETATM    6  C13 UNL     1      25.836  -0.150  54.031  1.00  0.00     0.117 A 
ENDROOT
BRANCH   4   7
HETATM    7  C6  UNL     1      24.120   2.437  51.968  1.00  0.00     0.042 A 
HETATM    8  C7  UNL     1      23.851   3.716  52.472  1.00  0.00     0.030 A 
HETATM    9  C8  UNL     1      22.910   4.528  51.896  1.00  0.00     0.004 A 
HETATM   10  C9  UNL     1      22.170   4.136  50.787  1.00  0.00     0.019 A 
HETATM   11  C10 UNL     1      22.463   2.878  50.325  1.00  0.00     0.013 A 
HETATM   12 BR1  UNL     1      21.464   2.306  48.800  1.00  0.00    -0.051 Br
HETATM   13  C11 UNL     1      23.392   2.007  50.850  1.00  0.00     0.049 A 
ENDBRANCH   4   7
BRANCH   3  14
HETATM   14  N1  UNL     1      26.871   2.804  51.434  1.00  0.00    -0.225 NA
BRANCH  14  15
HETATM   15  C5  UNL     1      26.637   2.965  50.049  1.00  0.00     0.225 C 
HETATM   16  N2  UNL     1      27.187   4.055  49.574  1.00  0.00    -0.293 NA
HETATM   17  H6  UNL     1      27.113   4.330  48.566  1.00  0.00     0.187 HD
ENDBRANCH  14  15
ENDBRANCH   3  14
BRANCH   6  18
HETATM   18  O2  UNL     1      25.564  -1.160  54.912  1.00  0.00    -0.352 OA
HETATM   19  C14 UNL     1      24.414  -1.337  55.675  1.00  0.00     0.210 C 
ENDBRANCH   6  18
BRANCH   1  20
HETATM   20  O1  UNL     1      28.129  -0.636  54.262  1.00  0.00    -0.353 OA
HETATM   21  C1  UNL     1      29.434  -0.794  53.761  1.00  0.00     0.210 C 
ENDBRANCH   1  20
TORSDOF 5
ENDMDL
MODEL 7
REMARK VINA RESULT:      -6.2      8.590     11.098
REMARK  5 active torsions:
REMARK  status: ('A' for Active; 'I' for Inactive)
REMARK    1  A    between atoms: O1_2  and  C2_3 
REMARK    2  A    between atoms: C4_5  and  N1_6 
REMARK    3  A    between atoms: N1_6  and  C5_7 
REMARK    4  A    between atoms: N3_9  and  C6_10 
REMARK    5  A    between atoms: C13_18  and  O2_19 
ROOT
HETATM    1  C2  UNL     1      28.312   5.641  48.443  1.00  0.00     0.106 A 
HETATM    2  C3  UNL     1      27.542   6.788  48.694  1.00  0.00     0.090 A 
HETATM    3  C4  UNL     1      28.079   8.075  48.576  1.00  0.00     0.138 A 
HETATM    4  N3  UNL     1      29.368   8.167  48.210  1.00  0.00    -0.304 N 
HETATM    5  C12 UNL     1      30.104   7.067  47.971  1.00  0.00     0.138 A 
HETATM    6  C13 UNL     1      29.634   5.786  48.070  1.00  0.00     0.117 A 
ENDROOT
BRANCH   4   7
HETATM    7  C6  UNL     1      29.828   9.508  48.114  1.00  0.00     0.042 A 
HETATM    8  C7  UNL     1      30.393  10.142  49.229  1.00  0.00     0.030 A 
HETATM    9  C8  UNL     1      30.848  11.432  49.164  1.00  0.00     0.004 A 
HETATM   10  C9  UNL     1      30.778  12.186  47.999  1.00  0.00     0.019 A 
HETATM   11  C10 UNL     1      30.219  11.530  46.931  1.00  0.00     0.013 A 
HETATM   12 BR1  UNL     1      30.106  12.537  45.311  1.00  0.00    -0.051 Br
HETATM   13  C11 UNL     1      29.740  10.239  46.921  1.00  0.00     0.049 A 
ENDBRANCH   4   7
BRANCH   3  14
HETATM   14  N1  UNL     1      27.165   8.921  48.859  1.00  0.00    -0.225 NA
BRANCH  14  15
HETATM   15  C5  UNL     1      26.584   9.172  50.123  1.00  0.00     0.225 C 
HETATM   16  N2  UNL     1      27.480   9.467  51.033  1.00  0.00    -0.293 NA
HETATM   17  H6  UNL     1      27.225   9.682  52.026  1.00  0.00     0.187 HD
ENDBRANCH  14  15
ENDBRANCH   3  14
BRANCH   6  18
HETATM   18  O2  UNL     1      30.405   4.684  47.820  1.00  0.00    -0.352 OA
HETATM   19  C14 UNL     1      31.739   4.650  47.428  1.00  0.00     0.210 C 
ENDBRANCH   6  18
BRANCH   1  20
HETATM   20  O1  UNL     1      27.828   4.352  48.545  1.00  0.00    -0.353 OA
HETATM   21  C1  UNL     1      26.746   3.953  49.353  1.00  0.00     0.210 C 
ENDBRANCH   1  20
TORSDOF 5
ENDMDL
MODEL 8
REMARK VINA RESULT:      -6.1      2.975      4.113
REMARK  5 active torsions:
REMARK  status: ('A' for Active; 'I' for Inactive)
REMARK    1  A    between atoms: O1_2  and  C2_3 
REMARK    2  A    between atoms: C4_5  and  N1_6 
REMARK    3  A    between atoms: N1_6  and  C5_7 
REMARK    4  A    between atoms: N3_9  and  C6_10 
REMARK    5  A    between atoms: C13_18  and  O2_19 
ROOT
HETATM    1  C2  UNL     1      24.664   0.197  53.514  1.00  0.00     0.106 A 
HETATM    2  C3  UNL     1      25.146   1.124  52.578  1.00  0.00     0.090 A 
HETATM    3  C4  UNL     1      24.311   1.696  51.611  1.00  0.00     0.138 A 
HETATM    4  N3  UNL     1      23.022   1.317  51.617  1.00  0.00    -0.304 N 
HETATM    5  C12 UNL     1      22.563   0.428  52.515  1.00  0.00     0.138 A 
HETATM    6  C13 UNL     1      23.330  -0.163  53.481  1.00  0.00     0.117 A 
ENDROOT
BRANCH   4   7
HETATM    7  C6  UNL     1      22.249   1.947  50.605  1.00  0.00     0.042 A 
HETATM    8  C7  UNL     1      21.989   1.281  49.399  1.00  0.00     0.030 A 
HETATM    9  C8  UNL     1      21.243   1.862  48.408  1.00  0.00     0.004 A 
HETATM   10  C9  UNL     1      20.705   3.136  48.535  1.00  0.00     0.019 A 
HETATM   11  C10 UNL     1      20.982   3.754  49.728  1.00  0.00     0.013 A 
HETATM   12 BR1  UNL     1      20.256   5.509  49.937  1.00  0.00    -0.051 Br
HETATM   13  C11 UNL     1      21.722   3.235  50.767  1.00  0.00     0.049 A 
ENDBRANCH   4   7
BRANCH   3  14
HETATM   14  N1  UNL     1      25.006   2.497  50.900  1.00  0.00    -0.225 NA
BRANCH  14  15
HETATM   15  C5  UNL     1      26.412   2.518  50.750  1.00  0.00     0.225 C 
HETATM   16  N2  UNL     1      26.874   3.729  50.557  1.00  0.00    -0.293 NA
HETATM   17  H6  UNL     1      27.894   3.929  50.426  1.00  0.00     0.187 HD
ENDBRANCH  14  15
ENDBRANCH   3  14
BRANCH   6  18
HETATM   18  O2  UNL     1      22.836  -1.065  54.382  1.00  0.00    -0.352 OA
HETATM   19  C14 UNL     1      21.548  -1.585  54.447  1.00  0.00     0.210 C 
ENDBRANCH   6  18
BRANCH   1  20
HETATM   20  O1  UNL     1      25.447  -0.394  54.486  1.00  0.00    -0.353 OA
HETATM   21  C1  UNL     1      26.631   0.152  55.016  1.00  0.00     0.210 C 
ENDBRANCH   1  20
TORSDOF 5
ENDMDL
MODEL 9
REMARK VINA RESULT:      -6.0      8.368      9.728
REMARK  5 active torsions:
REMARK  status: ('A' for Active; 'I' for Inactive)
REMARK    1  A    between atoms: O1_2  and  C2_3 
REMARK    2  A    between atoms: C4_5  and  N1_6 
REMARK    3  A    between atoms: N1_6  and  C5_7 
REMARK    4  A    between atoms: N3_9  and  C6_10 
REMARK    5  A    between atoms: C13_18  and  O2_19 
ROOT
HETATM    1  C2  UNL     1      33.294   5.269  48.325  1.00  0.00     0.106 A 
HETATM    2  C3  UNL     1      32.706   6.337  49.020  1.00  0.00     0.090 A 
HETATM    3  C4  UNL     1      31.348   6.646  48.882  1.00  0.00     0.138 A 
HETATM    4  N3  UNL     1      30.628   5.873  48.052  1.00  0.00    -0.304 N 
HETATM    5  C12 UNL     1      31.193   4.850  47.388  1.00  0.00     0.138 A 
HETATM    6  C13 UNL     1      32.512   4.502  47.483  1.00  0.00     0.117 A 
ENDROOT
BRANCH   4   7
HETATM    7  C6  UNL     1      29.262   6.258  47.975  1.00  0.00     0.042 A 
HETATM    8  C7  UNL     1      28.886   7.378  47.221  1.00  0.00     0.030 A 
HETATM    9  C8  UNL     1      27.577   7.769  47.125  1.00  0.00     0.004 A 
HETATM   10  C9  UNL     1      26.550   7.086  47.763  1.00  0.00     0.019 A 
HETATM   11  C10 UNL     1      26.958   5.996  48.490  1.00  0.00     0.013 A 
HETATM   12 BR1  UNL     1      25.571   5.031  49.382  1.00  0.00    -0.051 Br
HETATM   13  C11 UNL     1      28.251   5.544  48.633  1.00  0.00     0.049 A 
ENDBRANCH   4   7
BRANCH   3  14
HETATM   14  N1  UNL     1      31.086   7.654  49.621  1.00  0.00    -0.225 NA
BRANCH  14  15
HETATM   15  C5  UNL     1      31.334   9.017  49.341  1.00  0.00     0.225 C 
HETATM   16  N2  UNL     1      30.485   9.813  49.945  1.00  0.00    -0.293 NA
HETATM   17  H6  UNL     1      30.521  10.855  49.847  1.00  0.00     0.187 HD
ENDBRANCH  14  15
ENDBRANCH   3  14
BRANCH   6  18
HETATM   18  O2  UNL     1      33.062   3.456  46.794  1.00  0.00    -0.352 OA
HETATM   19  C14 UNL     1      32.644   2.129  46.786  1.00  0.00     0.210 C 
ENDBRANCH   6  18
BRANCH   1  20
HETATM   20  O1  UNL     1      34.627   4.924  48.428  1.00  0.00    -0.353 OA
HETATM   21  C1  UNL     1      35.628   5.721  49.016  1.00  0.00     0.210 C 
ENDBRANCH   1  20
TORSDOF 5
ENDMDL
