MODEL 1
REMARK VINA RESULT:      -8.0      0.000      0.000
REMARK  2 active torsions:
REMARK  status: ('A' for Active; 'I' for Inactive)
REMARK    1  A    between atoms: O1_2  and  C2_3 
REMARK    2  A    between atoms: C14_18  and  O2_19 
ROOT
HETATM    1  C2  UNL     1      26.829  -0.607  52.982  1.00  0.00     0.145 A 
HETATM    2  C3  UNL     1      27.048   0.444  52.157  1.00  0.00     0.088 A 
HETATM    3  C4  UNL     1      26.059   1.463  51.721  1.00  0.00     0.073 A 
HETATM    4  N1  UNL     1      26.779   2.188  50.971  1.00  0.00    -0.240 NA
HETATM    5  C5  UNL     1      26.309   3.317  50.293  1.00  0.00     0.255 C 
HETATM    6  N2  UNL     1      25.114   3.535  50.433  1.00  0.00    -0.168 NA
HETATM    7  N3  UNL     1      24.161   4.400  50.057  1.00  0.00    -0.277 N 
HETATM    8  C6  UNL     1      23.329   3.234  49.847  1.00  0.00     0.056 A 
HETATM    9  C7  UNL     1      22.839   3.311  48.539  1.00  0.00     0.031 A 
HETATM   10  C8  UNL     1      21.996   2.317  48.028  1.00  0.00     0.002 A 
HETATM   11  C9  UNL     1      21.629   1.222  48.818  1.00  0.00     0.001 A 
HETATM   12  C10 UNL     1      22.146   1.207  50.096  1.00  0.00     0.010 A 
HETATM   13  C11 UNL     1      22.971   2.144  50.656  1.00  0.00    -0.025 A 
HETATM   14  C12 UNL     1      23.539   2.164  52.022  1.00  0.00     0.086 C 
HETATM   15  C13 UNL     1      24.693   1.302  52.256  1.00  0.00     0.026 A 
HETATM   16  C14 UNL     1      24.537   0.249  53.061  1.00  0.00     0.152 A 
HETATM   17  N4  UNL     1      25.480  -0.726  53.477  1.00  0.00    -0.317 N 
HETATM   18  H6  UNL     1      23.760   5.341  49.862  1.00  0.00     0.189 HD
HETATM   19  H16 UNL     1      25.222  -1.501  54.113  1.00  0.00     0.170 HD
ENDROOT
BRANCH   1  20
HETATM   20  O1  UNL     1      27.718  -1.605  53.433  1.00  0.00    -0.341 OA
HETATM   21  C1  UNL     1      29.116  -1.375  53.410  1.00  0.00     0.211 C 
ENDBRANCH   1  20
BRANCH  16  22
HETATM   22  O2  UNL     1      23.255   0.040  53.601  1.00  0.00    -0.340 OA
HETATM   23  C15 UNL     1      22.471  -1.036  53.168  1.00  0.00     0.211 C 
ENDBRANCH  16  22
TORSDOF 2
ENDMDL
MODEL 2
REMARK VINA RESULT:      -7.4      1.939      2.094
REMARK  2 active torsions:
REMARK  status: ('A' for Active; 'I' for Inactive)
REMARK    1  A    between atoms: O1_2  and  C2_3 
REMARK    2  A    between atoms: C14_18  and  O2_19 
ROOT
HETATM    1  C2  UNL     1      25.685   0.105  54.046  1.00  0.00     0.145 A 
HETATM    2  C3  UNL     1      25.461   1.386  53.670  1.00  0.00     0.088 A 
HETATM    3  C4  UNL     1      24.197   1.956  53.137  1.00  0.00     0.073 A 
HETATM    4  N1  UNL     1      24.539   3.161  52.949  1.00  0.00    -0.240 NA
HETATM    5  C5  UNL     1      23.685   4.144  52.440  1.00  0.00     0.255 C 
HETATM    6  N2  UNL     1      22.571   3.743  52.132  1.00  0.00    -0.168 NA
HETATM    7  N3  UNL     1      21.409   4.180  51.629  1.00  0.00    -0.277 N 
HETATM    8  C6  UNL     1      21.427   2.982  50.818  1.00  0.00     0.056 A 
HETATM    9  C7  UNL     1      21.273   3.385  49.487  1.00  0.00     0.031 A 
HETATM   10  C8  UNL     1      21.253   2.445  48.449  1.00  0.00     0.002 A 
HETATM   11  C9  UNL     1      21.390   1.080  48.724  1.00  0.00     0.001 A 
HETATM   12  C10 UNL     1      21.538   0.751  50.054  1.00  0.00     0.010 A 
HETATM   13  C11 UNL     1      21.565   1.616  51.114  1.00  0.00    -0.025 A 
HETATM   14  C12 UNL     1      21.715   1.299  52.551  1.00  0.00     0.086 C 
HETATM   15  C13 UNL     1      23.069   1.011  53.012  1.00  0.00     0.026 A 
HETATM   16  C14 UNL     1      23.350  -0.236  53.397  1.00  0.00     0.152 A 
HETATM   17  N4  UNL     1      24.557  -0.781  53.905  1.00  0.00    -0.317 N 
HETATM   18  H6  UNL     1      20.609   4.839  51.528  1.00  0.00     0.189 HD
HETATM   19  H16 UNL     1      24.640  -1.779  54.167  1.00  0.00     0.170 HD
ENDROOT
BRANCH   1  20
HETATM   20  O1  UNL     1      26.855  -0.497  54.557  1.00  0.00    -0.341 OA
HETATM   21  C1  UNL     1      28.040   0.265  54.708  1.00  0.00     0.211 C 
ENDBRANCH   1  20
BRANCH  16  22
HETATM   22  O2  UNL     1      22.315  -1.184  53.299  1.00  0.00    -0.340 OA
HETATM   23  C15 UNL     1      21.738  -1.722  54.455  1.00  0.00     0.211 C 
ENDBRANCH  16  22
TORSDOF 2
ENDMDL
MODEL 3
REMARK VINA RESULT:      -7.1      2.598      4.019
REMARK  2 active torsions:
REMARK  status: ('A' for Active; 'I' for Inactive)
REMARK    1  A    between atoms: O1_2  and  C2_3 
REMARK    2  A    between atoms: C14_18  and  O2_19 
ROOT
HETATM    1  C2  UNL     1      27.086   2.100  53.417  1.00  0.00     0.145 A 
HETATM    2  C3  UNL     1      26.088   1.241  53.734  1.00  0.00     0.088 A 
HETATM    3  C4  UNL     1      24.831   1.010  52.977  1.00  0.00     0.073 A 
HETATM    4  N1  UNL     1      24.274   0.135  53.704  1.00  0.00    -0.240 NA
HETATM    5  C5  UNL     1      23.027  -0.433  53.423  1.00  0.00     0.255 C 
HETATM    6  N2  UNL     1      22.472   0.019  52.432  1.00  0.00    -0.168 NA
HETATM    7  N3  UNL     1      21.348  -0.115  51.715  1.00  0.00    -0.277 N 
HETATM    8  C6  UNL     1      21.325   1.332  51.671  1.00  0.00     0.056 A 
HETATM    9  C7  UNL     1      20.070   1.737  52.135  1.00  0.00     0.031 A 
HETATM   10  C8  UNL     1      19.737   3.095  52.216  1.00  0.00     0.002 A 
HETATM   11  C9  UNL     1      20.659   4.076  51.834  1.00  0.00     0.001 A 
HETATM   12  C10 UNL     1      21.876   3.609  51.386  1.00  0.00     0.010 A 
HETATM   13  C11 UNL     1      22.264   2.301  51.281  1.00  0.00    -0.025 A 
HETATM   14  C12 UNL     1      23.556   1.765  50.801  1.00  0.00     0.086 C 
HETATM   15  C13 UNL     1      24.667   1.808  51.746  1.00  0.00     0.026 A 
HETATM   16  C14 UNL     1      25.680   2.637  51.487  1.00  0.00     0.152 A 
HETATM   17  N4  UNL     1      26.881   2.859  52.209  1.00  0.00    -0.317 N 
HETATM   18  H6  UNL     1      20.585  -0.640  51.239  1.00  0.00     0.189 HD
HETATM   19  H16 UNL     1      27.592   3.541  51.892  1.00  0.00     0.170 HD
ENDROOT
BRANCH   1  20
HETATM   20  O1  UNL     1      28.299   2.366  54.089  1.00  0.00    -0.341 OA
HETATM   21  C1  UNL     1      29.245   1.330  54.286  1.00  0.00     0.211 C 
ENDBRANCH   1  20
BRANCH  16  22
HETATM   22  O2  UNL     1      25.581   3.427  50.327  1.00  0.00    -0.340 OA
HETATM   23  C15 UNL     1      26.699   3.629  49.511  1.00  0.00     0.211 C 
ENDBRANCH  16  22
TORSDOF 2
ENDMDL
MODEL 4
REMARK VINA RESULT:      -7.0      3.302      5.321
REMARK  2 active torsions:
REMARK  status: ('A' for Active; 'I' for Inactive)
REMARK    1  A    between atoms: O1_2  and  C2_3 
REMARK    2  A    between atoms: C14_18  and  O2_19 
ROOT
HETATM    1  C2  UNL     1      19.952   0.239  52.412  1.00  0.00     0.145 A 
HETATM    2  C3  UNL     1      21.196  -0.211  52.699  1.00  0.00     0.088 A 
HETATM    3  C4  UNL     1      22.431   0.601  52.848  1.00  0.00     0.073 A 
HETATM    4  N1  UNL     1      23.281  -0.303  53.101  1.00  0.00    -0.240 NA
HETATM    5  C5  UNL     1      24.639  -0.055  53.329  1.00  0.00     0.255 C 
HETATM    6  N2  UNL     1      24.969   1.117  53.215  1.00  0.00    -0.168 NA
HETATM    7  N3  UNL     1      26.047   1.909  53.305  1.00  0.00    -0.277 N 
HETATM    8  C6  UNL     1      25.560   2.535  52.093  1.00  0.00     0.056 A 
HETATM    9  C7  UNL     1      26.608   2.507  51.167  1.00  0.00     0.031 A 
HETATM   10  C8  UNL     1      26.447   3.041  49.883  1.00  0.00     0.002 A 
HETATM   11  C9  UNL     1      25.229   3.613  49.499  1.00  0.00     0.001 A 
HETATM   12  C10 UNL     1      24.239   3.608  50.458  1.00  0.00     0.010 A 
HETATM   13  C11 UNL     1      24.330   3.105  51.728  1.00  0.00    -0.025 A 
HETATM   14  C12 UNL     1      23.293   3.088  52.782  1.00  0.00     0.086 C 
HETATM   15  C13 UNL     1      22.268   2.057  52.665  1.00  0.00     0.026 A 
HETATM   16  C14 UNL     1      21.020   2.440  52.384  1.00  0.00     0.152 A 
HETATM   17  N4  UNL     1      19.841   1.665  52.239  1.00  0.00    -0.317 N 
HETATM   18  H6  UNL     1      26.930   2.262  53.728  1.00  0.00     0.189 HD
HETATM   19  H16 UNL     1      18.926   2.096  52.017  1.00  0.00     0.170 HD
ENDROOT
BRANCH   1  20
HETATM   20  O1  UNL     1      18.744  -0.475  52.257  1.00  0.00    -0.341 OA
HETATM   21  C1  UNL     1      18.253  -1.281  53.314  1.00  0.00     0.211 C 
ENDBRANCH   1  20
BRANCH  16  22
HETATM   22  O2  UNL     1      20.801   3.817  52.195  1.00  0.00    -0.340 OA
HETATM   23  C15 UNL     1      20.205   4.284  51.018  1.00  0.00     0.211 C 
ENDBRANCH  16  22
TORSDOF 2
ENDMDL
MODEL 5
REMARK VINA RESULT:      -7.0      3.317      6.039
REMARK  2 active torsions:
REMARK  status: ('A' for Active; 'I' for Inactive)
REMARK    1  A    between atoms: O1_2  and  C2_3 
REMARK    2  A    between atoms: C14_18  and  O2_19 
ROOT
HETATM    1  C2  UNL     1      21.923   5.516  51.315  1.00  0.00     0.145 A 
HETATM    2  C3  UNL     1      22.889   4.958  52.083  1.00  0.00     0.088 A 
HETATM    3  C4  UNL     1      23.250   3.520  52.165  1.00  0.00     0.073 A 
HETATM    4  N1  UNL     1      24.188   3.558  53.016  1.00  0.00    -0.240 NA
HETATM    5  C5  UNL     1      24.887   2.430  53.458  1.00  0.00     0.255 C 
HETATM    6  N2  UNL     1      24.488   1.370  52.996  1.00  0.00    -0.168 NA
HETATM    7  N3  UNL     1      24.737   0.054  53.043  1.00  0.00    -0.277 N 
HETATM    8  C6  UNL     1      23.301  -0.111  53.123  1.00  0.00     0.056 A 
HETATM    9  C7  UNL     1      23.041  -0.899  54.249  1.00  0.00     0.031 A 
HETATM   10  C8  UNL     1      21.729  -1.237  54.602  1.00  0.00     0.002 A 
HETATM   11  C9  UNL     1      20.649  -0.790  53.834  1.00  0.00     0.001 A 
HETATM   12  C10 UNL     1      20.974  -0.018  52.738  1.00  0.00     0.010 A 
HETATM   13  C11 UNL     1      22.231   0.347  52.338  1.00  0.00    -0.025 A 
HETATM   14  C12 UNL     1      22.617   1.166  51.169  1.00  0.00     0.086 C 
HETATM   15  C13 UNL     1      22.462   2.610  51.310  1.00  0.00     0.026 A 
HETATM   16  C14 UNL     1      21.524   3.216  50.579  1.00  0.00     0.152 A 
HETATM   17  N4  UNL     1      21.178   4.590  50.499  1.00  0.00    -0.317 N 
HETATM   18  H6  UNL     1      25.338  -0.796  53.052  1.00  0.00     0.189 HD
HETATM   19  H16 UNL     1      20.419   4.929  49.883  1.00  0.00     0.170 HD
ENDROOT
BRANCH   1  20
HETATM   20  O1  UNL     1      21.532   6.866  51.191  1.00  0.00    -0.341 OA
HETATM   21  C1  UNL     1      22.268   7.746  50.359  1.00  0.00     0.211 C 
ENDBRANCH   1  20
BRANCH  16  22
HETATM   22  O2  UNL     1      20.738   2.401  49.743  1.00  0.00    -0.340 OA
HETATM   23  C15 UNL     1      20.614   2.695  48.381  1.00  0.00     0.211 C 
ENDBRANCH  16  22
TORSDOF 2
ENDMDL
MODEL 6
REMARK VINA RESULT:      -7.0      2.708      6.266
REMARK  2 active torsions:
REMARK  status: ('A' for Active; 'I' for Inactive)
REMARK    1  A    between atoms: O1_2  and  C2_3 
REMARK    2  A    between atoms: C14_18  and  O2_19 
ROOT
HETATM    1  C2  UNL     1      22.370   2.895  47.954  1.00  0.00     0.145 A 
HETATM    2  C3  UNL     1      21.875   1.961  48.800  1.00  0.00     0.088 A 
HETATM    3  C4  UNL     1      22.334   1.673  50.183  1.00  0.00     0.073 A 
HETATM    4  N1  UNL     1      21.551   0.728  50.501  1.00  0.00    -0.240 NA
HETATM    5  C5  UNL     1      21.573   0.082  51.741  1.00  0.00     0.255 C 
HETATM    6  N2  UNL     1      22.453   0.462  52.499  1.00  0.00    -0.168 NA
HETATM    7  N3  UNL     1      22.940   0.236  53.728  1.00  0.00    -0.277 N 
HETATM    8  C6  UNL     1      24.248   0.306  53.111  1.00  0.00     0.056 A 
HETATM    9  C7  UNL     1      24.929  -0.864  53.460  1.00  0.00     0.031 A 
HETATM   10  C8  UNL     1      26.235  -1.098  53.010  1.00  0.00     0.002 A 
HETATM   11  C9  UNL     1      26.883  -0.162  52.197  1.00  0.00     0.001 A 
HETATM   12  C10 UNL     1      26.157   0.969  51.891  1.00  0.00     0.010 A 
HETATM   13  C11 UNL     1      24.882   1.259  52.297  1.00  0.00    -0.025 A 
HETATM   14  C12 UNL     1      24.076   2.461  51.994  1.00  0.00     0.086 C 
HETATM   15  C13 UNL     1      23.449   2.504  50.677  1.00  0.00     0.026 A 
HETATM   16  C14 UNL     1      23.895   3.406  49.798  1.00  0.00     0.152 A 
HETATM   17  N4  UNL     1      23.459   3.681  48.477  1.00  0.00    -0.317 N 
HETATM   18  H6  UNL     1      22.880   0.060  54.752  1.00  0.00     0.189 HD
HETATM   19  H16 UNL     1      23.899   4.418  47.898  1.00  0.00     0.170 HD
ENDROOT
BRANCH   1  20
HETATM   20  O1  UNL     1      21.983   3.219  46.635  1.00  0.00    -0.341 OA
HETATM   21  C1  UNL     1      21.817   4.573  46.255  1.00  0.00     0.211 C 
ENDBRANCH   1  20
BRANCH  16  22
HETATM   22  O2  UNL     1      24.960   4.228  50.210  1.00  0.00    -0.340 OA
HETATM   23  C15 UNL     1      26.157   4.251  49.485  1.00  0.00     0.211 C 
ENDBRANCH  16  22
TORSDOF 2
ENDMDL
MODEL 7
REMARK VINA RESULT:      -6.7      3.993      6.964
REMARK  2 active torsions:
REMARK  status: ('A' for Active; 'I' for Inactive)
REMARK    1  A    between atoms: O1_2  and  C2_3 
REMARK    2  A    between atoms: C14_18  and  O2_19 
ROOT
HETATM    1  C2  UNL     1      18.047   3.471  51.577  1.00  0.00     0.145 A 
HETATM    2  C3  UNL     1      19.365   3.739  51.739  1.00  0.00     0.088 A 
HETATM    3  C4  UNL     1      20.487   2.767  51.705  1.00  0.00     0.073 A 
HETATM    4  N1  UNL     1      21.473   3.534  51.915  1.00  0.00    -0.240 NA
HETATM    5  C5  UNL     1      22.800   3.098  51.982  1.00  0.00     0.255 C 
HETATM    6  N2  UNL     1      22.946   1.889  51.874  1.00  0.00    -0.168 NA
HETATM    7  N3  UNL     1      23.905   0.952  51.862  1.00  0.00    -0.277 N 
HETATM    8  C6  UNL     1      23.020   0.182  52.710  1.00  0.00     0.056 A 
HETATM    9  C7  UNL     1      23.751  -0.178  53.847  1.00  0.00     0.031 A 
HETATM   10  C8  UNL     1      23.165  -0.935  54.869  1.00  0.00     0.002 A 
HETATM   11  C9  UNL     1      21.831  -1.344  54.774  1.00  0.00     0.001 A 
HETATM   12  C10 UNL     1      21.167  -0.956  53.629  1.00  0.00     0.010 A 
HETATM   13  C11 UNL     1      21.679  -0.220  52.595  1.00  0.00    -0.025 A 
HETATM   14  C12 UNL     1      21.001   0.208  51.353  1.00  0.00     0.086 C 
HETATM   15  C13 UNL     1      20.111   1.360  51.465  1.00  0.00     0.026 A 
HETATM   16  C14 UNL     1      18.800   1.158  51.314  1.00  0.00     0.152 A 
HETATM   17  N4  UNL     1      17.727   2.085  51.348  1.00  0.00    -0.317 N 
HETATM   18  H6  UNL     1      24.825   0.543  51.600  1.00  0.00     0.189 HD
HETATM   19  H16 UNL     1      16.744   1.790  51.214  1.00  0.00     0.170 HD
ENDROOT
BRANCH   1  20
HETATM   20  O1  UNL     1      16.937   4.343  51.597  1.00  0.00    -0.341 OA
HETATM   21  C1  UNL     1      15.782   4.005  52.345  1.00  0.00     0.211 C 
ENDBRANCH   1  20
BRANCH  16  22
HETATM   22  O2  UNL     1      18.378  -0.165  51.084  1.00  0.00    -0.340 OA
HETATM   23  C15 UNL     1      17.551  -0.814  52.008  1.00  0.00     0.211 C 
ENDBRANCH  16  22
TORSDOF 2
ENDMDL
MODEL 8
REMARK VINA RESULT:      -6.6      7.962     10.163
REMARK  2 active torsions:
REMARK  status: ('A' for Active; 'I' for Inactive)
REMARK    1  A    between atoms: O1_2  and  C2_3 
REMARK    2  A    between atoms: C14_18  and  O2_19 
ROOT
HETATM    1  C2  UNL     1      33.214   4.975  44.231  1.00  0.00     0.145 A 
HETATM    2  C3  UNL     1      32.922   6.249  44.581  1.00  0.00     0.088 A 
HETATM    3  C4  UNL     1      32.347   6.715  45.869  1.00  0.00     0.073 A 
HETATM    4  N1  UNL     1      32.277   7.963  45.661  1.00  0.00    -0.240 NA
HETATM    5  C5  UNL     1      31.786   8.883  46.594  1.00  0.00     0.255 C 
HETATM    6  N2  UNL     1      31.371   8.385  47.631  1.00  0.00    -0.168 NA
HETATM    7  N3  UNL     1      30.823   8.729  48.805  1.00  0.00    -0.277 N 
HETATM    8  C6  UNL     1      29.925   7.613  48.595  1.00  0.00     0.056 A 
HETATM    9  C7  UNL     1      28.621   8.107  48.714  1.00  0.00     0.031 A 
HETATM   10  C8  UNL     1      27.515   7.262  48.559  1.00  0.00     0.002 A 
HETATM   11  C9  UNL     1      27.694   5.903  48.279  1.00  0.00     0.001 A 
HETATM   12  C10 UNL     1      29.002   5.481  48.175  1.00  0.00     0.010 A 
HETATM   13  C11 UNL     1      30.125   6.252  48.315  1.00  0.00    -0.025 A 
HETATM   14  C12 UNL     1      31.539   5.833  48.216  1.00  0.00     0.086 C 
HETATM   15  C13 UNL     1      32.071   5.663  46.867  1.00  0.00     0.026 A 
HETATM   16  C14 UNL     1      32.378   4.428  46.465  1.00  0.00     0.152 A 
HETATM   17  N4  UNL     1      32.926   3.981  45.235  1.00  0.00    -0.317 N 
HETATM   18  H6  UNL     1      30.716   9.299  49.669  1.00  0.00     0.189 HD
HETATM   19  H16 UNL     1      33.116   2.981  45.051  1.00  0.00     0.170 HD
ENDROOT
BRANCH   1  20
HETATM   20  O1  UNL     1      33.758   4.467  43.031  1.00  0.00    -0.341 OA
HETATM   21  C1  UNL     1      33.042   4.597  41.815  1.00  0.00     0.211 C 
ENDBRANCH   1  20
BRANCH  16  22
HETATM   22  O2  UNL     1      32.135   3.380  47.372  1.00  0.00    -0.340 OA
HETATM   23  C15 UNL     1      33.134   2.440  47.651  1.00  0.00     0.211 C 
ENDBRANCH  16  22
TORSDOF 2
ENDMDL
MODEL 9
REMARK VINA RESULT:      -6.5      2.554      6.155
REMARK  2 active torsions:
REMARK  status: ('A' for Active; 'I' for Inactive)
REMARK    1  A    between atoms: O1_2  and  C2_3 
REMARK    2  A    between atoms: C14_18  and  O2_19 
ROOT
HETATM    1  C2  UNL     1      22.248   1.593  50.660  1.00  0.00     0.145 A 
HETATM    2  C3  UNL     1      22.604   0.569  51.471  1.00  0.00     0.088 A 
HETATM    3  C4  UNL     1      23.559   0.617  52.608  1.00  0.00     0.073 A 
HETATM    4  N1  UNL     1      23.522  -0.588  53.000  1.00  0.00    -0.240 NA
HETATM    5  C5  UNL     1      24.268  -1.081  54.076  1.00  0.00     0.255 C 
HETATM    6  N2  UNL     1      25.016  -0.264  54.595  1.00  0.00    -0.168 NA
HETATM    7  N3  UNL     1      25.911  -0.154  55.586  1.00  0.00    -0.277 N 
HETATM    8  C6  UNL     1      26.720   0.580  54.636  1.00  0.00     0.056 A 
HETATM    9  C7  UNL     1      27.975  -0.035  54.603  1.00  0.00     0.031 A 
HETATM   10  C8  UNL     1      28.991   0.446  53.768  1.00  0.00     0.002 A 
HETATM   11  C9  UNL     1      28.767   1.555  52.945  1.00  0.00     0.001 A 
HETATM   12  C10 UNL     1      27.510   2.114  53.025  1.00  0.00     0.010 A 
HETATM   13  C11 UNL     1      26.476   1.695  53.818  1.00  0.00    -0.025 A 
HETATM   14  C12 UNL     1      25.119   2.273  53.934  1.00  0.00     0.086 C 
HETATM   15  C13 UNL     1      24.177   1.930  52.873  1.00  0.00     0.026 A 
HETATM   16  C14 UNL     1      23.788   2.900  52.041  1.00  0.00     0.152 A 
HETATM   17  N4  UNL     1      22.878   2.856  50.955  1.00  0.00    -0.317 N 
HETATM   18  H6  UNL     1      26.282  -0.300  56.548  1.00  0.00     0.189 HD
HETATM   19  H16 UNL     1      22.665   3.692  50.384  1.00  0.00     0.170 HD
ENDROOT
BRANCH   1  20
HETATM   20  O1  UNL     1      21.352   1.615  49.569  1.00  0.00    -0.341 OA
HETATM   21  C1  UNL     1      21.847   1.708  48.245  1.00  0.00     0.211 C 
ENDBRANCH   1  20
BRANCH  16  22
HETATM   22  O2  UNL     1      24.345   4.177  52.242  1.00  0.00    -0.340 OA
HETATM   23  C15 UNL     1      23.592   5.326  51.978  1.00  0.00     0.211 C 
ENDBRANCH  16  22
TORSDOF 2
ENDMDL
