MODEL 1
REMARK VINA RESULT:      -7.2      0.000      0.000
REMARK  4 active torsions:
REMARK  status: ('A' for Active; 'I' for Inactive)
REMARK    1  A    between atoms: C2_2  and  C3_3 
REMARK    2  A    between atoms: C3_3  and  O1_4 
REMARK    3  A    between atoms: O1_4  and  C4_5 
REMARK    4  A    between atoms: C10_15  and  C11_16 
ROOT
HETATM    1  C4  UNL     1      23.696   2.085  50.949  1.00  0.00     0.160 C 
HETATM    2  C5  UNL     1      22.938   2.544  49.440  1.00  0.00     0.530 C 
HETATM    3  P1  UNL     1      22.219   1.939  49.242  1.00  0.00     0.066 P 
HETATM    4  N1  UNL     1      21.200   1.048  48.983  1.00  0.00    -0.164 N 
HETATM    5  C6  UNL     1      24.441   3.948  49.757  1.00  0.00     0.311 C 
HETATM    6  N2  UNL     1      23.258   4.126  50.654  1.00  0.00     0.034 NA
HETATM    7  C7  UNL     1      23.036   5.352  51.096  1.00  0.00     0.317 C 
HETATM    8  N3  UNL     1      21.860   5.081  51.899  1.00  0.00    -0.286 NA
HETATM    9  C8  UNL     1      21.592   3.826  52.195  1.00  0.00     0.209 C 
HETATM   10  C9  UNL     1      21.507   2.378  52.388  1.00  0.00     0.019 C 
HETATM   11  C10 UNL     1      22.482   1.720  51.793  1.00  0.00    -0.038 C 
ENDROOT
BRANCH  11  12
HETATM   12  C11 UNL     1      22.119   0.285  52.024  1.00  0.00     0.072 A 
HETATM   13  C12 UNL     1      23.125  -0.285  53.027  1.00  0.00    -0.013 A 
HETATM   14  C13 UNL     1      22.845  -0.793  54.246  1.00  0.00    -0.003 A 
HETATM   15  C14 UNL     1      21.462  -0.840  54.711  1.00  0.00     0.000 A 
HETATM   16  C15 UNL     1      20.417  -0.418  54.002  1.00  0.00     0.007 A 
HETATM   17  C16 UNL     1      20.819   0.090  52.694  1.00  0.00    -0.056 A 
HETATM   18  C17 UNL     1      19.780   0.433  51.894  1.00  0.00     0.020 C 
ENDBRANCH  11  12
BRANCH   1  19
HETATM   19  O1  UNL     1      24.566   2.735  51.511  1.00  0.00    -0.377 OA
BRANCH  19  20
HETATM   20  C3  UNL     1      25.517   2.275  52.403  1.00  0.00     0.195 C 
BRANCH  20  21
HETATM   21  C2  UNL     1      26.425   1.346  51.626  1.00  0.00    -0.011 C 
HETATM   22  C1  UNL     1      26.710   0.140  52.167  1.00  0.00     0.009 C 
ENDBRANCH  20  21
ENDBRANCH  19  20
ENDBRANCH   1  19
TORSDOF 4
ENDMDL
MODEL 2
REMARK VINA RESULT:      -7.0      1.911      3.319
REMARK  4 active torsions:
REMARK  status: ('A' for Active; 'I' for Inactive)
REMARK    1  A    between atoms: C2_2  and  C3_3 
REMARK    2  A    between atoms: C3_3  and  O1_4 
REMARK    3  A    between atoms: O1_4  and  C4_5 
REMARK    4  A    between atoms: C10_15  and  C11_16 
ROOT
HETATM    1  C4  UNL     1      24.368   2.552  50.339  1.00  0.00     0.160 C 
HETATM    2  C5  UNL     1      22.626   2.486  50.177  1.00  0.00     0.530 C 
HETATM    3  P1  UNL     1      22.293   1.683  50.587  1.00  0.00     0.066 P 
HETATM    4  N1  UNL     1      21.850   0.519  51.176  1.00  0.00    -0.164 N 
HETATM    5  C6  UNL     1      23.200   4.275  49.283  1.00  0.00     0.311 C 
HETATM    6  N2  UNL     1      23.276   4.301  50.776  1.00  0.00     0.034 NA
HETATM    7  C7  UNL     1      23.141   5.485  51.349  1.00  0.00     0.317 C 
HETATM    8  N3  UNL     1      23.284   5.072  52.731  1.00  0.00    -0.286 NA
HETATM    9  C8  UNL     1      23.778   3.874  52.968  1.00  0.00     0.209 C 
HETATM   10  C9  UNL     1      24.341   2.523  52.975  1.00  0.00     0.019 C 
HETATM   11  C10 UNL     1      24.553   2.047  51.763  1.00  0.00    -0.038 C 
ENDROOT
BRANCH  11  12
HETATM   12  C11 UNL     1      25.003   0.641  52.021  1.00  0.00     0.072 A 
HETATM   13  C12 UNL     1      26.523   0.607  51.837  1.00  0.00    -0.013 A 
HETATM   14  C13 UNL     1      27.438   0.281  52.773  1.00  0.00    -0.003 A 
HETATM   15  C14 UNL     1      27.002  -0.095  54.115  1.00  0.00     0.000 A 
HETATM   16  C15 UNL     1      25.728  -0.154  54.500  1.00  0.00     0.007 A 
HETATM   17  C16 UNL     1      24.817   0.192  53.414  1.00  0.00    -0.056 A 
HETATM   18  C17 UNL     1      23.506   0.043  53.727  1.00  0.00     0.020 C 
ENDBRANCH  11  12
BRANCH   1  19
HETATM   19  O1  UNL     1      25.056   3.508  50.012  1.00  0.00    -0.377 OA
BRANCH  19  20
HETATM   20  C3  UNL     1      26.412   3.518  49.746  1.00  0.00     0.195 C 
BRANCH  20  21
HETATM   21  C2  UNL     1      26.712   4.846  49.083  1.00  0.00    -0.011 C 
HETATM   22  C1  UNL     1      27.940   5.020  48.543  1.00  0.00     0.009 C 
ENDBRANCH  20  21
ENDBRANCH  19  20
ENDBRANCH   1  19
TORSDOF 4
ENDMDL
MODEL 3
REMARK VINA RESULT:      -6.8      1.705      4.525
REMARK  4 active torsions:
REMARK  status: ('A' for Active; 'I' for Inactive)
REMARK    1  A    between atoms: C2_2  and  C3_3 
REMARK    2  A    between atoms: C3_3  and  O1_4 
REMARK    3  A    between atoms: O1_4  and  C4_5 
REMARK    4  A    between atoms: C10_15  and  C11_16 
ROOT
HETATM    1  C4  UNL     1      21.626   2.124  52.425  1.00  0.00     0.160 C 
HETATM    2  C5  UNL     1      21.132   3.747  51.996  1.00  0.00     0.530 C 
HETATM    3  P1  UNL     1      21.893   4.334  52.018  1.00  0.00     0.066 P 
HETATM    4  N1  UNL     1      23.002   5.149  52.069  1.00  0.00    -0.164 N 
HETATM    5  C6  UNL     1      19.407   2.591  51.873  1.00  0.00     0.311 C 
HETATM    6  N2  UNL     1      20.367   2.354  50.750  1.00  0.00     0.034 NA
HETATM    7  C7  UNL     1      19.844   1.933  49.612  1.00  0.00     0.317 C 
HETATM    8  N3  UNL     1      21.067   1.827  48.841  1.00  0.00    -0.286 NA
HETATM    9  C8  UNL     1      22.211   1.843  49.495  1.00  0.00     0.209 C 
HETATM   10  C9  UNL     1      23.334   1.883  50.431  1.00  0.00     0.019 C 
HETATM   11  C10 UNL     1      22.953   2.012  51.687  1.00  0.00    -0.038 C 
ENDROOT
BRANCH  11  12
HETATM   12  C11 UNL     1      24.250   2.151  52.426  1.00  0.00     0.072 A 
HETATM   13  C12 UNL     1      24.445   0.874  53.249  1.00  0.00    -0.013 A 
HETATM   14  C13 UNL     1      25.461  -0.006  53.137  1.00  0.00    -0.003 A 
HETATM   15  C14 UNL     1      26.518   0.227  52.157  1.00  0.00     0.000 A 
HETATM   16  C15 UNL     1      26.567   1.280  51.343  1.00  0.00     0.007 A 
HETATM   17  C16 UNL     1      25.441   2.184  51.557  1.00  0.00    -0.056 A 
HETATM   18  C17 UNL     1      25.504   3.324  50.827  1.00  0.00     0.020 C 
ENDBRANCH  11  12
BRANCH   1  19
HETATM   19  O1  UNL     1      20.897   1.144  52.374  1.00  0.00    -0.377 OA
BRANCH  19  20
HETATM   20  C3  UNL     1      21.200  -0.152  52.748  1.00  0.00     0.195 C 
BRANCH  20  21
HETATM   21  C2  UNL     1      21.076  -0.207  54.256  1.00  0.00    -0.011 C 
HETATM   22  C1  UNL     1      21.842  -1.100  54.922  1.00  0.00     0.009 C 
ENDBRANCH  20  21
ENDBRANCH  19  20
ENDBRANCH   1  19
TORSDOF 4
ENDMDL
MODEL 4
REMARK VINA RESULT:      -6.4      2.022      4.307
REMARK  4 active torsions:
REMARK  status: ('A' for Active; 'I' for Inactive)
REMARK    1  A    between atoms: C2_2  and  C3_3 
REMARK    2  A    between atoms: C3_3  and  O1_4 
REMARK    3  A    between atoms: O1_4  and  C4_5 
REMARK    4  A    between atoms: C10_15  and  C11_16 
ROOT
HETATM    1  C4  UNL     1      20.640   3.160  51.458  1.00  0.00     0.160 C 
HETATM    2  C5  UNL     1      21.766   4.354  50.849  1.00  0.00     0.530 C 
HETATM    3  P1  UNL     1      22.599   4.285  51.323  1.00  0.00     0.066 P 
HETATM    4  N1  UNL     1      23.776   4.165  52.028  1.00  0.00    -0.164 N 
HETATM    5  C6  UNL     1      20.036   4.595  49.719  1.00  0.00     0.311 C 
HETATM    6  N2  UNL     1      20.814   3.367  49.367  1.00  0.00     0.034 NA
HETATM    7  C7  UNL     1      20.675   2.920  48.131  1.00  0.00     0.317 C 
HETATM    8  N3  UNL     1      21.550   1.768  48.221  1.00  0.00    -0.286 NA
HETATM    9  C8  UNL     1      21.907   1.357  49.420  1.00  0.00     0.209 C 
HETATM   10  C9  UNL     1      22.158   1.096  50.838  1.00  0.00     0.019 C 
HETATM   11  C10 UNL     1      21.552   1.954  51.635  1.00  0.00    -0.038 C 
ENDROOT
BRANCH  11  12
HETATM   12  C11 UNL     1      22.048   1.567  52.995  1.00  0.00     0.072 A 
HETATM   13  C12 UNL     1      20.869   0.947  53.751  1.00  0.00    -0.013 A 
HETATM   14  C13 UNL     1      20.799  -0.310  54.237  1.00  0.00    -0.003 A 
HETATM   15  C14 UNL     1      21.929  -1.218  54.066  1.00  0.00     0.000 A 
HETATM   16  C15 UNL     1      23.067  -0.893  53.456  1.00  0.00     0.007 A 
HETATM   17  C16 UNL     1      23.055   0.490  52.988  1.00  0.00    -0.056 A 
HETATM   18  C17 UNL     1      24.233   0.900  52.457  1.00  0.00     0.020 C 
ENDBRANCH  11  12
BRANCH   1  19
HETATM   19  O1  UNL     1      19.541   2.937  50.972  1.00  0.00    -0.377 OA
BRANCH  19  20
HETATM   20  C3  UNL     1      18.471   2.295  51.568  1.00  0.00     0.195 C 
BRANCH  20  21
HETATM   21  C2  UNL     1      18.174   1.076  50.722  1.00  0.00    -0.011 C 
HETATM   22  C1  UNL     1      18.408  -0.142  51.262  1.00  0.00     0.009 C 
ENDBRANCH  20  21
ENDBRANCH  19  20
ENDBRANCH   1  19
TORSDOF 4
ENDMDL
MODEL 5
REMARK VINA RESULT:      -6.2      2.536      4.130
REMARK  4 active torsions:
REMARK  status: ('A' for Active; 'I' for Inactive)
REMARK    1  A    between atoms: C2_2  and  C3_3 
REMARK    2  A    between atoms: C3_3  and  O1_4 
REMARK    3  A    between atoms: O1_4  and  C4_5 
REMARK    4  A    between atoms: C10_15  and  C11_16 
ROOT
HETATM    1  C4  UNL     1      23.815   4.538  50.805  1.00  0.00     0.160 C 
HETATM    2  C5  UNL     1      25.384   5.010  50.189  1.00  0.00     0.530 C 
HETATM    3  P1  UNL     1      25.842   4.239  49.844  1.00  0.00     0.066 P 
HETATM    4  N1  UNL     1      26.474   3.112  49.367  1.00  0.00    -0.164 N 
HETATM    5  C6  UNL     1      24.500   6.769  50.865  1.00  0.00     0.311 C 
HETATM    6  N2  UNL     1      23.913   6.257  49.588  1.00  0.00     0.034 NA
HETATM    7  C7  UNL     1      23.368   7.159  48.790  1.00  0.00     0.317 C 
HETATM    8  N3  UNL     1      22.934   6.272  47.729  1.00  0.00    -0.286 NA
HETATM    9  C8  UNL     1      22.900   4.980  47.981  1.00  0.00     0.209 C 
HETATM   10  C9  UNL     1      22.946   3.611  48.496  1.00  0.00     0.019 C 
HETATM   11  C10 UNL     1      23.366   3.543  49.744  1.00  0.00    -0.038 C 
ENDROOT
BRANCH  11  12
HETATM   12  C11 UNL     1      23.443   2.069  50.000  1.00  0.00     0.072 A 
HETATM   13  C12 UNL     1      23.813   1.881  51.474  1.00  0.00    -0.013 A 
HETATM   14  C13 UNL     1      23.076   1.251  52.413  1.00  0.00    -0.003 A 
HETATM   15  C14 UNL     1      21.791   0.660  52.050  1.00  0.00     0.000 A 
HETATM   16  C15 UNL     1      21.274   0.684  50.823  1.00  0.00     0.007 A 
HETATM   17  C16 UNL     1      22.153   1.365  49.878  1.00  0.00    -0.056 A 
HETATM   18  C17 UNL     1      21.719   1.322  48.594  1.00  0.00     0.020 C 
ENDBRANCH  11  12
BRANCH   1  19
HETATM   19  O1  UNL     1      22.966   5.322  51.204  1.00  0.00    -0.377 OA
BRANCH  19  20
HETATM   20  C3  UNL     1      21.854   5.038  51.976  1.00  0.00     0.195 C 
BRANCH  20  21
HETATM   21  C2  UNL     1      20.667   5.032  51.036  1.00  0.00    -0.011 C 
HETATM   22  C1  UNL     1      19.801   3.996  51.118  1.00  0.00     0.009 C 
ENDBRANCH  20  21
ENDBRANCH  19  20
ENDBRANCH   1  19
TORSDOF 4
ENDMDL
MODEL 6
REMARK VINA RESULT:      -6.1     11.124     13.013
REMARK  4 active torsions:
REMARK  status: ('A' for Active; 'I' for Inactive)
REMARK    1  A    between atoms: C2_2  and  C3_3 
REMARK    2  A    between atoms: C3_3  and  O1_4 
REMARK    3  A    between atoms: O1_4  and  C4_5 
REMARK    4  A    between atoms: C10_15  and  C11_16 
ROOT
HETATM    1  C4  UNL     1      32.297   7.205  46.389  1.00  0.00     0.160 C 
HETATM    2  C5  UNL     1      31.579   8.545  47.257  1.00  0.00     0.530 C 
HETATM    3  P1  UNL     1      31.506   8.325  48.189  1.00  0.00     0.066 P 
HETATM    4  N1  UNL     1      31.408   7.974  49.518  1.00  0.00    -0.164 N 
HETATM    5  C6  UNL     1      31.705   9.170  45.276  1.00  0.00     0.311 C 
HETATM    6  N2  UNL     1      33.025   9.141  45.980  1.00  0.00     0.034 NA
HETATM    7  C7  UNL     1      33.947   9.974  45.530  1.00  0.00     0.317 C 
HETATM    8  N3  UNL     1      35.016   9.624  46.443  1.00  0.00    -0.286 NA
HETATM    9  C8  UNL     1      34.899   8.505  47.128  1.00  0.00     0.209 C 
HETATM   10  C9  UNL     1      34.545   7.236  47.765  1.00  0.00     0.019 C 
HETATM   11  C10 UNL     1      33.380   6.766  47.364  1.00  0.00    -0.038 C 
ENDROOT
BRANCH  11  12
HETATM   12  C11 UNL     1      33.184   5.555  48.226  1.00  0.00     0.072 A 
HETATM   13  C12 UNL     1      32.137   4.672  47.541  1.00  0.00    -0.013 A 
HETATM   14  C13 UNL     1      32.316   3.410  47.100  1.00  0.00    -0.003 A 
HETATM   15  C14 UNL     1      33.612   2.759  47.268  1.00  0.00     0.000 A 
HETATM   16  C15 UNL     1      34.666   3.327  47.851  1.00  0.00     0.007 A 
HETATM   17  C16 UNL     1      34.367   4.678  48.315  1.00  0.00    -0.056 A 
HETATM   18  C17 UNL     1      35.376   5.257  49.011  1.00  0.00     0.020 C 
ENDBRANCH  11  12
BRANCH   1  19
HETATM   19  O1  UNL     1      32.615   7.238  45.209  1.00  0.00    -0.377 OA
BRANCH  19  20
HETATM   20  C3  UNL     1      32.682   6.178  44.325  1.00  0.00     0.195 C 
BRANCH  20  21
HETATM   21  C2  UNL     1      34.152   5.929  44.061  1.00  0.00    -0.011 C 
HETATM   22  C1  UNL     1      34.649   4.705  44.350  1.00  0.00     0.009 C 
ENDBRANCH  20  21
ENDBRANCH  19  20
ENDBRANCH   1  19
TORSDOF 4
ENDMDL
MODEL 7
REMARK VINA RESULT:      -6.1      9.557     12.447
REMARK  4 active torsions:
REMARK  status: ('A' for Active; 'I' for Inactive)
REMARK    1  A    between atoms: C2_2  and  C3_3 
REMARK    2  A    between atoms: C3_3  and  O1_4 
REMARK    3  A    between atoms: O1_4  and  C4_5 
REMARK    4  A    between atoms: C10_15  and  C11_16 
ROOT
HETATM    1  C4  UNL     1      32.501   7.505  47.811  1.00  0.00     0.160 C 
HETATM    2  C5  UNL     1      33.013   9.149  47.498  1.00  0.00     0.530 C 
HETATM    3  P1  UNL     1      33.818   9.142  46.972  1.00  0.00     0.066 P 
HETATM    4  N1  UNL     1      34.975   9.098  46.227  1.00  0.00    -0.164 N 
HETATM    5  C6  UNL     1      31.259   9.316  48.604  1.00  0.00     0.311 C 
HETATM    6  N2  UNL     1      31.035   8.887  47.188  1.00  0.00     0.034 NA
HETATM    7  C7  UNL     1      29.862   9.191  46.663  1.00  0.00     0.317 C 
HETATM    8  N3  UNL     1      30.057   8.609  45.350  1.00  0.00    -0.286 NA
HETATM    9  C8  UNL     1      31.059   7.768  45.192  1.00  0.00     0.209 C 
HETATM   10  C9  UNL     1      32.218   6.878  45.266  1.00  0.00     0.019 C 
HETATM   11  C10 UNL     1      32.768   6.848  46.464  1.00  0.00    -0.038 C 
ENDROOT
BRANCH  11  12
HETATM   12  C11 UNL     1      33.978   5.987  46.264  1.00  0.00     0.072 A 
HETATM   13  C12 UNL     1      34.641   5.805  47.632  1.00  0.00    -0.013 A 
HETATM   14  C13 UNL     1      34.837   4.638  48.281  1.00  0.00    -0.003 A 
HETATM   15  C14 UNL     1      34.404   3.385  47.667  1.00  0.00     0.000 A 
HETATM   16  C15 UNL     1      33.821   3.297  46.473  1.00  0.00     0.007 A 
HETATM   17  C16 UNL     1      33.675   4.606  45.843  1.00  0.00    -0.056 A 
HETATM   18  C17 UNL     1      33.184   4.557  44.581  1.00  0.00     0.020 C 
ENDBRANCH  11  12
BRANCH   1  19
HETATM   19  O1  UNL     1      31.451   7.202  48.359  1.00  0.00    -0.377 OA
BRANCH  19  20
HETATM   20  C3  UNL     1      31.090   5.966  48.864  1.00  0.00     0.195 C 
BRANCH  20  21
HETATM   21  C2  UNL     1      29.965   5.455  47.989  1.00  0.00    -0.011 C 
HETATM   22  C1  UNL     1      28.736   5.993  48.159  1.00  0.00     0.009 C 
ENDBRANCH  20  21
ENDBRANCH  19  20
ENDBRANCH   1  19
TORSDOF 4
ENDMDL
MODEL 8
REMARK VINA RESULT:      -6.0      3.538      6.223
REMARK  4 active torsions:
REMARK  status: ('A' for Active; 'I' for Inactive)
REMARK    1  A    between atoms: C2_2  and  C3_3 
REMARK    2  A    between atoms: C3_3  and  O1_4 
REMARK    3  A    between atoms: O1_4  and  C4_5 
REMARK    4  A    between atoms: C10_15  and  C11_16 
ROOT
HETATM    1  C4  UNL     1      22.241   4.701  50.197  1.00  0.00     0.160 C 
HETATM    2  C5  UNL     1      21.344   6.193  50.378  1.00  0.00     0.530 C 
HETATM    3  P1  UNL     1      21.952   6.918  50.545  1.00  0.00     0.066 P 
HETATM    4  N1  UNL     1      22.849   7.933  50.792  1.00  0.00    -0.164 N 
HETATM    5  C6  UNL     1      19.916   4.729  49.990  1.00  0.00     0.311 C 
HETATM    6  N2  UNL     1      20.725   5.109  48.790  1.00  0.00     0.034 NA
HETATM    7  C7  UNL     1      20.143   4.944  47.616  1.00  0.00     0.317 C 
HETATM    8  N3  UNL     1      21.229   5.401  46.772  1.00  0.00    -0.286 NA
HETATM    9  C8  UNL     1      22.426   5.506  47.311  1.00  0.00     0.209 C 
HETATM   10  C9  UNL     1      23.641   5.540  48.126  1.00  0.00     0.019 C 
HETATM   11  C10 UNL     1      23.434   5.169  49.375  1.00  0.00    -0.038 C 
ENDROOT
BRANCH  11  12
HETATM   12  C11 UNL     1      24.764   5.400  50.025  1.00  0.00     0.072 A 
HETATM   13  C12 UNL     1      25.396   4.027  50.272  1.00  0.00    -0.013 A 
HETATM   14  C13 UNL     1      26.560   3.574  49.761  1.00  0.00    -0.003 A 
HETATM   15  C14 UNL     1      27.350   4.434  48.884  1.00  0.00     0.000 A 
HETATM   16  C15 UNL     1      27.008   5.675  48.544  1.00  0.00     0.007 A 
HETATM   17  C16 UNL     1      25.750   6.080  49.163  1.00  0.00    -0.056 A 
HETATM   18  C17 UNL     1      25.414   7.372  48.932  1.00  0.00     0.020 C 
ENDBRANCH  11  12
BRANCH   1  19
HETATM   19  O1  UNL     1      21.746   3.633  49.868  1.00  0.00    -0.377 OA
BRANCH  19  20
HETATM   20  C3  UNL     1      22.307   2.374  49.979  1.00  0.00     0.195 C 
BRANCH  20  21
HETATM   21  C2  UNL     1      21.917   1.615  48.728  1.00  0.00    -0.011 C 
HETATM   22  C1  UNL     1      22.550   1.930  47.575  1.00  0.00     0.009 C 
ENDBRANCH  20  21
ENDBRANCH  19  20
ENDBRANCH   1  19
TORSDOF 4
ENDMDL
MODEL 9
REMARK VINA RESULT:      -5.9      9.700     12.918
REMARK  4 active torsions:
REMARK  status: ('A' for Active; 'I' for Inactive)
REMARK    1  A    between atoms: C2_2  and  C3_3 
REMARK    2  A    between atoms: C3_3  and  O1_4 
REMARK    3  A    between atoms: O1_4  and  C4_5 
REMARK    4  A    between atoms: C10_15  and  C11_16 
ROOT
HETATM    1  C4  UNL     1      32.286   5.252  46.475  1.00  0.00     0.160 C 
HETATM    2  C5  UNL     1      32.937   4.239  45.205  1.00  0.00     0.530 C 
HETATM    3  P1  UNL     1      33.447   4.776  44.592  1.00  0.00     0.066 P 
HETATM    4  N1  UNL     1      34.163   5.575  43.729  1.00  0.00    -0.164 N 
HETATM    5  C6  UNL     1      31.895   2.950  46.464  1.00  0.00     0.311 C 
HETATM    6  N2  UNL     1      33.189   3.432  47.039  1.00  0.00     0.034 NA
HETATM    7  C7  UNL     1      33.770   2.636  47.920  1.00  0.00     0.317 C 
HETATM    8  N3  UNL     1      34.931   3.453  48.213  1.00  0.00    -0.286 NA
HETATM    9  C8  UNL     1      34.906   4.716  47.839  1.00  0.00     0.209 C 
HETATM   10  C9  UNL     1      34.643   6.064  47.332  1.00  0.00     0.019 C 
HETATM   11  C10 UNL     1      33.465   6.175  46.752  1.00  0.00    -0.038 C 
ENDROOT
BRANCH  11  12
HETATM   12  C11 UNL     1      33.476   7.576  46.218  1.00  0.00     0.072 A 
HETATM   13  C12 UNL     1      32.128   7.814  45.532  1.00  0.00    -0.013 A 
HETATM   14  C13 UNL     1      31.210   8.744  45.868  1.00  0.00    -0.003 A 
HETATM   15  C14 UNL     1      31.469   9.651  46.982  1.00  0.00     0.000 A 
HETATM   16  C15 UNL     1      32.582   9.641  47.714  1.00  0.00     0.007 A 
HETATM   17  C16 UNL     1      33.520   8.620  47.260  1.00  0.00    -0.056 A 
HETATM   18  C17 UNL     1      34.712   8.642  47.905  1.00  0.00     0.020 C 
ENDBRANCH  11  12
BRANCH   1  19
HETATM   19  O1  UNL     1      31.689   4.831  47.456  1.00  0.00    -0.377 OA
BRANCH  19  20
HETATM   20  C3  UNL     1      31.076   5.571  48.450  1.00  0.00     0.195 C 
BRANCH  20  21
HETATM   21  C2  UNL     1      29.750   6.035  47.887  1.00  0.00    -0.011 C 
HETATM   22  C1  UNL     1      28.626   5.425  48.329  1.00  0.00     0.009 C 
ENDBRANCH  20  21
ENDBRANCH  19  20
ENDBRANCH   1  19
TORSDOF 4
ENDMDL
