MODEL 1
REMARK VINA RESULT:      -8.7      0.000      0.000
REMARK  4 active torsions:
REMARK  status: ('A' for Active; 'I' for Inactive)
REMARK    1  A    between atoms: C1_2  and  C2_3 
REMARK       I    between atoms: C1_2  and  N1_11 
REMARK    2  A    between atoms: C3_4  and  C4_5 
REMARK    3  A    between atoms: N1_11  and  C10_12 
REMARK    4  A    between atoms: C11_13  and  C12_14 
ROOT
HETATM    1  C12 UNL     1      27.699   6.041  48.259  1.00  0.00     0.055 C 
HETATM    2  C13 UNL     1      28.897   6.321  47.782  1.00  0.00     0.006 C 
HETATM    3  C14 UNL     1      29.546   7.428  47.065  1.00  0.00     0.049 C 
HETATM    4  C15 UNL     1      28.708   8.603  46.742  1.00  0.00     0.123 C 
HETATM    5  N2  UNL     1      28.138   9.369  47.742  1.00  0.00    -0.386 N 
HETATM    6  C16 UNL     1      27.823  10.735  47.396  1.00  0.00     0.146 C 
HETATM    7  C17 UNL     1      29.055  11.525  47.568  1.00  0.00    -0.008 C 
HETATM    8  C18 UNL     1      30.210  11.378  48.217  1.00  0.00    -0.003 C 
HETATM    9  C19 UNL     1      30.569  10.203  49.040  1.00  0.00    -0.001 C 
HETATM   10  C20 UNL     1      29.811   9.180  49.475  1.00  0.00     0.019 C 
HETATM   11  C21 UNL     1      28.369   9.150  49.115  1.00  0.00     0.204 C 
HETATM   12  N3  UNL     1      27.639   8.084  49.715  1.00  0.00    -0.360 N 
HETATM   13  C22 UNL     1      26.461   7.830  48.987  1.00  0.00     0.205 C 
HETATM   14  N4  UNL     1      26.494   6.782  48.241  1.00  0.00    -0.245 NA
HETATM   15  H23 UNL     1      27.614   7.395  50.488  1.00  0.00     0.162 HD
ENDROOT
BRANCH   1  16
HETATM   16  C11 UNL     1      27.554   4.734  48.931  1.00  0.00     0.048 C 
HETATM   17  C10 UNL     1      26.400   4.257  49.351  1.00  0.00     0.093 C 
BRANCH  17  18
HETATM   18  N1  UNL     1      26.214   3.012  49.999  1.00  0.00    -0.334 N 
HETATM   19  C1  UNL     1      25.125   3.119  50.906  1.00  0.00     0.245 C 
HETATM   20  O1  UNL     1      24.454   4.186  51.077  1.00  0.00    -0.268 OA
HETATM   21  H8  UNL     1      26.599   2.064  50.034  1.00  0.00     0.168 HD
BRANCH  19  22
HETATM   22  C2  UNL     1      24.618   2.057  51.764  1.00  0.00     0.075 C 
HETATM   23  C3  UNL     1      23.349   2.065  52.123  1.00  0.00     0.017 C 
BRANCH  23  24
HETATM   24  C4  UNL     1      22.782   1.033  52.975  1.00  0.00    -0.036 A 
HETATM   25  C5  UNL     1      21.450   0.956  53.318  1.00  0.00     0.011 A 
HETATM   26  C6  UNL     1      20.947  -0.044  54.133  1.00  0.00     0.001 A 
HETATM   27  C7  UNL     1      21.800  -1.007  54.627  1.00  0.00     0.000 A 
HETATM   28  C8  UNL     1      23.140  -0.976  54.313  1.00  0.00     0.001 A 
HETATM   29  C9  UNL     1      23.565   0.035  53.509  1.00  0.00     0.011 A 
ENDBRANCH  23  24
ENDBRANCH  19  22
ENDBRANCH  17  18
ENDBRANCH   1  16
TORSDOF 4
ENDMDL
MODEL 2
REMARK VINA RESULT:      -8.4      1.543      2.184
REMARK  4 active torsions:
REMARK  status: ('A' for Active; 'I' for Inactive)
REMARK    1  A    between atoms: C1_2  and  C2_3 
REMARK       I    between atoms: C1_2  and  N1_11 
REMARK    2  A    between atoms: C3_4  and  C4_5 
REMARK    3  A    between atoms: N1_11  and  C10_12 
REMARK    4  A    between atoms: C11_13  and  C12_14 
ROOT
HETATM    1  C12 UNL     1      26.895   7.890  49.083  1.00  0.00     0.055 C 
HETATM    2  C13 UNL     1      27.657   6.991  48.490  1.00  0.00     0.006 C 
HETATM    3  C14 UNL     1      28.706   6.968  47.462  1.00  0.00     0.049 C 
HETATM    4  C15 UNL     1      29.086   8.265  46.860  1.00  0.00     0.123 C 
HETATM    5  N2  UNL     1      29.634   9.275  47.629  1.00  0.00    -0.386 N 
HETATM    6  C16 UNL     1      30.449  10.238  46.928  1.00  0.00     0.146 C 
HETATM    7  C17 UNL     1      31.802   9.666  46.813  1.00  0.00    -0.008 C 
HETATM    8  C18 UNL     1      32.496   8.704  47.422  1.00  0.00    -0.003 C 
HETATM    9  C19 UNL     1      31.980   7.865  48.525  1.00  0.00    -0.001 C 
HETATM   10  C20 UNL     1      30.863   7.990  49.266  1.00  0.00     0.019 C 
HETATM   11  C21 UNL     1      29.945   9.128  48.996  1.00  0.00     0.204 C 
HETATM   12  N3  UNL     1      28.853   9.226  49.905  1.00  0.00    -0.360 N 
HETATM   13  C22 UNL     1      27.810   9.979  49.335  1.00  0.00     0.205 C 
HETATM   14  N4  UNL     1      26.806   9.292  48.913  1.00  0.00    -0.245 NA
HETATM   15  H23 UNL     1      28.495   8.965  50.842  1.00  0.00     0.162 HD
ENDROOT
BRANCH   1  16
HETATM   16  C11 UNL     1      25.955   7.380  50.102  1.00  0.00     0.048 C 
HETATM   17  C10 UNL     1      25.475   6.154  50.099  1.00  0.00     0.093 C 
BRANCH  17  18
HETATM   18  N1  UNL     1      24.574   5.623  51.054  1.00  0.00    -0.334 N 
HETATM   19  C1  UNL     1      24.556   4.207  50.937  1.00  0.00     0.245 C 
HETATM   20  O1  UNL     1      25.255   3.561  50.093  1.00  0.00    -0.268 OA
HETATM   21  H8  UNL     1      23.933   5.916  51.797  1.00  0.00     0.168 HD
BRANCH  19  22
HETATM   22  C2  UNL     1      23.757   3.292  51.741  1.00  0.00     0.075 C 
HETATM   23  C3  UNL     1      24.202   2.072  51.969  1.00  0.00     0.017 C 
BRANCH  23  24
HETATM   24  C4  UNL     1      23.453   1.113  52.763  1.00  0.00    -0.036 A 
HETATM   25  C5  UNL     1      24.015   0.037  53.415  1.00  0.00     0.011 A 
HETATM   26  C6  UNL     1      23.268  -0.855  54.164  1.00  0.00     0.001 A 
HETATM   27  C7  UNL     1      21.905  -0.672  54.271  1.00  0.00     0.000 A 
HETATM   28  C8  UNL     1      21.294   0.387  53.640  1.00  0.00     0.001 A 
HETATM   29  C9  UNL     1      22.090   1.223  52.920  1.00  0.00     0.011 A 
ENDBRANCH  23  24
ENDBRANCH  19  22
ENDBRANCH  17  18
ENDBRANCH   1  16
TORSDOF 4
ENDMDL
MODEL 3
REMARK VINA RESULT:      -8.1      2.767     10.652
REMARK  4 active torsions:
REMARK  status: ('A' for Active; 'I' for Inactive)
REMARK    1  A    between atoms: C1_2  and  C2_3 
REMARK       I    between atoms: C1_2  and  N1_11 
REMARK    2  A    between atoms: C3_4  and  C4_5 
REMARK    3  A    between atoms: N1_11  and  C10_12 
REMARK    4  A    between atoms: C11_13  and  C12_14 
ROOT
HETATM    1  C12 UNL     1      21.827   3.367  49.898  1.00  0.00     0.055 C 
HETATM    2  C13 UNL     1      21.905   3.440  51.213  1.00  0.00     0.006 C 
HETATM    3  C14 UNL     1      21.114   3.000  52.371  1.00  0.00     0.049 C 
HETATM    4  C15 UNL     1      19.864   2.261  52.089  1.00  0.00     0.123 C 
HETATM    5  N2  UNL     1      19.887   1.042  51.437  1.00  0.00    -0.386 N 
HETATM    6  C16 UNL     1      18.766   0.167  51.680  1.00  0.00     0.146 C 
HETATM    7  C17 UNL     1      19.042  -0.560  52.932  1.00  0.00    -0.008 C 
HETATM    8  C18 UNL     1      20.118  -0.834  53.669  1.00  0.00    -0.003 C 
HETATM    9  C19 UNL     1      21.494  -0.401  53.342  1.00  0.00    -0.001 C 
HETATM   10  C20 UNL     1      21.991   0.144  52.217  1.00  0.00     0.019 C 
HETATM   11  C21 UNL     1      21.077   0.381  51.068  1.00  0.00     0.204 C 
HETATM   12  N3  UNL     1      21.726   0.859  49.894  1.00  0.00    -0.360 N 
HETATM   13  C22 UNL     1      20.799   1.499  49.051  1.00  0.00     0.205 C 
HETATM   14  N4  UNL     1      20.852   2.785  49.054  1.00  0.00    -0.245 NA
HETATM   15  H23 UNL     1      22.626   0.935  49.387  1.00  0.00     0.162 HD
ENDROOT
BRANCH   1  16
HETATM   16  C11 UNL     1      22.930   3.995  49.143  1.00  0.00     0.048 C 
HETATM   17  C10 UNL     1      23.958   4.588  49.716  1.00  0.00     0.093 C 
BRANCH  17  18
HETATM   18  N1  UNL     1      25.036   5.201  49.033  1.00  0.00    -0.334 N 
HETATM   19  C1  UNL     1      26.223   4.460  49.281  1.00  0.00     0.245 C 
HETATM   20  O1  UNL     1      26.263   3.416  50.007  1.00  0.00    -0.268 OA
HETATM   21  H8  UNL     1      25.248   5.997  48.425  1.00  0.00     0.168 HD
BRANCH  19  22
HETATM   22  C2  UNL     1      27.548   4.766  48.759  1.00  0.00     0.075 C 
HETATM   23  C3  UNL     1      27.812   5.985  48.333  1.00  0.00     0.017 C 
BRANCH  23  24
HETATM   24  C4  UNL     1      29.114   6.354  47.803  1.00  0.00    -0.036 A 
HETATM   25  C5  UNL     1      29.334   7.414  46.951  1.00  0.00     0.011 A 
HETATM   26  C6  UNL     1      30.590   7.734  46.468  1.00  0.00     0.001 A 
HETATM   27  C7  UNL     1      31.675   6.971  46.846  1.00  0.00     0.000 A 
HETATM   28  C8  UNL     1      31.509   5.901  47.696  1.00  0.00     0.001 A 
HETATM   29  C9  UNL     1      30.246   5.644  48.131  1.00  0.00     0.011 A 
ENDBRANCH  23  24
ENDBRANCH  19  22
ENDBRANCH  17  18
ENDBRANCH   1  16
TORSDOF 4
ENDMDL
MODEL 4
REMARK VINA RESULT:      -7.8      2.656      3.758
REMARK  4 active torsions:
REMARK  status: ('A' for Active; 'I' for Inactive)
REMARK    1  A    between atoms: C1_2  and  C2_3 
REMARK       I    between atoms: C1_2  and  N1_11 
REMARK    2  A    between atoms: C3_4  and  C4_5 
REMARK    3  A    between atoms: N1_11  and  C10_12 
REMARK    4  A    between atoms: C11_13  and  C12_14 
ROOT
HETATM    1  C12 UNL     1      28.859   8.038  48.197  1.00  0.00     0.055 C 
HETATM    2  C13 UNL     1      29.465   7.118  47.471  1.00  0.00     0.006 C 
HETATM    3  C14 UNL     1      30.693   7.004  46.672  1.00  0.00     0.049 C 
HETATM    4  C15 UNL     1      31.561   8.200  46.598  1.00  0.00     0.123 C 
HETATM    5  N2  UNL     1      32.154   8.723  47.733  1.00  0.00    -0.386 N 
HETATM    6  C16 UNL     1      33.356   9.494  47.526  1.00  0.00     0.146 C 
HETATM    7  C17 UNL     1      34.478   8.542  47.445  1.00  0.00    -0.008 C 
HETATM    8  C18 UNL     1      34.695   7.277  47.807  1.00  0.00    -0.003 C 
HETATM    9  C19 UNL     1      33.701   6.411  48.476  1.00  0.00    -0.001 C 
HETATM   10  C20 UNL     1      32.513   6.715  49.029  1.00  0.00     0.019 C 
HETATM   11  C21 UNL     1      32.050   8.128  49.007  1.00  0.00     0.204 C 
HETATM   12  N3  UNL     1      30.834   8.356  49.712  1.00  0.00    -0.360 N 
HETATM   13  C22 UNL     1      30.225   9.542  49.263  1.00  0.00     0.205 C 
HETATM   14  N4  UNL     1      29.212   9.377  48.486  1.00  0.00    -0.245 NA
HETATM   15  H23 UNL     1      30.190   7.999  50.442  1.00  0.00     0.162 HD
ENDROOT
BRANCH   1  16
HETATM   16  C11 UNL     1      27.586   7.636  48.829  1.00  0.00     0.048 C 
HETATM   17  C10 UNL     1      27.177   6.387  48.910  1.00  0.00     0.093 C 
BRANCH  17  18
HETATM   18  N1  UNL     1      25.967   5.956  49.506  1.00  0.00    -0.334 N 
HETATM   19  C1  UNL     1      26.022   4.550  49.703  1.00  0.00     0.245 C 
HETATM   20  O1  UNL     1      27.021   3.832  49.379  1.00  0.00    -0.268 OA
HETATM   21  H8  UNL     1      25.069   6.317  49.841  1.00  0.00     0.168 HD
BRANCH  19  22
HETATM   22  C2  UNL     1      24.974   3.726  50.290  1.00  0.00     0.075 C 
HETATM   23  C3  UNL     1      24.171   3.040  49.501  1.00  0.00     0.017 C 
BRANCH  23  24
HETATM   24  C4  UNL     1      23.108   2.199  50.024  1.00  0.00    -0.036 A 
HETATM   25  C5  UNL     1      23.068   1.708  51.311  1.00  0.00     0.011 A 
HETATM   26  C6  UNL     1      22.036   0.910  51.773  1.00  0.00     0.001 A 
HETATM   27  C7  UNL     1      21.000   0.585  50.924  1.00  0.00     0.000 A 
HETATM   28  C8  UNL     1      20.991   1.050  49.629  1.00  0.00     0.001 A 
HETATM   29  C9  UNL     1      22.037   1.828  49.242  1.00  0.00     0.011 A 
ENDBRANCH  23  24
ENDBRANCH  19  22
ENDBRANCH  17  18
ENDBRANCH   1  16
TORSDOF 4
ENDMDL
MODEL 5
REMARK VINA RESULT:      -7.7      2.745     10.079
REMARK  4 active torsions:
REMARK  status: ('A' for Active; 'I' for Inactive)
REMARK    1  A    between atoms: C1_2  and  C2_3 
REMARK       I    between atoms: C1_2  and  N1_11 
REMARK    2  A    between atoms: C3_4  and  C4_5 
REMARK    3  A    between atoms: N1_11  and  C10_12 
REMARK    4  A    between atoms: C11_13  and  C12_14 
ROOT
HETATM    1  C12 UNL     1      23.663   5.220  50.026  1.00  0.00     0.055 C 
HETATM    2  C13 UNL     1      23.692   5.083  51.338  1.00  0.00     0.006 C 
HETATM    3  C14 UNL     1      22.897   4.410  52.374  1.00  0.00     0.049 C 
HETATM    4  C15 UNL     1      21.713   3.646  51.924  1.00  0.00     0.123 C 
HETATM    5  N2  UNL     1      21.845   2.554  51.086  1.00  0.00    -0.386 N 
HETATM    6  C16 UNL     1      20.781   1.580  51.137  1.00  0.00     0.146 C 
HETATM    7  C17 UNL     1      21.067   0.678  52.267  1.00  0.00    -0.008 C 
HETATM    8  C18 UNL     1      22.136   0.359  52.997  1.00  0.00    -0.003 C 
HETATM    9  C19 UNL     1      23.487   0.928  52.804  1.00  0.00    -0.001 C 
HETATM   10  C20 UNL     1      23.981   1.680  51.803  1.00  0.00     0.019 C 
HETATM   11  C21 UNL     1      23.090   2.041  50.668  1.00  0.00     0.204 C 
HETATM   12  N3  UNL     1      23.741   2.745  49.616  1.00  0.00    -0.360 N 
HETATM   13  C22 UNL     1      22.799   3.452  48.846  1.00  0.00     0.205 C 
HETATM   14  N4  UNL     1      22.760   4.721  49.057  1.00  0.00    -0.245 NA
HETATM   15  H23 UNL     1      24.650   2.961  49.167  1.00  0.00     0.162 HD
ENDROOT
BRANCH   1  16
HETATM   16  C11 UNL     1      24.743   6.032  49.430  1.00  0.00     0.048 C 
HETATM   17  C10 UNL     1      26.021   5.847  49.691  1.00  0.00     0.093 C 
BRANCH  17  18
HETATM   18  N1  UNL     1      27.088   6.600  49.144  1.00  0.00    -0.334 N 
HETATM   19  C1  UNL     1      28.028   5.712  48.555  1.00  0.00     0.245 C 
HETATM   20  O1  UNL     1      27.890   4.448  48.543  1.00  0.00    -0.268 OA
HETATM   21  H8  UNL     1      27.409   7.566  49.033  1.00  0.00     0.168 HD
BRANCH  19  22
HETATM   22  C2  UNL     1      29.265   6.094  47.887  1.00  0.00     0.075 C 
HETATM   23  C3  UNL     1      30.409   5.991  48.534  1.00  0.00     0.017 C 
BRANCH  23  24
HETATM   24  C4  UNL     1      31.676   6.354  47.923  1.00  0.00    -0.036 A 
HETATM   25  C5  UNL     1      32.068   7.648  47.658  1.00  0.00     0.011 A 
HETATM   26  C6  UNL     1      33.285   7.955  47.075  1.00  0.00     0.001 A 
HETATM   27  C7  UNL     1      34.151   6.935  46.742  1.00  0.00     0.000 A 
HETATM   28  C8  UNL     1      33.809   5.625  46.987  1.00  0.00     0.001 A 
HETATM   29  C9  UNL     1      32.596   5.397  47.561  1.00  0.00     0.011 A 
ENDBRANCH  23  24
ENDBRANCH  19  22
ENDBRANCH  17  18
ENDBRANCH   1  16
TORSDOF 4
ENDMDL
MODEL 6
REMARK VINA RESULT:      -7.5      3.151     10.879
REMARK  4 active torsions:
REMARK  status: ('A' for Active; 'I' for Inactive)
REMARK    1  A    between atoms: C1_2  and  C2_3 
REMARK       I    between atoms: C1_2  and  N1_11 
REMARK    2  A    between atoms: C3_4  and  C4_5 
REMARK    3  A    between atoms: N1_11  and  C10_12 
REMARK    4  A    between atoms: C11_13  and  C12_14 
ROOT
HETATM    1  C12 UNL     1      22.651   2.972  50.694  1.00  0.00     0.055 C 
HETATM    2  C13 UNL     1      22.279   2.071  49.805  1.00  0.00     0.006 C 
HETATM    3  C14 UNL     1      21.575   0.781  49.799  1.00  0.00     0.049 C 
HETATM    4  C15 UNL     1      21.114   0.261  51.105  1.00  0.00     0.123 C 
HETATM    5  N2  UNL     1      20.182   0.950  51.859  1.00  0.00    -0.386 N 
HETATM    6  C16 UNL     1      19.408   0.164  52.789  1.00  0.00     0.146 C 
HETATM    7  C17 UNL     1      18.283  -0.421  52.037  1.00  0.00    -0.008 C 
HETATM    8  C18 UNL     1      17.664  -0.173  50.882  1.00  0.00    -0.003 C 
HETATM    9  C19 UNL     1      18.024   0.920  49.953  1.00  0.00    -0.001 C 
HETATM   10  C20 UNL     1      18.848   1.970  50.121  1.00  0.00     0.019 C 
HETATM   11  C21 UNL     1      19.551   2.133  51.421  1.00  0.00     0.204 C 
HETATM   12  N3  UNL     1      20.312   3.331  51.529  1.00  0.00    -0.360 N 
HETATM   13  C22 UNL     1      21.292   3.198  52.529  1.00  0.00     0.205 C 
HETATM   14  N4  UNL     1      22.492   3.014  52.099  1.00  0.00    -0.245 NA
HETATM   15  H23 UNL     1      20.449   4.292  51.164  1.00  0.00     0.162 HD
ENDROOT
BRANCH   1  16
HETATM   16  C11 UNL     1      23.364   4.153  50.167  1.00  0.00     0.048 C 
HETATM   17  C10 UNL     1      24.463   4.077  49.445  1.00  0.00     0.093 C 
BRANCH  17  18
HETATM   18  N1  UNL     1      25.178   5.180  48.920  1.00  0.00    -0.334 N 
HETATM   19  C1  UNL     1      26.568   4.888  48.949  1.00  0.00     0.245 C 
HETATM   20  O1  UNL     1      27.049   3.794  49.386  1.00  0.00    -0.268 OA
HETATM   21  H8  UNL     1      25.030   6.115  48.529  1.00  0.00     0.168 HD
BRANCH  19  22
HETATM   22  C2  UNL     1      27.638   5.767  48.496  1.00  0.00     0.075 C 
HETATM   23  C3  UNL     1      28.834   5.265  48.262  1.00  0.00     0.017 C 
BRANCH  23  24
HETATM   24  C4  UNL     1      29.942   6.089  47.808  1.00  0.00    -0.036 A 
HETATM   25  C5  UNL     1      29.817   7.397  47.394  1.00  0.00     0.011 A 
HETATM   26  C6  UNL     1      30.897   8.151  46.968  1.00  0.00     0.001 A 
HETATM   27  C7  UNL     1      32.154   7.583  46.953  1.00  0.00     0.000 A 
HETATM   28  C8  UNL     1      32.333   6.280  47.358  1.00  0.00     0.001 A 
HETATM   29  C9  UNL     1      31.227   5.599  47.762  1.00  0.00     0.011 A 
ENDBRANCH  23  24
ENDBRANCH  19  22
ENDBRANCH  17  18
ENDBRANCH   1  16
TORSDOF 4
ENDMDL
MODEL 7
REMARK VINA RESULT:      -7.3      7.137     10.708
REMARK  4 active torsions:
REMARK  status: ('A' for Active; 'I' for Inactive)
REMARK    1  A    between atoms: C1_2  and  C2_3 
REMARK       I    between atoms: C1_2  and  N1_11 
REMARK    2  A    between atoms: C3_4  and  C4_5 
REMARK    3  A    between atoms: N1_11  and  C10_12 
REMARK    4  A    between atoms: C11_13  and  C12_14 
ROOT
HETATM    1  C12 UNL     1      31.003   8.198  48.265  1.00  0.00     0.055 C 
HETATM    2  C13 UNL     1      31.356   7.408  49.261  1.00  0.00     0.006 C 
HETATM    3  C14 UNL     1      31.709   5.994  49.450  1.00  0.00     0.049 C 
HETATM    4  C15 UNL     1      31.694   5.131  48.248  1.00  0.00     0.123 C 
HETATM    5  N2  UNL     1      32.547   5.371  47.187  1.00  0.00    -0.386 N 
HETATM    6  C16 UNL     1      32.855   4.238  46.348  1.00  0.00     0.146 C 
HETATM    7  C17 UNL     1      33.956   3.502  46.995  1.00  0.00    -0.008 C 
HETATM    8  C18 UNL     1      34.883   3.769  47.916  1.00  0.00    -0.003 C 
HETATM    9  C19 UNL     1      35.037   5.071  48.600  1.00  0.00    -0.001 C 
HETATM   10  C20 UNL     1      34.474   6.265  48.339  1.00  0.00     0.019 C 
HETATM   11  C21 UNL     1      33.532   6.380  47.195  1.00  0.00     0.204 C 
HETATM   12  N3  UNL     1      33.078   7.706  46.943  1.00  0.00    -0.360 N 
HETATM   13  C22 UNL     1      31.878   7.680  46.209  1.00  0.00     0.205 C 
HETATM   14  N4  UNL     1      30.814   7.932  46.888  1.00  0.00    -0.245 NA
HETATM   15  H23 UNL     1      33.270   8.715  47.080  1.00  0.00     0.162 HD
ENDROOT
BRANCH   1  16
HETATM   16  C11 UNL     1      30.747   9.611  48.612  1.00  0.00     0.048 C 
HETATM   17  C10 UNL     1      29.572  10.064  48.996  1.00  0.00     0.093 C 
BRANCH  17  18
HETATM   18  N1  UNL     1      29.282  11.407  49.338  1.00  0.00    -0.334 N 
HETATM   19  C1  UNL     1      28.418  11.960  48.354  1.00  0.00     0.245 C 
HETATM   20  O1  UNL     1      27.997  11.312  47.343  1.00  0.00    -0.268 OA
HETATM   21  H8  UNL     1      29.486  12.112  50.052  1.00  0.00     0.168 HD
BRANCH  19  22
HETATM   22  C2  UNL     1      27.890  13.317  48.343  1.00  0.00     0.075 C 
HETATM   23  C3  UNL     1      26.768  13.571  47.699  1.00  0.00     0.017 C 
BRANCH  23  24
HETATM   24  C4  UNL     1      26.189  14.903  47.652  1.00  0.00    -0.036 A 
HETATM   25  C5  UNL     1      25.096  15.301  48.390  1.00  0.00     0.011 A 
HETATM   26  C6  UNL     1      24.574  16.581  48.319  1.00  0.00     0.001 A 
HETATM   27  C7  UNL     1      25.161  17.505  47.482  1.00  0.00     0.000 A 
HETATM   28  C8  UNL     1      26.256  17.159  46.723  1.00  0.00     0.001 A 
HETATM   29  C9  UNL     1      26.715  15.884  46.842  1.00  0.00     0.011 A 
ENDBRANCH  23  24
ENDBRANCH  19  22
ENDBRANCH  17  18
ENDBRANCH   1  16
TORSDOF 4
ENDMDL
MODEL 8
REMARK VINA RESULT:      -7.3      7.145     10.686
REMARK  4 active torsions:
REMARK  status: ('A' for Active; 'I' for Inactive)
REMARK    1  A    between atoms: C1_2  and  C2_3 
REMARK       I    between atoms: C1_2  and  N1_11 
REMARK    2  A    between atoms: C3_4  and  C4_5 
REMARK    3  A    between atoms: N1_11  and  C10_12 
REMARK    4  A    between atoms: C11_13  and  C12_14 
ROOT
HETATM    1  C12 UNL     1      19.647   1.377  49.931  1.00  0.00     0.055 C 
HETATM    2  C13 UNL     1      19.109   2.396  49.288  1.00  0.00     0.006 C 
HETATM    3  C14 UNL     1      17.771   2.818  48.853  1.00  0.00     0.049 C 
HETATM    4  C15 UNL     1      16.643   1.917  49.177  1.00  0.00     0.123 C 
HETATM    5  N2  UNL     1      16.307   1.639  50.489  1.00  0.00    -0.386 N 
HETATM    6  C16 UNL     1      14.942   1.234  50.725  1.00  0.00     0.146 C 
HETATM    7  C17 UNL     1      14.134   2.462  50.836  1.00  0.00    -0.008 C 
HETATM    8  C18 UNL     1      14.371   3.751  51.077  1.00  0.00    -0.003 C 
HETATM    9  C19 UNL     1      15.709   4.328  51.327  1.00  0.00    -0.001 C 
HETATM   10  C20 UNL     1      16.888   3.724  51.564  1.00  0.00     0.019 C 
HETATM   11  C21 UNL     1      16.941   2.238  51.597  1.00  0.00     0.204 C 
HETATM   12  N3  UNL     1      18.210   1.707  51.961  1.00  0.00    -0.360 N 
HETATM   13  C22 UNL     1      18.327   0.376  51.518  1.00  0.00     0.205 C 
HETATM   14  N4  UNL     1      19.064   0.209  50.476  1.00  0.00    -0.245 NA
HETATM   15  H23 UNL     1      19.114   1.898  52.432  1.00  0.00     0.162 HD
ENDROOT
BRANCH   1  16
HETATM   16  C11 UNL     1      21.109   1.428  50.128  1.00  0.00     0.048 C 
HETATM   17  C10 UNL     1      21.678   1.690  51.287  1.00  0.00     0.093 C 
BRANCH  17  18
HETATM   18  N1  UNL     1      23.073   1.749  51.523  1.00  0.00    -0.334 N 
HETATM   19  C1  UNL     1      23.404   0.850  52.573  1.00  0.00     0.245 C 
HETATM   20  O1  UNL     1      22.549   0.128  53.177  1.00  0.00    -0.268 OA
HETATM   21  H8  UNL     1      23.920   2.220  51.193  1.00  0.00     0.168 HD
BRANCH  19  22
HETATM   22  C2  UNL     1      24.737   0.619  53.113  1.00  0.00     0.075 C 
HETATM   23  C3  UNL     1      25.716   0.278  52.298  1.00  0.00     0.017 C 
BRANCH  23  24
HETATM   24  C4  UNL     1      27.067   0.035  52.775  1.00  0.00    -0.036 A 
HETATM   25  C5  UNL     1      27.635  -1.215  52.896  1.00  0.00     0.011 A 
HETATM   26  C6  UNL     1      28.926  -1.406  53.353  1.00  0.00     0.001 A 
HETATM   27  C7  UNL     1      29.689  -0.312  53.705  1.00  0.00     0.000 A 
HETATM   28  C8  UNL     1      29.169   0.958  53.602  1.00  0.00     0.001 A 
HETATM   29  C9  UNL     1      27.893   1.072  53.146  1.00  0.00     0.011 A 
ENDBRANCH  23  24
ENDBRANCH  19  22
ENDBRANCH  17  18
ENDBRANCH   1  16
TORSDOF 4
ENDMDL
MODEL 9
REMARK VINA RESULT:      -7.3      1.937      3.489
REMARK  4 active torsions:
REMARK  status: ('A' for Active; 'I' for Inactive)
REMARK    1  A    between atoms: C1_2  and  C2_3 
REMARK       I    between atoms: C1_2  and  N1_11 
REMARK    2  A    between atoms: C3_4  and  C4_5 
REMARK    3  A    between atoms: N1_11  and  C10_12 
REMARK    4  A    between atoms: C11_13  and  C12_14 
ROOT
HETATM    1  C12 UNL     1      30.094   8.427  48.119  1.00  0.00     0.055 C 
HETATM    2  C13 UNL     1      30.225   9.330  49.072  1.00  0.00     0.006 C 
HETATM    3  C14 UNL     1      30.550  10.760  49.172  1.00  0.00     0.049 C 
HETATM    4  C15 UNL     1      30.822  11.478  47.908  1.00  0.00     0.123 C 
HETATM    5  N2  UNL     1      29.849  11.601  46.934  1.00  0.00    -0.386 N 
HETATM    6  C16 UNL     1      29.988  12.720  46.032  1.00  0.00     0.146 C 
HETATM    7  C17 UNL     1      29.393  13.893  46.697  1.00  0.00    -0.008 C 
HETATM    8  C18 UNL     1      28.540  14.102  47.701  1.00  0.00    -0.003 C 
HETATM    9  C19 UNL     1      27.899  13.033  48.496  1.00  0.00    -0.001 C 
HETATM   10  C20 UNL     1      27.851  11.704  48.290  1.00  0.00     0.019 C 
HETATM   11  C21 UNL     1      28.527  11.136  47.093  1.00  0.00     0.204 C 
HETATM   12  N3  UNL     1      28.325   9.738  46.915  1.00  0.00    -0.360 N 
HETATM   13  C22 UNL     1      29.334   9.200  46.096  1.00  0.00     0.205 C 
HETATM   14  N4  UNL     1      30.241   8.527  46.715  1.00  0.00    -0.245 NA
HETATM   15  H23 UNL     1      27.724   8.926  47.146  1.00  0.00     0.162 HD
ENDROOT
BRANCH   1  16
HETATM   16  C11 UNL     1      29.736   7.063  48.557  1.00  0.00     0.048 C 
HETATM   17  C10 UNL     1      28.675   6.415  48.122  1.00  0.00     0.093 C 
BRANCH  17  18
HETATM   18  N1  UNL     1      28.295   5.108  48.514  1.00  0.00    -0.334 N 
HETATM   19  C1  UNL     1      26.941   5.129  48.944  1.00  0.00     0.245 C 
HETATM   20  O1  UNL     1      26.223   6.179  48.958  1.00  0.00    -0.268 OA
HETATM   21  H8  UNL     1      28.667   4.157  48.592  1.00  0.00     0.168 HD
BRANCH  19  22
HETATM   22  C2  UNL     1      26.178   3.986  49.426  1.00  0.00     0.075 C 
HETATM   23  C3  UNL     1      25.221   4.173  50.314  1.00  0.00     0.017 C 
BRANCH  23  24
HETATM   24  C4  UNL     1      24.423   3.074  50.832  1.00  0.00    -0.036 A 
HETATM   25  C5  UNL     1      23.347   2.519  50.175  1.00  0.00     0.011 A 
HETATM   26  C6  UNL     1      22.612   1.471  50.701  1.00  0.00     0.001 A 
HETATM   27  C7  UNL     1      22.959   0.951  51.930  1.00  0.00     0.000 A 
HETATM   28  C8  UNL     1      24.026   1.469  52.627  1.00  0.00     0.001 A 
HETATM   29  C9  UNL     1      24.703   2.499  52.051  1.00  0.00     0.011 A 
ENDBRANCH  23  24
ENDBRANCH  19  22
ENDBRANCH  17  18
ENDBRANCH   1  16
TORSDOF 4
ENDMDL
