MODEL 1
REMARK VINA RESULT:      -8.6      0.000      0.000
REMARK  1 active torsions:
REMARK  status: ('A' for Active; 'I' for Inactive)
REMARK    1  A    between atoms: O1_2  and  C2_3 
ROOT
HETATM    1  C2  UNL     1      26.962  -0.437  53.519  1.00  0.00     0.120 C 
HETATM    2  C3  UNL     1      27.477   0.463  52.586  1.00  0.00     0.061 C 
HETATM    3  C4  UNL     1      26.299   1.288  52.219  1.00  0.00    -0.014 C 
HETATM    4  C5  UNL     1      25.932   2.318  51.425  1.00  0.00     0.006 C 
HETATM    5  C6  UNL     1      24.830   3.247  50.940  1.00  0.00     0.119 C 
HETATM    6  N1  UNL     1      23.573   2.879  51.607  1.00  0.00    -0.225 NA
HETATM    7  C7  UNL     1      23.098   1.605  51.164  1.00  0.00     0.191 C 
HETATM    8  S1  UNL     1      22.367   0.518  52.430  1.00  0.00    -0.076 SA
HETATM    9  C8  UNL     1      20.813   0.054  52.606  1.00  0.00     0.093 A 
HETATM   10  C9  UNL     1      20.269   0.743  51.516  1.00  0.00     0.038 C 
HETATM   11  C10 UNL     1      20.003   0.978  50.287  1.00  0.00     0.018 C 
HETATM   12  C11 UNL     1      19.191   2.205  49.875  1.00  0.00     0.235 C 
HETATM   13  F1  UNL     1      18.912   2.180  48.571  1.00  0.00    -0.239 F 
HETATM   14  C12 UNL     1      20.183   3.376  50.057  1.00  0.00     0.046 A 
HETATM   15 CL1  UNL     1      20.220   5.097  49.641  1.00  0.00    -0.159 Cl
HETATM   16  C13 UNL     1      21.416   3.720  50.618  1.00  0.00     0.192 A 
HETATM   17  N2  UNL     1      22.702   3.937  51.244  1.00  0.00    -0.332 N 
HETATM   18  N3  UNL     1      20.508  -0.798  53.661  1.00  0.00    -0.235 NA
HETATM   19  C14 UNL     1      21.372  -1.244  54.510  1.00  0.00     0.237 A 
HETATM   20  N4  UNL     1      22.794  -0.997  54.593  1.00  0.00    -0.212 NA
HETATM   21  C15 UNL     1      23.377  -0.241  53.746  1.00  0.00     0.203 A 
HETATM   22  O2  UNL     1      24.667  -0.016  53.828  1.00  0.00    -0.326 OA
HETATM   23  C16 UNL     1      25.649  -0.881  54.291  1.00  0.00     0.219 C 
HETATM   24  H15 UNL     1      22.033   4.684  50.964  1.00  0.00     0.216 HD
ENDROOT
BRANCH   1  25
HETATM   25  O1  UNL     1      28.100  -1.204  53.847  1.00  0.00    -0.379 OA
HETATM   26  C1  UNL     1      29.373  -0.587  53.859  1.00  0.00     0.202 C 
ENDBRANCH   1  25
TORSDOF 1
ENDMDL
MODEL 2
REMARK VINA RESULT:      -8.3      2.035      4.116
REMARK  1 active torsions:
REMARK  status: ('A' for Active; 'I' for Inactive)
REMARK    1  A    between atoms: O1_2  and  C2_3 
ROOT
HETATM    1  C2  UNL     1      26.673   0.067  54.035  1.00  0.00     0.120 C 
HETATM    2  C3  UNL     1      25.547  -0.517  54.614  1.00  0.00     0.061 C 
HETATM    3  C4  UNL     1      24.457  -0.178  53.664  1.00  0.00    -0.014 C 
HETATM    4  C5  UNL     1      23.130  -0.335  53.474  1.00  0.00     0.006 C 
HETATM    5  C6  UNL     1      21.907  -0.069  52.609  1.00  0.00     0.119 C 
HETATM    6  N1  UNL     1      22.315   0.735  51.448  1.00  0.00    -0.225 NA
HETATM    7  C7  UNL     1      22.694   2.059  51.835  1.00  0.00     0.191 C 
HETATM    8  S1  UNL     1      24.128   2.783  50.976  1.00  0.00    -0.076 SA
HETATM    9  C8  UNL     1      24.168   4.026  49.920  1.00  0.00     0.093 A 
HETATM   10  C9  UNL     1      22.799   4.320  49.899  1.00  0.00     0.038 C 
HETATM   11  C10 UNL     1      21.691   4.792  50.330  1.00  0.00     0.018 C 
HETATM   12  C11 UNL     1      20.403   4.646  49.522  1.00  0.00     0.235 C 
HETATM   13  F1  UNL     1      19.404   5.328  50.084  1.00  0.00    -0.239 F 
HETATM   14  C12 UNL     1      20.029   3.157  49.700  1.00  0.00     0.046 A 
HETATM   15 CL1  UNL     1      18.631   2.135  49.326  1.00  0.00    -0.159 Cl
HETATM   16  C13 UNL     1      20.521   1.925  50.142  1.00  0.00     0.192 A 
HETATM   17  N2  UNL     1      21.156   0.720  50.631  1.00  0.00    -0.332 N 
HETATM   18  N3  UNL     1      25.403   4.398  49.406  1.00  0.00    -0.235 NA
HETATM   19  C14 UNL     1      26.520   3.825  49.708  1.00  0.00     0.237 A 
HETATM   20  N4  UNL     1      26.776   2.717  50.598  1.00  0.00    -0.212 NA
HETATM   21  C15 UNL     1      25.821   2.152  51.231  1.00  0.00     0.203 A 
HETATM   22  O2  UNL     1      26.056   1.143  52.034  1.00  0.00    -0.326 OA
HETATM   23  C16 UNL     1      27.191   0.919  52.802  1.00  0.00     0.219 C 
HETATM   24  H15 UNL     1      20.307   0.755  50.030  1.00  0.00     0.216 HD
ENDROOT
BRANCH   1  25
HETATM   25  O1  UNL     1      27.687  -0.272  54.957  1.00  0.00    -0.379 OA
HETATM   26  C1  UNL     1      29.043  -0.127  54.582  1.00  0.00     0.202 C 
ENDBRANCH   1  25
TORSDOF 1
ENDMDL
MODEL 3
REMARK VINA RESULT:      -8.1      1.942      4.019
REMARK  1 active torsions:
REMARK  status: ('A' for Active; 'I' for Inactive)
REMARK    1  A    between atoms: O1_2  and  C2_3 
ROOT
HETATM    1  C2  UNL     1      26.048  -0.178  54.295  1.00  0.00     0.120 C 
HETATM    2  C3  UNL     1      25.124  -0.887  55.063  1.00  0.00     0.061 C 
HETATM    3  C4  UNL     1      23.846  -0.689  54.335  1.00  0.00    -0.014 C 
HETATM    4  C5  UNL     1      22.535  -1.005  54.390  1.00  0.00     0.006 C 
HETATM    5  C6  UNL     1      21.151  -0.895  53.769  1.00  0.00     0.119 C 
HETATM    6  N1  UNL     1      21.239  -0.059  52.563  1.00  0.00    -0.225 NA
HETATM    7  C7  UNL     1      21.523   1.304  52.890  1.00  0.00     0.191 C 
HETATM    8  S1  UNL     1      22.678   2.186  51.791  1.00  0.00    -0.076 SA
HETATM    9  C8  UNL     1      22.375   3.414  50.761  1.00  0.00     0.093 A 
HETATM   10  C9  UNL     1      21.001   3.544  50.996  1.00  0.00     0.038 C 
HETATM   11  C10 UNL     1      19.943   3.884  51.630  1.00  0.00     0.018 C 
HETATM   12  C11 UNL     1      18.554   3.578  51.071  1.00  0.00     0.235 C 
HETATM   13  F1  UNL     1      17.602   4.142  51.815  1.00  0.00    -0.239 F 
HETATM   14  C12 UNL     1      18.399   2.056  51.296  1.00  0.00     0.046 A 
HETATM   15 CL1  UNL     1      17.088   0.873  51.173  1.00  0.00    -0.159 Cl
HETATM   16  C13 UNL     1      19.107   0.897  51.624  1.00  0.00     0.192 A 
HETATM   17  N2  UNL     1      19.960  -0.219  51.973  1.00  0.00    -0.332 N 
HETATM   18  N3  UNL     1      23.441   3.926  50.033  1.00  0.00    -0.235 NA
HETATM   19  C14 UNL     1      24.655   3.494  50.117  1.00  0.00     0.237 A 
HETATM   20  N4  UNL     1      25.200   2.432  50.932  1.00  0.00    -0.212 NA
HETATM   21  C15 UNL     1      24.452   1.763  51.722  1.00  0.00     0.203 A 
HETATM   22  O2  UNL     1      24.949   0.797  52.455  1.00  0.00    -0.326 OA
HETATM   23  C16 UNL     1      26.225   0.718  52.998  1.00  0.00     0.219 C 
HETATM   24  H15 UNL     1      19.016  -0.292  51.539  1.00  0.00     0.216 HD
ENDROOT
BRANCH   1  25
HETATM   25  O1  UNL     1      27.247  -0.386  55.010  1.00  0.00    -0.379 OA
HETATM   26  C1  UNL     1      28.450   0.179  54.527  1.00  0.00     0.202 C 
ENDBRANCH   1  25
TORSDOF 1
ENDMDL
MODEL 4
REMARK VINA RESULT:      -7.8      1.738      1.887
REMARK  1 active torsions:
REMARK  status: ('A' for Active; 'I' for Inactive)
REMARK    1  A    between atoms: O1_2  and  C2_3 
ROOT
HETATM    1  C2  UNL     1      26.617   0.163  53.504  1.00  0.00     0.120 C 
HETATM    2  C3  UNL     1      27.479   0.950  52.739  1.00  0.00     0.061 C 
HETATM    3  C4  UNL     1      26.558   1.854  52.005  1.00  0.00    -0.014 C 
HETATM    4  C5  UNL     1      26.555   2.859  51.103  1.00  0.00     0.006 C 
HETATM    5  C6  UNL     1      25.753   3.851  50.276  1.00  0.00     0.119 C 
HETATM    6  N1  UNL     1      24.323   3.643  50.544  1.00  0.00    -0.225 NA
HETATM    7  C7  UNL     1      23.868   2.391  50.023  1.00  0.00     0.191 C 
HETATM    8  S1  UNL     1      22.682   1.459  51.045  1.00  0.00    -0.076 SA
HETATM    9  C8  UNL     1      21.106   1.151  50.760  1.00  0.00     0.093 A 
HETATM   10  C9  UNL     1      20.987   1.815  49.533  1.00  0.00     0.038 C 
HETATM   11  C10 UNL     1      21.125   1.993  48.274  1.00  0.00     0.018 C 
HETATM   12  C11 UNL     1      20.607   3.259  47.593  1.00  0.00     0.235 C 
HETATM   13  F1  UNL     1      20.727   3.176  46.268  1.00  0.00    -0.239 F 
HETATM   14  C12 UNL     1      21.618   4.345  48.027  1.00  0.00     0.046 A 
HETATM   15 CL1  UNL     1      21.960   6.025  47.582  1.00  0.00    -0.159 Cl
HETATM   16  C13 UNL     1      22.659   4.611  48.921  1.00  0.00     0.192 A 
HETATM   17  N2  UNL     1      23.716   4.750  49.899  1.00  0.00    -0.332 N 
HETATM   18  N3  UNL     1      20.413   0.401  51.702  1.00  0.00    -0.235 NA
HETATM   19  C14 UNL     1      20.934  -0.066  52.787  1.00  0.00     0.237 A 
HETATM   20  N4  UNL     1      22.284   0.055  53.287  1.00  0.00    -0.212 NA
HETATM   21  C15 UNL     1      23.170   0.699  52.630  1.00  0.00     0.203 A 
HETATM   22  O2  UNL     1      24.393   0.811  53.091  1.00  0.00    -0.326 OA
HETATM   23  C16 UNL     1      25.096  -0.108  53.858  1.00  0.00     0.219 C 
HETATM   24  H15 UNL     1      23.244   5.535  49.404  1.00  0.00     0.216 HD
ENDROOT
BRANCH   1  25
HETATM   25  O1  UNL     1      27.519  -0.681  54.187  1.00  0.00    -0.379 OA
HETATM   26  C1  UNL     1      28.778  -0.175  54.586  1.00  0.00     0.202 C 
ENDBRANCH   1  25
TORSDOF 1
ENDMDL
MODEL 5
REMARK VINA RESULT:      -7.8      4.167      8.108
REMARK  1 active torsions:
REMARK  status: ('A' for Active; 'I' for Inactive)
REMARK    1  A    between atoms: O1_2  and  C2_3 
ROOT
HETATM    1  C2  UNL     1      16.426   1.935  50.301  1.00  0.00     0.120 C 
HETATM    2  C3  UNL     1      16.199   0.603  50.648  1.00  0.00     0.061 C 
HETATM    3  C4  UNL     1      17.313   0.296  51.580  1.00  0.00    -0.014 C 
HETATM    4  C5  UNL     1      17.823  -0.705  52.329  1.00  0.00     0.006 C 
HETATM    5  C6  UNL     1      18.900  -1.179  53.293  1.00  0.00     0.119 C 
HETATM    6  N1  UNL     1      19.840  -0.075  53.532  1.00  0.00    -0.225 NA
HETATM    7  C7  UNL     1      20.605   0.224  52.361  1.00  0.00     0.191 C 
HETATM    8  S1  UNL     1      20.926   1.985  52.020  1.00  0.00    -0.076 SA
HETATM    9  C8  UNL     1      22.338   2.799  52.083  1.00  0.00     0.093 A 
HETATM   10  C9  UNL     1      23.167   1.740  52.472  1.00  0.00     0.038 C 
HETATM   11  C10 UNL     1      23.852   0.669  52.329  1.00  0.00     0.018 C 
HETATM   12  C11 UNL     1      24.599   0.046  53.507  1.00  0.00     0.235 C 
HETATM   13  F1  UNL     1      25.357  -0.976  53.109  1.00  0.00    -0.239 F 
HETATM   14  C12 UNL     1      23.473  -0.589  54.356  1.00  0.00     0.046 A 
HETATM   15 CL1  UNL     1      23.381  -1.680  55.748  1.00  0.00    -0.159 Cl
HETATM   16  C13 UNL     1      22.086  -0.626  54.526  1.00  0.00     0.192 A 
HETATM   17  N2  UNL     1      20.642  -0.568  54.592  1.00  0.00    -0.332 N 
HETATM   18  N3  UNL     1      22.320   4.151  51.766  1.00  0.00    -0.235 NA
HETATM   19  C14 UNL     1      21.260   4.805  51.426  1.00  0.00     0.237 A 
HETATM   20  N4  UNL     1      19.897   4.345  51.294  1.00  0.00    -0.212 NA
HETATM   21  C15 UNL     1      19.592   3.126  51.522  1.00  0.00     0.203 A 
HETATM   22  O2  UNL     1      18.353   2.714  51.406  1.00  0.00    -0.326 OA
HETATM   23  C16 UNL     1      17.386   3.177  50.524  1.00  0.00     0.219 C 
HETATM   24  H15 UNL     1      21.267  -0.920  55.346  1.00  0.00     0.216 HD
ENDROOT
BRANCH   1  25
HETATM   25  O1  UNL     1      15.355   2.195  49.419  1.00  0.00    -0.379 OA
HETATM   26  C1  UNL     1      14.030   1.940  49.841  1.00  0.00     0.202 C 
ENDBRANCH   1  25
TORSDOF 1
ENDMDL
MODEL 6
REMARK VINA RESULT:      -7.7      1.811      2.316
REMARK  1 active torsions:
REMARK  status: ('A' for Active; 'I' for Inactive)
REMARK    1  A    between atoms: O1_2  and  C2_3 
ROOT
HETATM    1  C2  UNL     1      26.120   1.509  52.135  1.00  0.00     0.120 C 
HETATM    2  C3  UNL     1      25.925   2.543  51.219  1.00  0.00     0.061 C 
HETATM    3  C4  UNL     1      24.474   2.834  51.332  1.00  0.00    -0.014 C 
HETATM    4  C5  UNL     1      23.511   3.635  50.828  1.00  0.00     0.006 C 
HETATM    5  C6  UNL     1      22.048   4.051  50.820  1.00  0.00     0.119 C 
HETATM    6  N1  UNL     1      21.313   3.210  51.777  1.00  0.00    -0.225 NA
HETATM    7  C7  UNL     1      21.234   1.854  51.330  1.00  0.00     0.191 C 
HETATM    8  S1  UNL     1      21.420   0.562  52.601  1.00  0.00    -0.076 SA
HETATM    9  C8  UNL     1      20.303  -0.483  53.169  1.00  0.00     0.093 A 
HETATM   10  C9  UNL     1      19.216  -0.063  52.392  1.00  0.00     0.038 C 
HETATM   11  C10 UNL     1      18.497   0.051  51.340  1.00  0.00     0.018 C 
HETATM   12  C11 UNL     1      17.198   0.854  51.355  1.00  0.00     0.235 C 
HETATM   13  F1  UNL     1      16.540   0.726  50.202  1.00  0.00    -0.239 F 
HETATM   14  C12 UNL     1      17.679   2.323  51.388  1.00  0.00     0.046 A 
HETATM   15 CL1  UNL     1      16.930   3.918  51.212  1.00  0.00    -0.159 Cl
HETATM   16  C13 UNL     1      18.803   3.128  51.596  1.00  0.00     0.192 A 
HETATM   17  N2  UNL     1      20.041   3.836  51.834  1.00  0.00    -0.332 N 
HETATM   18  N3  UNL     1      20.701  -1.389  54.143  1.00  0.00    -0.235 NA
HETATM   19  C14 UNL     1      21.895  -1.458  54.629  1.00  0.00     0.237 A 
HETATM   20  N4  UNL     1      23.063  -0.666  54.318  1.00  0.00    -0.212 NA
HETATM   21  C15 UNL     1      23.010   0.263  53.443  1.00  0.00     0.203 A 
HETATM   22  O2  UNL     1      24.071   0.982  53.167  1.00  0.00    -0.326 OA
HETATM   23  C16 UNL     1      25.399   0.578  53.197  1.00  0.00     0.219 C 
HETATM   24  H15 UNL     1      19.089   4.256  51.867  1.00  0.00     0.216 HD
ENDROOT
BRANCH   1  25
HETATM   25  O1  UNL     1      27.503   1.258  52.005  1.00  0.00    -0.379 OA
HETATM   26  C1  UNL     1      28.284   1.055  53.166  1.00  0.00     0.202 C 
ENDBRANCH   1  25
TORSDOF 1
ENDMDL
MODEL 7
REMARK VINA RESULT:      -7.7      2.629      3.974
REMARK  1 active torsions:
REMARK  status: ('A' for Active; 'I' for Inactive)
REMARK    1  A    between atoms: O1_2  and  C2_3 
ROOT
HETATM    1  C2  UNL     1      26.300   3.887  49.712  1.00  0.00     0.120 C 
HETATM    2  C3  UNL     1      25.544   4.786  48.958  1.00  0.00     0.061 C 
HETATM    3  C4  UNL     1      24.177   4.636  49.516  1.00  0.00    -0.014 C 
HETATM    4  C5  UNL     1      22.916   5.098  49.369  1.00  0.00     0.006 C 
HETATM    5  C6  UNL     1      21.465   5.061  49.822  1.00  0.00     0.119 C 
HETATM    6  N1  UNL     1      21.332   4.073  50.903  1.00  0.00    -0.225 NA
HETATM    7  C7  UNL     1      21.522   2.740  50.421  1.00  0.00     0.191 C 
HETATM    8  S1  UNL     1      22.453   1.604  51.500  1.00  0.00    -0.076 SA
HETATM    9  C8  UNL     1      21.916   0.295  52.311  1.00  0.00     0.093 A 
HETATM   10  C9  UNL     1      20.573   0.348  51.920  1.00  0.00     0.038 C 
HETATM   11  C10 UNL     1      19.569   0.209  51.138  1.00  0.00     0.018 C 
HETATM   12  C11 UNL     1      18.160   0.590  51.587  1.00  0.00     0.235 C 
HETATM   13  F1  UNL     1      17.253   0.234  50.677  1.00  0.00    -0.239 F 
HETATM   14  C12 UNL     1      18.176   2.136  51.562  1.00  0.00     0.046 A 
HETATM   15 CL1  UNL     1      16.977   3.430  51.712  1.00  0.00    -0.159 Cl
HETATM   16  C13 UNL     1      19.024   3.244  51.473  1.00  0.00     0.192 A 
HETATM   17  N2  UNL     1      20.013   4.296  51.373  1.00  0.00    -0.332 N 
HETATM   18  N3  UNL     1      22.837  -0.419  53.068  1.00  0.00    -0.235 NA
HETATM   19  C14 UNL     1      24.087  -0.114  53.171  1.00  0.00     0.237 A 
HETATM   20  N4  UNL     1      24.821   0.978  52.573  1.00  0.00    -0.212 NA
HETATM   21  C15 UNL     1      24.237   1.819  51.811  1.00  0.00     0.203 A 
HETATM   22  O2  UNL     1      24.907   2.811  51.274  1.00  0.00    -0.326 OA
HETATM   23  C16 UNL     1      26.239   2.820  50.883  1.00  0.00     0.219 C 
HETATM   24  H15 UNL     1      19.036   4.415  51.713  1.00  0.00     0.216 HD
ENDROOT
BRANCH   1  25
HETATM   25  O1  UNL     1      27.589   4.053  49.161  1.00  0.00    -0.379 OA
HETATM   26  C1  UNL     1      27.922   5.274  48.530  1.00  0.00     0.202 C 
ENDBRANCH   1  25
TORSDOF 1
ENDMDL
MODEL 8
REMARK VINA RESULT:      -7.6      4.127      6.800
REMARK  1 active torsions:
REMARK  status: ('A' for Active; 'I' for Inactive)
REMARK    1  A    between atoms: O1_2  and  C2_3 
ROOT
HETATM    1  C2  UNL     1      20.289   6.301  49.918  1.00  0.00     0.120 C 
HETATM    2  C3  UNL     1      21.475   6.750  50.499  1.00  0.00     0.061 C 
HETATM    3  C4  UNL     1      22.156   5.495  50.904  1.00  0.00    -0.014 C 
HETATM    4  C5  UNL     1      23.279   5.044  51.504  1.00  0.00     0.006 C 
HETATM    5  C6  UNL     1      24.102   3.858  51.983  1.00  0.00     0.119 C 
HETATM    6  N1  UNL     1      23.365   2.621  51.687  1.00  0.00    -0.225 NA
HETATM    7  C7  UNL     1      22.189   2.506  52.493  1.00  0.00     0.191 C 
HETATM    8  S1  UNL     1      20.702   1.836  51.681  1.00  0.00    -0.076 SA
HETATM    9  C8  UNL     1      19.951   0.411  51.935  1.00  0.00     0.093 A 
HETATM   10  C9  UNL     1      20.799  -0.092  52.930  1.00  0.00     0.038 C 
HETATM   11  C10 UNL     1      21.298  -0.206  54.103  1.00  0.00     0.018 C 
HETATM   12  C11 UNL     1      22.433  -1.188  54.386  1.00  0.00     0.235 C 
HETATM   13  F1  UNL     1      22.702  -1.248  55.690  1.00  0.00    -0.239 F 
HETATM   14  C12 UNL     1      23.667  -0.512  53.746  1.00  0.00     0.046 A 
HETATM   15 CL1  UNL     1      25.417  -0.781  53.747  1.00  0.00    -0.159 Cl
HETATM   16  C13 UNL     1      24.057   0.515  52.882  1.00  0.00     0.192 A 
HETATM   17  N2  UNL     1      24.318   1.610  51.973  1.00  0.00    -0.332 N 
HETATM   18  N3  UNL     1      18.816   0.134  51.185  1.00  0.00    -0.235 NA
HETATM   19  C14 UNL     1      18.317   0.931  50.299  1.00  0.00     0.237 A 
HETATM   20  N4  UNL     1      18.770   2.235  49.873  1.00  0.00    -0.212 NA
HETATM   21  C15 UNL     1      19.809   2.768  50.391  1.00  0.00     0.203 A 
HETATM   22  O2  UNL     1      20.220   3.949  49.998  1.00  0.00    -0.326 OA
HETATM   23  C16 UNL     1      19.444   5.010  49.551  1.00  0.00     0.219 C 
HETATM   24  H15 UNL     1      24.987   0.849  52.210  1.00  0.00     0.216 HD
ENDROOT
BRANCH   1  25
HETATM   25  O1  UNL     1      19.667   7.512  49.545  1.00  0.00    -0.379 OA
HETATM   26  C1  UNL     1      20.365   8.730  49.713  1.00  0.00     0.202 C 
ENDBRANCH   1  25
TORSDOF 1
ENDMDL
MODEL 9
REMARK VINA RESULT:      -7.6      3.913      6.989
REMARK  1 active torsions:
REMARK  status: ('A' for Active; 'I' for Inactive)
REMARK    1  A    between atoms: O1_2  and  C2_3 
ROOT
HETATM    1  C2  UNL     1      17.959   0.513  52.067  1.00  0.00     0.120 C 
HETATM    2  C3  UNL     1      18.690  -0.595  52.498  1.00  0.00     0.061 C 
HETATM    3  C4  UNL     1      20.074  -0.070  52.612  1.00  0.00    -0.014 C 
HETATM    4  C5  UNL     1      21.328  -0.450  52.938  1.00  0.00     0.006 C 
HETATM    5  C6  UNL     1      22.792  -0.072  53.102  1.00  0.00     0.119 C 
HETATM    6  N1  UNL     1      22.959   1.342  52.735  1.00  0.00    -0.225 NA
HETATM    7  C7  UNL     1      22.759   1.547  51.334  1.00  0.00     0.191 C 
HETATM    8  S1  UNL     1      21.864   3.058  50.847  1.00  0.00    -0.076 SA
HETATM    9  C8  UNL     1      22.428   4.374  50.067  1.00  0.00     0.093 A 
HETATM   10  C9  UNL     1      23.759   3.967  49.915  1.00  0.00     0.038 C 
HETATM   11  C10 UNL     1      24.740   3.316  49.414  1.00  0.00     0.018 C 
HETATM   12  C11 UNL     1      26.160   3.495  49.946  1.00  0.00     0.235 C 
HETATM   13  F1  UNL     1      27.041   2.834  49.194  1.00  0.00    -0.239 F 
HETATM   14  C12 UNL     1      26.138   2.747  51.299  1.00  0.00     0.046 A 
HETATM   15 CL1  UNL     1      27.337   2.239  52.499  1.00  0.00    -0.159 Cl
HETATM   16  C13 UNL     1      25.285   2.172  52.245  1.00  0.00     0.192 A 
HETATM   17  N2  UNL     1      24.291   1.616  53.138  1.00  0.00    -0.332 N 
HETATM   18  N3  UNL     1      21.532   5.402  49.801  1.00  0.00    -0.235 NA
HETATM   19  C14 UNL     1      20.284   5.384  50.133  1.00  0.00     0.237 A 
HETATM   20  N4  UNL     1      19.529   4.363  50.824  1.00  0.00    -0.212 NA
HETATM   21  C15 UNL     1      20.088   3.280  51.203  1.00  0.00     0.203 A 
HETATM   22  O2  UNL     1      19.401   2.359  51.834  1.00  0.00    -0.326 OA
HETATM   23  C16 UNL     1      18.058   2.045  51.673  1.00  0.00     0.219 C 
HETATM   24  H15 UNL     1      25.277   1.834  53.391  1.00  0.00     0.216 HD
ENDROOT
BRANCH   1  25
HETATM   25  O1  UNL     1      16.654  -0.017  51.968  1.00  0.00    -0.379 OA
HETATM   26  C1  UNL     1      16.396  -1.320  52.453  1.00  0.00     0.202 C 
ENDBRANCH   1  25
TORSDOF 1
ENDMDL
