MODEL 1
REMARK VINA RESULT:      -9.3      0.000      0.000
REMARK  4 active torsions:
REMARK  status: ('A' for Active; 'I' for Inactive)
REMARK    1  A    between atoms: C5_5  and  C6_6 
REMARK    2  A    between atoms: N2_8  and  C7_9 
REMARK    3  A    between atoms: C8_11  and  O1_12 
REMARK    4  A    between atoms: C10_15  and  C11_16 
ROOT
HETATM    1  C6  UNL     1      25.900   1.238  52.874  1.00  0.00     0.068 C 
HETATM    2  N1  UNL     1      25.514   2.447  52.642  1.00  0.00    -0.173 NA
HETATM    3  N2  UNL     1      24.141   2.503  52.386  1.00  0.00    -0.236 N 
HETATM    4  C10 UNL     1      23.647   1.367  53.101  1.00  0.00     0.151 C 
HETATM    5  C18 UNL     1      24.712   0.349  52.768  1.00  0.00     0.094 C 
ENDROOT
BRANCH   1   6
HETATM    6  C5  UNL     1      27.233   0.702  53.188  1.00  0.00    -0.003 A 
HETATM    7  C4  UNL     1      28.402   1.398  53.736  1.00  0.00     0.015 A 
HETATM    8  C3  UNL     1      29.389   0.522  53.859  1.00  0.00     0.012 A 
HETATM    9  C2  UNL     1      28.891  -0.787  53.393  1.00  0.00    -0.039 A 
HETATM   10  C1  UNL     1      29.676  -1.869  53.403  1.00  0.00     0.024 C 
HETATM   11  C19 UNL     1      27.507  -0.597  52.979  1.00  0.00    -0.040 A 
HETATM   12  C20 UNL     1      26.754  -1.743  52.467  1.00  0.00     0.050 C 
ENDBRANCH   1   6
BRANCH   3  13
HETATM   13  C7  UNL     1      23.678   3.582  51.576  1.00  0.00     0.192 A 
HETATM   14  N3  UNL     1      23.098   4.559  51.909  1.00  0.00    -0.198 NA
HETATM   15  C8  UNL     1      22.692   5.537  51.114  1.00  0.00     0.171 A 
HETATM   16  C9  UNL     1      23.012   5.361  49.653  1.00  0.00     0.111 A 
HETATM   17  S1  UNL     1      23.905   3.697  49.700  1.00  0.00    -0.058 SA
BRANCH  15  18
HETATM   18  O1  UNL     1      22.013   6.633  51.667  1.00  0.00    -0.344 OA
HETATM   19  H5  UNL     1      22.497   7.506  51.846  1.00  0.00     0.219 HD
ENDBRANCH  15  18
ENDBRANCH   3  13
BRANCH   4  20
HETATM   20  C11 UNL     1      22.292   0.922  52.744  1.00  0.00    -0.033 A 
HETATM   21  C12 UNL     1      21.428   0.637  53.799  1.00  0.00     0.010 A 
HETATM   22  C13 UNL     1      20.161   0.221  53.417  1.00  0.00     0.007 A 
HETATM   23  C14 UNL     1      19.716   0.075  52.108  1.00  0.00    -0.062 A 
HETATM   24  C15 UNL     1      18.342  -0.374  51.800  1.00  0.00     0.048 C 
HETATM   25  C16 UNL     1      20.621   0.373  51.113  1.00  0.00     0.007 A 
HETATM   26  C17 UNL     1      21.916   0.798  51.424  1.00  0.00     0.010 A 
ENDBRANCH   4  20
TORSDOF 4
ENDMDL
MODEL 2
REMARK VINA RESULT:      -9.1      2.425      4.185
REMARK  4 active torsions:
REMARK  status: ('A' for Active; 'I' for Inactive)
REMARK    1  A    between atoms: C5_5  and  C6_6 
REMARK    2  A    between atoms: N2_8  and  C7_9 
REMARK    3  A    between atoms: C8_11  and  O1_12 
REMARK    4  A    between atoms: C10_15  and  C11_16 
ROOT
HETATM    1  C6  UNL     1      25.910   0.890  52.784  1.00  0.00     0.068 C 
HETATM    2  N1  UNL     1      24.855   0.152  52.707  1.00  0.00    -0.173 NA
HETATM    3  N2  UNL     1      23.750   0.888  52.271  1.00  0.00    -0.236 N 
HETATM    4  C10 UNL     1      24.357   1.927  51.499  1.00  0.00     0.151 C 
HETATM    5  C18 UNL     1      25.535   2.271  52.379  1.00  0.00     0.094 C 
ENDROOT
BRANCH   1   6
HETATM    6  C5  UNL     1      27.284   0.556  53.188  1.00  0.00    -0.003 A 
HETATM    7  C4  UNL     1      28.321   1.432  53.744  1.00  0.00     0.015 A 
HETATM    8  C3  UNL     1      29.408   0.707  53.964  1.00  0.00     0.012 A 
HETATM    9  C2  UNL     1      29.112  -0.681  53.555  1.00  0.00    -0.039 A 
HETATM   10  C1  UNL     1      30.033  -1.644  53.665  1.00  0.00     0.024 C 
HETATM   11  C19 UNL     1      27.739  -0.703  53.070  1.00  0.00    -0.040 A 
HETATM   12  C20 UNL     1      27.172  -1.965  52.594  1.00  0.00     0.050 C 
ENDBRANCH   1   6
BRANCH   3  13
HETATM   13  C7  UNL     1      22.463   0.422  52.674  1.00  0.00     0.192 A 
HETATM   14  N3  UNL     1      22.191  -0.331  53.546  1.00  0.00    -0.198 NA
HETATM   15  C8  UNL     1      20.974  -0.731  53.883  1.00  0.00     0.171 A 
HETATM   16  C9  UNL     1      19.850  -0.154  53.062  1.00  0.00     0.111 A 
HETATM   17  S1  UNL     1      20.829   0.936  51.869  1.00  0.00    -0.058 SA
BRANCH  15  18
HETATM   18  O1  UNL     1      20.818  -1.633  54.945  1.00  0.00    -0.344 OA
HETATM   19  H5  UNL     1      21.626  -2.006  55.432  1.00  0.00     0.219 HD
ENDBRANCH  15  18
ENDBRANCH   3  13
BRANCH   4  20
HETATM   20  C11 UNL     1      23.504   3.087  51.199  1.00  0.00    -0.033 A 
HETATM   21  C12 UNL     1      23.232   3.955  52.254  1.00  0.00     0.010 A 
HETATM   22  C13 UNL     1      22.425   5.034  51.927  1.00  0.00     0.007 A 
HETATM   23  C14 UNL     1      21.891   5.296  50.670  1.00  0.00    -0.062 A 
HETATM   24  C15 UNL     1      21.040   6.477  50.418  1.00  0.00     0.048 C 
HETATM   25  C16 UNL     1      22.197   4.398  49.671  1.00  0.00     0.007 A 
HETATM   26  C17 UNL     1      23.006   3.286  49.929  1.00  0.00     0.010 A 
ENDBRANCH   4  20
TORSDOF 4
ENDMDL
MODEL 3
REMARK VINA RESULT:      -9.1      2.797      7.106
REMARK  4 active torsions:
REMARK  status: ('A' for Active; 'I' for Inactive)
REMARK    1  A    between atoms: C5_5  and  C6_6 
REMARK    2  A    between atoms: N2_8  and  C7_9 
REMARK    3  A    between atoms: C8_11  and  O1_12 
REMARK    4  A    between atoms: C10_15  and  C11_16 
ROOT
HETATM    1  C6  UNL     1      23.878   2.829  50.701  1.00  0.00     0.068 C 
HETATM    2  N1  UNL     1      23.192   2.325  51.670  1.00  0.00    -0.173 NA
HETATM    3  N2  UNL     1      23.966   1.456  52.444  1.00  0.00    -0.236 N 
HETATM    4  C10 UNL     1      25.287   1.971  52.256  1.00  0.00     0.151 C 
HETATM    5  C18 UNL     1      25.256   2.274  50.777  1.00  0.00     0.094 C 
ENDROOT
BRANCH   1   6
HETATM    6  C5  UNL     1      23.491   3.778  49.646  1.00  0.00    -0.003 A 
HETATM    7  C4  UNL     1      23.705   5.228  49.585  1.00  0.00     0.015 A 
HETATM    8  C3  UNL     1      23.193   5.678  48.448  1.00  0.00     0.012 A 
HETATM    9  C2  UNL     1      22.625   4.524  47.722  1.00  0.00    -0.039 A 
HETATM   10  C1  UNL     1      22.037   4.679  46.531  1.00  0.00     0.024 C 
HETATM   11  C19 UNL     1      22.850   3.345  48.547  1.00  0.00    -0.040 A 
HETATM   12  C20 UNL     1      22.385   2.042  48.068  1.00  0.00     0.050 C 
ENDBRANCH   1   6
BRANCH   3  13
HETATM   13  C7  UNL     1      23.276   0.420  53.140  1.00  0.00     0.192 A 
HETATM   14  N3  UNL     1      23.590  -0.136  54.137  1.00  0.00    -0.198 NA
HETATM   15  C8  UNL     1      22.909  -1.094  54.747  1.00  0.00     0.171 A 
HETATM   16  C9  UNL     1      21.615  -1.492  54.086  1.00  0.00     0.111 A 
HETATM   17  S1  UNL     1      21.622  -0.326  52.599  1.00  0.00    -0.058 SA
BRANCH  15  18
HETATM   18  O1  UNL     1      23.420  -1.655  55.926  1.00  0.00    -0.344 OA
HETATM   19  H5  UNL     1      23.091  -1.344  56.834  1.00  0.00     0.219 HD
ENDBRANCH  15  18
ENDBRANCH   3  13
BRANCH   4  20
HETATM   20  C11 UNL     1      26.387   1.072  52.637  1.00  0.00    -0.033 A 
HETATM   21  C12 UNL     1      27.360   1.598  53.484  1.00  0.00     0.010 A 
HETATM   22  C13 UNL     1      28.379   0.716  53.818  1.00  0.00     0.007 A 
HETATM   23  C14 UNL     1      28.488  -0.599  53.381  1.00  0.00    -0.062 A 
HETATM   24  C15 UNL     1      29.613  -1.464  53.794  1.00  0.00     0.048 C 
HETATM   25  C16 UNL     1      27.493  -1.055  52.545  1.00  0.00     0.007 A 
HETATM   26  C17 UNL     1      26.435  -0.222  52.166  1.00  0.00     0.010 A 
ENDBRANCH   4  20
TORSDOF 4
ENDMDL
MODEL 4
REMARK VINA RESULT:      -9.1      3.272      6.193
REMARK  4 active torsions:
REMARK  status: ('A' for Active; 'I' for Inactive)
REMARK    1  A    between atoms: C5_5  and  C6_6 
REMARK    2  A    between atoms: N2_8  and  C7_9 
REMARK    3  A    between atoms: C8_11  and  O1_12 
REMARK    4  A    between atoms: C10_15  and  C11_16 
ROOT
HETATM    1  C6  UNL     1      25.748   4.007  50.363  1.00  0.00     0.068 C 
HETATM    2  N1  UNL     1      26.735   3.246  50.695  1.00  0.00    -0.173 NA
HETATM    3  N2  UNL     1      26.310   2.176  51.487  1.00  0.00    -0.236 N 
HETATM    4  C10 UNL     1      24.952   2.006  51.072  1.00  0.00     0.151 C 
HETATM    5  C18 UNL     1      24.512   3.447  50.973  1.00  0.00     0.094 C 
ENDROOT
BRANCH   1   6
HETATM    6  C5  UNL     1      25.715   5.231  49.549  1.00  0.00    -0.003 A 
HETATM    7  C4  UNL     1      24.642   6.223  49.418  1.00  0.00     0.015 A 
HETATM    8  C3  UNL     1      25.045   7.165  48.577  1.00  0.00     0.012 A 
HETATM    9  C2  UNL     1      26.408   6.816  48.130  1.00  0.00    -0.039 A 
HETATM   10  C1  UNL     1      27.073   7.595  47.270  1.00  0.00     0.024 C 
HETATM   11  C19 UNL     1      26.771   5.570  48.790  1.00  0.00    -0.040 A 
HETATM   12  C20 UNL     1      28.086   4.982  48.528  1.00  0.00     0.050 C 
ENDBRANCH   1   6
BRANCH   3  13
HETATM   13  C7  UNL     1      27.267   1.613  52.382  1.00  0.00     0.192 A 
HETATM   14  N3  UNL     1      28.010   2.173  53.116  1.00  0.00    -0.198 NA
HETATM   15  C8  UNL     1      28.881   1.601  53.933  1.00  0.00     0.171 A 
HETATM   16  C9  UNL     1      28.907   0.095  53.904  1.00  0.00     0.111 A 
HETATM   17  S1  UNL     1      27.572  -0.241  52.610  1.00  0.00    -0.058 SA
BRANCH  15  18
HETATM   18  O1  UNL     1      29.694   2.408  54.742  1.00  0.00    -0.344 OA
HETATM   19  H5  UNL     1      30.070   3.282  54.392  1.00  0.00     0.219 HD
ENDBRANCH  15  18
ENDBRANCH   3  13
BRANCH   4  20
HETATM   20  C11 UNL     1      24.103   1.204  51.965  1.00  0.00    -0.033 A 
HETATM   21  C12 UNL     1      22.789   0.987  51.552  1.00  0.00     0.010 A 
HETATM   22  C13 UNL     1      22.024   0.226  52.424  1.00  0.00     0.007 A 
HETATM   23  C14 UNL     1      22.461  -0.310  53.630  1.00  0.00    -0.062 A 
HETATM   24  C15 UNL     1      21.568  -1.112  54.493  1.00  0.00     0.048 C 
HETATM   25  C16 UNL     1      23.769  -0.057  53.979  1.00  0.00     0.007 A 
HETATM   26  C17 UNL     1      24.600   0.702  53.149  1.00  0.00     0.010 A 
ENDBRANCH   4  20
TORSDOF 4
ENDMDL
MODEL 5
REMARK VINA RESULT:      -9.0      3.182      6.118
REMARK  4 active torsions:
REMARK  status: ('A' for Active; 'I' for Inactive)
REMARK    1  A    between atoms: C5_5  and  C6_6 
REMARK    2  A    between atoms: N2_8  and  C7_9 
REMARK    3  A    between atoms: C8_11  and  O1_12 
REMARK    4  A    between atoms: C10_15  and  C11_16 
ROOT
HETATM    1  C6  UNL     1      22.733   1.511  51.658  1.00  0.00     0.068 C 
HETATM    2  N1  UNL     1      22.215   1.502  50.477  1.00  0.00    -0.173 NA
HETATM    3  N2  UNL     1      22.872   2.394  49.625  1.00  0.00    -0.236 N 
HETATM    4  C10 UNL     1      24.184   2.449  50.190  1.00  0.00     0.151 C 
HETATM    5  C18 UNL     1      23.848   2.495  51.662  1.00  0.00     0.094 C 
ENDROOT
BRANCH   1   6
HETATM    6  C5  UNL     1      22.379   0.749  52.865  1.00  0.00    -0.003 A 
HETATM    7  C4  UNL     1      21.112   0.726  53.604  1.00  0.00     0.015 A 
HETATM    8  C3  UNL     1      21.241  -0.105  54.628  1.00  0.00     0.012 A 
HETATM    9  C2  UNL     1      22.610  -0.658  54.590  1.00  0.00    -0.039 A 
HETATM   10  C1  UNL     1      23.027  -1.534  55.510  1.00  0.00     0.024 C 
HETATM   11  C19 UNL     1      23.279  -0.068  53.438  1.00  0.00    -0.040 A 
HETATM   12  C20 UNL     1      24.665  -0.441  53.153  1.00  0.00     0.050 C 
ENDBRANCH   1   6
BRANCH   3  13
HETATM   13  C7  UNL     1      22.116   2.926  48.538  1.00  0.00     0.192 A 
HETATM   14  N3  UNL     1      22.416   2.993  47.394  1.00  0.00    -0.198 NA
HETATM   15  C8  UNL     1      21.673   3.495  46.420  1.00  0.00     0.171 A 
HETATM   16  C9  UNL     1      20.325   4.023  46.836  1.00  0.00     0.111 A 
HETATM   17  S1  UNL     1      20.383   3.671  48.692  1.00  0.00    -0.058 SA
BRANCH  15  18
HETATM   18  O1  UNL     1      22.174   3.503  45.110  1.00  0.00    -0.344 OA
HETATM   19  H5  UNL     1      22.354   2.634  44.618  1.00  0.00     0.219 HD
ENDBRANCH  15  18
ENDBRANCH   3  13
BRANCH   4  20
HETATM   20  C11 UNL     1      25.024   3.575  49.755  1.00  0.00    -0.033 A 
HETATM   21  C12 UNL     1      26.355   3.287  49.460  1.00  0.00     0.010 A 
HETATM   22  C13 UNL     1      27.110   4.377  49.054  1.00  0.00     0.007 A 
HETATM   23  C14 UNL     1      26.648   5.682  48.928  1.00  0.00    -0.062 A 
HETATM   24  C15 UNL     1      27.532   6.780  48.485  1.00  0.00     0.048 C 
HETATM   25  C16 UNL     1      25.323   5.899  49.237  1.00  0.00     0.007 A 
HETATM   26  C17 UNL     1      24.501   4.847  49.653  1.00  0.00     0.010 A 
ENDBRANCH   4  20
TORSDOF 4
ENDMDL
MODEL 6
REMARK VINA RESULT:      -8.6      2.777      5.090
REMARK  4 active torsions:
REMARK  status: ('A' for Active; 'I' for Inactive)
REMARK    1  A    between atoms: C5_5  and  C6_6 
REMARK    2  A    between atoms: N2_8  and  C7_9 
REMARK    3  A    between atoms: C8_11  and  O1_12 
REMARK    4  A    between atoms: C10_15  and  C11_16 
ROOT
HETATM    1  C6  UNL     1      22.981   2.137  51.850  1.00  0.00     0.068 C 
HETATM    2  N1  UNL     1      23.010   3.410  52.054  1.00  0.00    -0.173 NA
HETATM    3  N2  UNL     1      22.670   4.118  50.898  1.00  0.00    -0.236 N 
HETATM    4  C10 UNL     1      21.834   3.190  50.203  1.00  0.00     0.151 C 
HETATM    5  C18 UNL     1      22.598   1.907  50.431  1.00  0.00     0.094 C 
ENDROOT
BRANCH   1   6
HETATM    6  C5  UNL     1      23.260   1.015  52.759  1.00  0.00    -0.003 A 
HETATM    7  C4  UNL     1      24.546   0.385  53.081  1.00  0.00     0.015 A 
HETATM    8  C3  UNL     1      24.327  -0.589  53.951  1.00  0.00     0.012 A 
HETATM    9  C2  UNL     1      22.878  -0.627  54.231  1.00  0.00    -0.039 A 
HETATM   10  C1  UNL     1      22.362  -1.519  55.082  1.00  0.00     0.024 C 
HETATM   11  C19 UNL     1      22.260   0.424  53.435  1.00  0.00    -0.040 A 
HETATM   12  C20 UNL     1      20.812   0.620  53.515  1.00  0.00     0.050 C 
ENDBRANCH   1   6
BRANCH   3  13
HETATM   13  C7  UNL     1      23.195   5.438  50.770  1.00  0.00     0.192 A 
HETATM   14  N3  UNL     1      24.324   5.793  50.829  1.00  0.00    -0.198 NA
HETATM   15  C8  UNL     1      24.761   7.036  50.700  1.00  0.00     0.171 A 
HETATM   16  C9  UNL     1      23.699   8.076  50.456  1.00  0.00     0.111 A 
HETATM   17  S1  UNL     1      22.154   6.988  50.457  1.00  0.00    -0.058 SA
BRANCH  15  18
HETATM   18  O1  UNL     1      26.136   7.293  50.797  1.00  0.00    -0.344 OA
HETATM   19  H5  UNL     1      26.476   8.156  51.205  1.00  0.00     0.219 HD
ENDBRANCH  15  18
ENDBRANCH   3  13
BRANCH   4  20
HETATM   20  C11 UNL     1      21.601   3.476  48.779  1.00  0.00    -0.033 A 
HETATM   21  C12 UNL     1      22.503   2.922  47.873  1.00  0.00     0.010 A 
HETATM   22  C13 UNL     1      22.245   3.217  46.542  1.00  0.00     0.007 A 
HETATM   23  C14 UNL     1      21.193   3.995  46.073  1.00  0.00    -0.062 A 
HETATM   24  C15 UNL     1      21.000   4.252  44.630  1.00  0.00     0.048 C 
HETATM   25  C16 UNL     1      20.339   4.513  47.021  1.00  0.00     0.007 A 
HETATM   26  C17 UNL     1      20.537   4.257  48.382  1.00  0.00     0.010 A 
ENDBRANCH   4  20
TORSDOF 4
ENDMDL
MODEL 7
REMARK VINA RESULT:      -8.6      3.239      5.906
REMARK  4 active torsions:
REMARK  status: ('A' for Active; 'I' for Inactive)
REMARK    1  A    between atoms: C5_5  and  C6_6 
REMARK    2  A    between atoms: N2_8  and  C7_9 
REMARK    3  A    between atoms: C8_11  and  O1_12 
REMARK    4  A    between atoms: C10_15  and  C11_16 
ROOT
HETATM    1  C6  UNL     1      25.209   4.113  50.222  1.00  0.00     0.068 C 
HETATM    2  N1  UNL     1      25.990   3.163  50.608  1.00  0.00    -0.173 NA
HETATM    3  N2  UNL     1      25.273   2.134  51.226  1.00  0.00    -0.236 N 
HETATM    4  C10 UNL     1      23.985   2.246  50.614  1.00  0.00     0.151 C 
HETATM    5  C18 UNL     1      23.818   3.747  50.599  1.00  0.00     0.094 C 
ENDROOT
BRANCH   1   6
HETATM    6  C5  UNL     1      25.509   5.379  49.536  1.00  0.00    -0.003 A 
HETATM    7  C4  UNL     1      24.697   6.598  49.452  1.00  0.00     0.015 A 
HETATM    8  C3  UNL     1      25.360   7.493  48.734  1.00  0.00     0.012 A 
HETATM    9  C2  UNL     1      26.639   6.881  48.322  1.00  0.00    -0.039 A 
HETATM   10  C1  UNL     1      27.522   7.559  47.580  1.00  0.00     0.024 C 
HETATM   11  C19 UNL     1      26.666   5.532  48.869  1.00  0.00    -0.040 A 
HETATM   12  C20 UNL     1      27.831   4.684  48.616  1.00  0.00     0.050 C 
ENDBRANCH   1   6
BRANCH   3  13
HETATM   13  C7  UNL     1      25.973   1.341  52.183  1.00  0.00     0.192 A 
HETATM   14  N3  UNL     1      26.166   0.173  52.175  1.00  0.00    -0.198 NA
HETATM   15  C8  UNL     1      26.829  -0.517  53.090  1.00  0.00     0.171 A 
HETATM   16  C9  UNL     1      27.378   0.288  54.239  1.00  0.00     0.111 A 
HETATM   17  S1  UNL     1      26.795   2.017  53.749  1.00  0.00    -0.058 SA
BRANCH  15  18
HETATM   18  O1  UNL     1      26.970  -1.904  52.935  1.00  0.00    -0.344 OA
HETATM   19  H5  UNL     1      27.005  -2.516  53.743  1.00  0.00     0.219 HD
ENDBRANCH  15  18
ENDBRANCH   3  13
BRANCH   4  20
HETATM   20  C11 UNL     1      22.886   1.550  51.299  1.00  0.00    -0.033 A 
HETATM   21  C12 UNL     1      22.893   1.586  52.692  1.00  0.00     0.010 A 
HETATM   22  C13 UNL     1      21.838   0.918  53.297  1.00  0.00     0.007 A 
HETATM   23  C14 UNL     1      20.819   0.243  52.634  1.00  0.00    -0.062 A 
HETATM   24  C15 UNL     1      19.734  -0.440  53.368  1.00  0.00     0.048 C 
HETATM   25  C16 UNL     1      20.872   0.245  51.257  1.00  0.00     0.007 A 
HETATM   26  C17 UNL     1      21.907   0.898  50.580  1.00  0.00     0.010 A 
ENDBRANCH   4  20
TORSDOF 4
ENDMDL
MODEL 8
REMARK VINA RESULT:      -8.4      3.505      5.156
REMARK  4 active torsions:
REMARK  status: ('A' for Active; 'I' for Inactive)
REMARK    1  A    between atoms: C5_5  and  C6_6 
REMARK    2  A    between atoms: N2_8  and  C7_9 
REMARK    3  A    between atoms: C8_11  and  O1_12 
REMARK    4  A    between atoms: C10_15  and  C11_16 
ROOT
HETATM    1  C6  UNL     1      24.288   3.949  49.994  1.00  0.00     0.068 C 
HETATM    2  N1  UNL     1      23.061   4.327  49.869  1.00  0.00    -0.173 NA
HETATM    3  N2  UNL     1      22.196   3.495  50.586  1.00  0.00    -0.236 N 
HETATM    4  C10 UNL     1      23.038   3.005  51.633  1.00  0.00     0.151 C 
HETATM    5  C18 UNL     1      24.310   2.742  50.862  1.00  0.00     0.094 C 
ENDROOT
BRANCH   1   6
HETATM    6  C5  UNL     1      25.525   4.510  49.430  1.00  0.00    -0.003 A 
HETATM    7  C4  UNL     1      26.834   3.871  49.258  1.00  0.00     0.015 A 
HETATM    8  C3  UNL     1      27.658   4.749  48.706  1.00  0.00     0.012 A 
HETATM    9  C2  UNL     1      26.906   6.003  48.497  1.00  0.00    -0.039 A 
HETATM   10  C1  UNL     1      27.489   7.074  47.949  1.00  0.00     0.024 C 
HETATM   11  C19 UNL     1      25.552   5.777  48.983  1.00  0.00    -0.040 A 
HETATM   12  C20 UNL     1      24.575   6.864  48.898  1.00  0.00     0.050 C 
ENDBRANCH   1   6
BRANCH   3  13
HETATM   13  C7  UNL     1      20.853   3.400  50.115  1.00  0.00     0.192 A 
HETATM   14  N3  UNL     1      19.973   4.184  50.231  1.00  0.00    -0.198 NA
HETATM   15  C8  UNL     1      18.739   4.049  49.771  1.00  0.00     0.171 A 
HETATM   16  C9  UNL     1      18.458   2.766  49.034  1.00  0.00     0.111 A 
HETATM   17  S1  UNL     1      20.150   1.932  49.150  1.00  0.00    -0.058 SA
BRANCH  15  18
HETATM   18  O1  UNL     1      17.808   5.074  49.993  1.00  0.00    -0.344 OA
HETATM   19  H5  UNL     1      18.092   5.950  50.418  1.00  0.00     0.219 HD
ENDBRANCH  15  18
ENDBRANCH   3  13
BRANCH   4  20
HETATM   20  C11 UNL     1      22.544   1.821  52.352  1.00  0.00    -0.033 A 
HETATM   21  C12 UNL     1      23.429   0.752  52.480  1.00  0.00     0.010 A 
HETATM   22  C13 UNL     1      22.922  -0.343  53.165  1.00  0.00     0.007 A 
HETATM   23  C14 UNL     1      21.646  -0.440  53.709  1.00  0.00    -0.062 A 
HETATM   24  C15 UNL     1      21.198  -1.652  54.425  1.00  0.00     0.048 C 
HETATM   25  C16 UNL     1      20.823   0.652  53.547  1.00  0.00     0.007 A 
HETATM   26  C17 UNL     1      21.266   1.791  52.866  1.00  0.00     0.010 A 
ENDBRANCH   4  20
TORSDOF 4
ENDMDL
MODEL 9
REMARK VINA RESULT:      -8.4      3.867      6.216
REMARK  4 active torsions:
REMARK  status: ('A' for Active; 'I' for Inactive)
REMARK    1  A    between atoms: C5_5  and  C6_6 
REMARK    2  A    between atoms: N2_8  and  C7_9 
REMARK    3  A    between atoms: C8_11  and  O1_12 
REMARK    4  A    between atoms: C10_15  and  C11_16 
ROOT
HETATM    1  C6  UNL     1      26.254   4.935  49.085  1.00  0.00     0.068 C 
HETATM    2  N1  UNL     1      24.976   4.986  48.921  1.00  0.00    -0.173 NA
HETATM    3  N2  UNL     1      24.322   4.034  49.708  1.00  0.00    -0.236 N 
HETATM    4  C10 UNL     1      25.229   3.861  50.799  1.00  0.00     0.151 C 
HETATM    5  C18 UNL     1      26.548   3.852  50.062  1.00  0.00     0.094 C 
ENDROOT
BRANCH   1   6
HETATM    6  C5  UNL     1      27.330   5.731  48.477  1.00  0.00    -0.003 A 
HETATM    7  C4  UNL     1      28.757   5.414  48.355  1.00  0.00     0.015 A 
HETATM    8  C3  UNL     1      29.357   6.419  47.734  1.00  0.00     0.012 A 
HETATM    9  C2  UNL     1      28.331   7.435  47.426  1.00  0.00    -0.039 A 
HETATM   10  C1  UNL     1      28.650   8.569  46.794  1.00  0.00     0.024 C 
HETATM   11  C19 UNL     1      27.061   6.929  47.930  1.00  0.00    -0.040 A 
HETATM   12  C20 UNL     1      25.854   7.739  47.760  1.00  0.00     0.050 C 
ENDBRANCH   1   6
BRANCH   3  13
HETATM   13  C7  UNL     1      23.057   3.569  49.243  1.00  0.00     0.192 A 
HETATM   14  N3  UNL     1      22.722   2.459  48.999  1.00  0.00    -0.198 NA
HETATM   15  C8  UNL     1      21.528   2.078  48.571  1.00  0.00     0.171 A 
HETATM   16  C9  UNL     1      20.521   3.183  48.386  1.00  0.00     0.111 A 
HETATM   17  S1  UNL     1      21.560   4.676  48.901  1.00  0.00    -0.058 SA
BRANCH  15  18
HETATM   18  O1  UNL     1      21.289   0.718  48.327  1.00  0.00    -0.344 OA
HETATM   19  H5  UNL     1      20.345   0.347  48.332  1.00  0.00     0.219 HD
ENDBRANCH  15  18
ENDBRANCH   3  13
BRANCH   4  20
HETATM   20  C11 UNL     1      25.022   2.661  51.624  1.00  0.00    -0.033 A 
HETATM   21  C12 UNL     1      23.895   2.651  52.443  1.00  0.00     0.010 A 
HETATM   22  C13 UNL     1      23.739   1.501  53.203  1.00  0.00     0.007 A 
HETATM   23  C14 UNL     1      24.595   0.405  53.202  1.00  0.00    -0.062 A 
HETATM   24  C15 UNL     1      24.342  -0.779  54.048  1.00  0.00     0.048 C 
HETATM   25  C16 UNL     1      25.691   0.481  52.370  1.00  0.00     0.007 A 
HETATM   26  C17 UNL     1      25.913   1.610  51.575  1.00  0.00     0.010 A 
ENDBRANCH   4  20
TORSDOF 4
ENDMDL
