MODEL 1
REMARK VINA RESULT:      -8.3      0.000      0.000
REMARK  8 active torsions:
REMARK  status: ('A' for Active; 'I' for Inactive)
REMARK    1  A    between atoms: N2_5  and  C4_6 
REMARK    2  A    between atoms: C4_6  and  C5_7 
REMARK    3  A    between atoms: C5_7  and  C6_8 
REMARK       I    between atoms: C6_8  and  N3_10 
REMARK    4  A    between atoms: N3_10  and  C7_11 
REMARK    5  A    between atoms: C7_11  and  C8_12 
REMARK    6  A    between atoms: C8_12  and  C9_13 
REMARK    7  A    between atoms: C9_13  and  C10_14 
REMARK    8  A    between atoms: C14_19  and  C15_20 
ROOT
HETATM    1  C8  UNL     1      26.479   2.927  50.010  1.00  0.00     0.018 C 
ENDROOT
BRANCH   1   2
HETATM    2  C7  UNL     1      26.464   4.224  49.656  1.00  0.00     0.091 C 
BRANCH   2   3
HETATM    3  N3  UNL     1      27.583   4.857  48.997  1.00  0.00    -0.337 N 
HETATM    4  C6  UNL     1      27.651   6.174  48.369  1.00  0.00     0.223 C 
HETATM    5  O1  UNL     1      26.456   6.477  48.622  1.00  0.00    -0.273 OA
HETATM    6  H12 UNL     1      28.295   4.082  49.126  1.00  0.00     0.168 HD
BRANCH   4   7
HETATM    7  C5  UNL     1      29.049   6.271  47.863  1.00  0.00     0.122 C 
BRANCH   7   8
HETATM    8  C4  UNL     1      29.822   7.422  48.451  1.00  0.00     0.126 C 
BRANCH   8   9
HETATM    9  N2  UNL     1      31.142   7.171  48.792  1.00  0.00    -0.409 N 
HETATM   10  C3  UNL     1      32.076   8.168  49.070  1.00  0.00     0.147 C 
HETATM   11  C2  UNL     1      33.496   7.793  48.648  1.00  0.00     0.291 C 
HETATM   12  N1  UNL     1      33.808   6.424  48.930  1.00  0.00     0.087 N 
HETATM   13  C1  UNL     1      34.989   6.098  48.113  1.00  0.00     0.310 C 
HETATM   14  C22 UNL     1      32.785   5.487  48.513  1.00  0.00     0.291 C 
HETATM   15  C21 UNL     1      31.483   5.872  49.210  1.00  0.00     0.147 C 
ENDBRANCH   8   9
ENDBRANCH   7   8
ENDBRANCH   4   7
ENDBRANCH   2   3
ENDBRANCH   1   2
BRANCH   1  16
HETATM   16  C9  UNL     1      26.430   2.613  51.418  1.00  0.00     0.014 C 
BRANCH  16  17
HETATM   17  C10 UNL     1      26.664   1.982  52.513  1.00  0.00    -0.023 A 
HETATM   18  C11 UNL     1      27.974   2.077  52.887  1.00  0.00     0.031 A 
HETATM   19  C12 UNL     1      28.423   1.441  54.013  1.00  0.00     0.117 A 
HETATM   20  N4  UNL     1      27.491   0.731  54.703  1.00  0.00    -0.272 NA
HETATM   21  C13 UNL     1      26.231   0.683  54.281  1.00  0.00     0.129 A 
HETATM   22  C14 UNL     1      25.683   1.287  53.167  1.00  0.00    -0.002 A 
BRANCH  22  23
HETATM   23  C15 UNL     1      24.405   1.259  52.908  1.00  0.00    -0.041 C 
HETATM   24  C16 UNL     1      23.726   0.104  53.482  1.00  0.00     0.027 C 
HETATM   25  C17 UNL     1      22.456  -0.095  53.664  1.00  0.00     0.011 C 
HETATM   26 BR1  UNL     1      21.695  -1.667  54.451  1.00  0.00    -0.051 Br
HETATM   27  C18 UNL     1      21.453   0.823  53.177  1.00  0.00     0.015 C 
HETATM   28  C19 UNL     1      22.013   1.817  52.547  1.00  0.00    -0.021 C 
HETATM   29  C20 UNL     1      23.444   2.148  52.253  1.00  0.00     0.066 C 
ENDBRANCH  22  23
ENDBRANCH  16  17
ENDBRANCH   1  16
TORSDOF 8
ENDMDL
MODEL 2
REMARK VINA RESULT:      -8.3      4.265      7.147
REMARK  8 active torsions:
REMARK  status: ('A' for Active; 'I' for Inactive)
REMARK    1  A    between atoms: N2_5  and  C4_6 
REMARK    2  A    between atoms: C4_6  and  C5_7 
REMARK    3  A    between atoms: C5_7  and  C6_8 
REMARK       I    between atoms: C6_8  and  N3_10 
REMARK    4  A    between atoms: N3_10  and  C7_11 
REMARK    5  A    between atoms: C7_11  and  C8_12 
REMARK    6  A    between atoms: C8_12  and  C9_13 
REMARK    7  A    between atoms: C9_13  and  C10_14 
REMARK    8  A    between atoms: C14_19  and  C15_20 
ROOT
HETATM    1  C8  UNL     1      26.490   4.500  49.242  1.00  0.00     0.018 C 
ENDROOT
BRANCH   1   2
HETATM    2  C7  UNL     1      26.612   3.269  49.769  1.00  0.00     0.091 C 
BRANCH   2   3
HETATM    3  N3  UNL     1      25.798   2.819  50.875  1.00  0.00    -0.337 N 
HETATM    4  C6  UNL     1      26.223   2.306  52.175  1.00  0.00     0.223 C 
HETATM    5  O1  UNL     1      27.453   2.414  51.938  1.00  0.00    -0.273 OA
HETATM    6  H12 UNL     1      24.845   2.987  50.442  1.00  0.00     0.168 HD
BRANCH   4   7
HETATM    7  C5  UNL     1      24.948   2.006  52.887  1.00  0.00     0.122 C 
BRANCH   7   8
HETATM    8  C4  UNL     1      24.866   0.593  53.401  1.00  0.00     0.126 C 
BRANCH   8   9
HETATM    9  N2  UNL     1      26.063  -0.002  53.769  1.00  0.00    -0.409 N 
HETATM   10  C3  UNL     1      26.748   0.294  54.947  1.00  0.00     0.147 C 
HETATM   11  C2  UNL     1      28.265   0.189  54.800  1.00  0.00     0.291 C 
HETATM   12  N1  UNL     1      28.662  -0.936  54.007  1.00  0.00     0.087 N 
HETATM   13  C1  UNL     1      30.054  -0.677  53.600  1.00  0.00     0.310 C 
HETATM   14  C22 UNL     1      27.923  -1.076  52.769  1.00  0.00     0.291 C 
HETATM   15  C21 UNL     1      26.441  -1.189  53.117  1.00  0.00     0.147 C 
ENDBRANCH   8   9
ENDBRANCH   7   8
ENDBRANCH   4   7
ENDBRANCH   2   3
ENDBRANCH   1   2
BRANCH   1  16
HETATM   16  C9  UNL     1      25.175   5.097  49.223  1.00  0.00     0.014 C 
BRANCH  16  17
HETATM   17  C10 UNL     1      24.097   5.632  49.673  1.00  0.00    -0.023 A 
HETATM   18  C11 UNL     1      24.296   6.921  50.077  1.00  0.00     0.031 A 
HETATM   19  C12 UNL     1      23.268   7.646  50.617  1.00  0.00     0.117 A 
HETATM   20  N4  UNL     1      22.076   7.001  50.716  1.00  0.00    -0.272 NA
HETATM   21  C13 UNL     1      21.954   5.743  50.301  1.00  0.00     0.129 A 
HETATM   22  C14 UNL     1      22.922   4.933  49.744  1.00  0.00    -0.002 A 
BRANCH  22  23
HETATM   23  C15 UNL     1      22.661   3.745  49.272  1.00  0.00    -0.041 C 
HETATM   24  C16 UNL     1      22.370   2.764  50.311  1.00  0.00     0.027 C 
HETATM   25  C17 UNL     1      21.809   1.598  50.204  1.00  0.00     0.011 C 
HETATM   26 BR1  UNL     1      21.471   0.408  51.667  1.00  0.00    -0.051 Br
HETATM   27  C18 UNL     1      21.475   1.015  48.926  1.00  0.00     0.015 C 
HETATM   28  C19 UNL     1      21.830   1.810  47.956  1.00  0.00    -0.021 C 
HETATM   29  C20 UNL     1      22.496   3.153  47.944  1.00  0.00     0.066 C 
ENDBRANCH  22  23
ENDBRANCH  16  17
ENDBRANCH   1  16
TORSDOF 8
ENDMDL
MODEL 3
REMARK VINA RESULT:      -8.3      1.883      3.457
REMARK  8 active torsions:
REMARK  status: ('A' for Active; 'I' for Inactive)
REMARK    1  A    between atoms: N2_5  and  C4_6 
REMARK    2  A    between atoms: C4_6  and  C5_7 
REMARK    3  A    between atoms: C5_7  and  C6_8 
REMARK       I    between atoms: C6_8  and  N3_10 
REMARK    4  A    between atoms: N3_10  and  C7_11 
REMARK    5  A    between atoms: C7_11  and  C8_12 
REMARK    6  A    between atoms: C8_12  and  C9_13 
REMARK    7  A    between atoms: C9_13  and  C10_14 
REMARK    8  A    between atoms: C14_19  and  C15_20 
ROOT
HETATM    1  C8  UNL     1      26.457   3.138  49.757  1.00  0.00     0.018 C 
ENDROOT
BRANCH   1   2
HETATM    2  C7  UNL     1      26.376   4.459  49.516  1.00  0.00     0.091 C 
BRANCH   2   3
HETATM    3  N3  UNL     1      27.413   5.180  48.815  1.00  0.00    -0.337 N 
HETATM    4  C6  UNL     1      27.493   6.607  48.513  1.00  0.00     0.223 C 
HETATM    5  O1  UNL     1      26.399   6.896  49.063  1.00  0.00    -0.273 OA
HETATM    6  H12 UNL     1      28.057   4.363  48.613  1.00  0.00     0.168 HD
BRANCH   4   7
HETATM    7  C5  UNL     1      28.779   6.757  47.776  1.00  0.00     0.122 C 
BRANCH   7   8
HETATM    8  C4  UNL     1      29.716   7.757  48.401  1.00  0.00     0.126 C 
BRANCH   8   9
HETATM    9  N2  UNL     1      30.985   7.299  48.720  1.00  0.00    -0.409 N 
HETATM   10  C3  UNL     1      32.024   8.125  49.149  1.00  0.00     0.147 C 
HETATM   11  C2  UNL     1      33.400   7.640  48.697  1.00  0.00     0.291 C 
HETATM   12  N1  UNL     1      33.536   6.217  48.787  1.00  0.00     0.087 N 
HETATM   13  C1  UNL     1      34.693   5.864  47.947  1.00  0.00     0.310 C 
HETATM   14  C22 UNL     1      32.421   5.481  48.227  1.00  0.00     0.291 C 
HETATM   15  C21 UNL     1      31.154   5.923  48.955  1.00  0.00     0.147 C 
ENDBRANCH   8   9
ENDBRANCH   7   8
ENDBRANCH   4   7
ENDBRANCH   2   3
ENDBRANCH   1   2
BRANCH   1  16
HETATM   16  C9  UNL     1      25.768   2.623  50.917  1.00  0.00     0.014 C 
BRANCH  16  17
HETATM   17  C10 UNL     1      24.968   1.891  51.606  1.00  0.00    -0.023 A 
HETATM   18  C11 UNL     1      23.711   1.864  51.073  1.00  0.00     0.031 A 
HETATM   19  C12 UNL     1      22.710   1.163  51.689  1.00  0.00     0.117 A 
HETATM   20  N4  UNL     1      23.057   0.517  52.834  1.00  0.00    -0.272 NA
HETATM   21  C13 UNL     1      24.302   0.586  53.296  1.00  0.00     0.129 A 
HETATM   22  C14 UNL     1      25.375   1.261  52.751  1.00  0.00    -0.002 A 
BRANCH  22  23
HETATM   23  C15 UNL     1      26.584   1.170  53.235  1.00  0.00    -0.041 C 
HETATM   24  C16 UNL     1      27.132  -0.179  53.165  1.00  0.00     0.027 C 
HETATM   25  C17 UNL     1      28.364  -0.571  53.286  1.00  0.00     0.011 C 
HETATM   26 BR1  UNL     1      28.950  -2.391  53.156  1.00  0.00    -0.051 Br
HETATM   27  C18 UNL     1      29.430   0.332  53.650  1.00  0.00     0.015 C 
HETATM   28  C19 UNL     1      28.963   1.533  53.842  1.00  0.00    -0.021 C 
HETATM   29  C20 UNL     1      27.581   2.105  53.758  1.00  0.00     0.066 C 
ENDBRANCH  22  23
ENDBRANCH  16  17
ENDBRANCH   1  16
TORSDOF 8
ENDMDL
MODEL 4
REMARK VINA RESULT:      -8.2      2.120      3.761
REMARK  8 active torsions:
REMARK  status: ('A' for Active; 'I' for Inactive)
REMARK    1  A    between atoms: N2_5  and  C4_6 
REMARK    2  A    between atoms: C4_6  and  C5_7 
REMARK    3  A    between atoms: C5_7  and  C6_8 
REMARK       I    between atoms: C6_8  and  N3_10 
REMARK    4  A    between atoms: N3_10  and  C7_11 
REMARK    5  A    between atoms: C7_11  and  C8_12 
REMARK    6  A    between atoms: C8_12  and  C9_13 
REMARK    7  A    between atoms: C9_13  and  C10_14 
REMARK    8  A    between atoms: C14_19  and  C15_20 
ROOT
HETATM    1  C8  UNL     1      24.509   2.866  50.517  1.00  0.00     0.018 C 
ENDROOT
BRANCH   1   2
HETATM    2  C7  UNL     1      25.230   3.974  50.763  1.00  0.00     0.091 C 
BRANCH   2   3
HETATM    3  N3  UNL     1      26.432   4.291  50.027  1.00  0.00    -0.337 N 
HETATM    4  C6  UNL     1      26.600   5.197  48.894  1.00  0.00     0.223 C 
HETATM    5  O1  UNL     1      25.390   5.537  48.846  1.00  0.00    -0.273 OA
HETATM    6  H12 UNL     1      27.108   3.679  50.568  1.00  0.00     0.168 HD
BRANCH   4   7
HETATM    7  C5  UNL     1      28.051   5.111  48.565  1.00  0.00     0.122 C 
BRANCH   7   8
HETATM    8  C4  UNL     1      28.631   6.409  48.067  1.00  0.00     0.126 C 
BRANCH   8   9
HETATM    9  N2  UNL     1      29.989   6.411  47.787  1.00  0.00    -0.409 N 
HETATM   10  C3  UNL     1      30.789   5.270  47.809  1.00  0.00     0.147 C 
HETATM   11  C2  UNL     1      32.224   5.553  48.252  1.00  0.00     0.291 C 
HETATM   12  N1  UNL     1      32.736   6.773  47.704  1.00  0.00     0.087 N 
HETATM   13  C1  UNL     1      33.908   7.127  48.524  1.00  0.00     0.310 C 
HETATM   14  C22 UNL     1      31.832   7.899  47.825  1.00  0.00     0.291 C 
HETATM   15  C21 UNL     1      30.527   7.529  47.125  1.00  0.00     0.147 C 
ENDBRANCH   8   9
ENDBRANCH   7   8
ENDBRANCH   4   7
ENDBRANCH   2   3
ENDBRANCH   1   2
BRANCH   1  16
HETATM   16  C9  UNL     1      24.046   2.098  51.649  1.00  0.00     0.014 C 
BRANCH  16  17
HETATM   17  C10 UNL     1      23.779   1.067  52.366  1.00  0.00    -0.023 A 
HETATM   18  C11 UNL     1      22.542   0.558  52.089  1.00  0.00     0.031 A 
HETATM   19  C12 UNL     1      22.066  -0.525  52.778  1.00  0.00     0.117 A 
HETATM   20  N4  UNL     1      22.895  -1.034  53.727  1.00  0.00    -0.272 NA
HETATM   21  C13 UNL     1      24.087  -0.488  53.944  1.00  0.00     0.129 A 
HETATM   22  C14 UNL     1      24.655   0.596  53.306  1.00  0.00    -0.002 A 
BRANCH  22  23
HETATM   23  C15 UNL     1      25.883   0.980  53.528  1.00  0.00    -0.041 C 
HETATM   24  C16 UNL     1      26.846  -0.113  53.482  1.00  0.00     0.027 C 
HETATM   25  C17 UNL     1      28.139  -0.063  53.376  1.00  0.00     0.011 C 
HETATM   26 BR1  UNL     1      29.291  -1.593  53.313  1.00  0.00    -0.051 Br
HETATM   27  C18 UNL     1      28.870   1.182  53.410  1.00  0.00     0.015 C 
HETATM   28  C19 UNL     1      28.053   2.184  53.572  1.00  0.00    -0.021 C 
HETATM   29  C20 UNL     1      26.565   2.260  53.726  1.00  0.00     0.066 C 
ENDBRANCH  22  23
ENDBRANCH  16  17
ENDBRANCH   1  16
TORSDOF 8
ENDMDL
MODEL 5
REMARK VINA RESULT:      -8.2      1.977      2.520
REMARK  8 active torsions:
REMARK  status: ('A' for Active; 'I' for Inactive)
REMARK    1  A    between atoms: N2_5  and  C4_6 
REMARK    2  A    between atoms: C4_6  and  C5_7 
REMARK    3  A    between atoms: C5_7  and  C6_8 
REMARK       I    between atoms: C6_8  and  N3_10 
REMARK    4  A    between atoms: N3_10  and  C7_11 
REMARK    5  A    between atoms: C7_11  and  C8_12 
REMARK    6  A    between atoms: C8_12  and  C9_13 
REMARK    7  A    between atoms: C9_13  and  C10_14 
REMARK    8  A    between atoms: C14_19  and  C15_20 
ROOT
HETATM    1  C8  UNL     1      26.469   2.458  50.325  1.00  0.00     0.018 C 
ENDROOT
BRANCH   1   2
HETATM    2  C7  UNL     1      26.325   3.760  50.017  1.00  0.00     0.091 C 
BRANCH   2   3
HETATM    3  N3  UNL     1      27.350   4.507  49.326  1.00  0.00    -0.337 N 
HETATM    4  C6  UNL     1      27.231   5.768  48.598  1.00  0.00     0.223 C 
HETATM    5  O1  UNL     1      25.998   5.899  48.809  1.00  0.00    -0.273 OA
HETATM    6  H12 UNL     1      28.169   3.864  49.526  1.00  0.00     0.168 HD
BRANCH   4   7
HETATM    7  C5  UNL     1      28.611   6.042  48.106  1.00  0.00     0.122 C 
BRANCH   7   8
HETATM    8  C4  UNL     1      28.727   7.327  47.329  1.00  0.00     0.126 C 
BRANCH   8   9
HETATM    9  N2  UNL     1      29.036   8.465  48.058  1.00  0.00    -0.409 N 
HETATM   10  C3  UNL     1      28.181   9.558  48.191  1.00  0.00     0.147 C 
HETATM   11  C2  UNL     1      28.923  10.889  48.301  1.00  0.00     0.291 C 
HETATM   12  N1  UNL     1      30.096  10.796  49.119  1.00  0.00     0.087 N 
HETATM   13  C1  UNL     1      30.913  11.978  48.795  1.00  0.00     0.310 C 
HETATM   14  C22 UNL     1      30.937   9.657  48.816  1.00  0.00     0.291 C 
HETATM   15  C21 UNL     1      30.095   8.394  48.980  1.00  0.00     0.147 C 
ENDBRANCH   8   9
ENDBRANCH   7   8
ENDBRANCH   4   7
ENDBRANCH   2   3
ENDBRANCH   1   2
BRANCH   1  16
HETATM   16  C9  UNL     1      26.809   2.124  51.687  1.00  0.00     0.014 C 
BRANCH  16  17
HETATM   17  C10 UNL     1      26.915   1.417  52.756  1.00  0.00    -0.023 A 
HETATM   18  C11 UNL     1      28.209   1.328  53.184  1.00  0.00     0.031 A 
HETATM   19  C12 UNL     1      28.525   0.588  54.290  1.00  0.00     0.117 A 
HETATM   20  N4  UNL     1      27.483  -0.030  54.907  1.00  0.00    -0.272 NA
HETATM   21  C13 UNL     1      26.247   0.101  54.435  1.00  0.00     0.129 A 
HETATM   22  C14 UNL     1      25.828   0.821  53.336  1.00  0.00    -0.002 A 
BRANCH  22  23
HETATM   23  C15 UNL     1      24.568   0.967  53.027  1.00  0.00    -0.041 C 
HETATM   24  C16 UNL     1      23.727  -0.120  53.512  1.00  0.00     0.027 C 
HETATM   25  C17 UNL     1      22.435  -0.166  53.635  1.00  0.00     0.011 C 
HETATM   26 BR1  UNL     1      21.452  -1.667  54.306  1.00  0.00    -0.051 Br
HETATM   27  C18 UNL     1      21.576   0.894  53.161  1.00  0.00     0.015 C 
HETATM   28  C19 UNL     1      22.282   1.839  52.607  1.00  0.00    -0.021 C 
HETATM   29  C20 UNL     1      23.755   2.002  52.386  1.00  0.00     0.066 C 
ENDBRANCH  22  23
ENDBRANCH  16  17
ENDBRANCH   1  16
TORSDOF 8
ENDMDL
MODEL 6
REMARK VINA RESULT:      -8.2      2.617      4.497
REMARK  8 active torsions:
REMARK  status: ('A' for Active; 'I' for Inactive)
REMARK    1  A    between atoms: N2_5  and  C4_6 
REMARK    2  A    between atoms: C4_6  and  C5_7 
REMARK    3  A    between atoms: C5_7  and  C6_8 
REMARK       I    between atoms: C6_8  and  N3_10 
REMARK    4  A    between atoms: N3_10  and  C7_11 
REMARK    5  A    between atoms: C7_11  and  C8_12 
REMARK    6  A    between atoms: C8_12  and  C9_13 
REMARK    7  A    between atoms: C9_13  and  C10_14 
REMARK    8  A    between atoms: C14_19  and  C15_20 
ROOT
HETATM    1  C8  UNL     1      24.542   1.778  51.463  1.00  0.00     0.018 C 
ENDROOT
BRANCH   1   2
HETATM    2  C7  UNL     1      24.265   3.093  51.417  1.00  0.00     0.091 C 
BRANCH   2   3
HETATM    3  N3  UNL     1      25.163   4.049  50.811  1.00  0.00    -0.337 N 
HETATM    4  C6  UNL     1      25.144   4.593  49.455  1.00  0.00     0.223 C 
HETATM    5  O1  UNL     1      24.128   3.944  49.093  1.00  0.00    -0.273 OA
HETATM    6  H12 UNL     1      25.798   4.212  51.644  1.00  0.00     0.168 HD
BRANCH   4   7
HETATM    7  C5  UNL     1      26.307   5.523  49.414  1.00  0.00     0.122 C 
BRANCH   7   8
HETATM    8  C4  UNL     1      27.449   5.018  48.572  1.00  0.00     0.126 C 
BRANCH   8   9
HETATM    9  N2  UNL     1      28.479   5.913  48.326  1.00  0.00    -0.409 N 
HETATM   10  C3  UNL     1      29.810   5.536  48.147  1.00  0.00     0.147 C 
HETATM   11  C2  UNL     1      30.801   6.576  48.665  1.00  0.00     0.291 C 
HETATM   12  N1  UNL     1      30.393   7.917  48.371  1.00  0.00     0.087 N 
HETATM   13  C1  UNL     1      31.174   8.787  49.267  1.00  0.00     0.310 C 
HETATM   14  C22 UNL     1      29.006   8.194  48.685  1.00  0.00     0.291 C 
HETATM   15  C21 UNL     1      28.143   7.210  47.901  1.00  0.00     0.147 C 
ENDBRANCH   8   9
ENDBRANCH   7   8
ENDBRANCH   4   7
ENDBRANCH   2   3
ENDBRANCH   1   2
BRANCH   1  16
HETATM   16  C9  UNL     1      23.797   0.966  52.395  1.00  0.00     0.014 C 
BRANCH  16  17
HETATM   17  C10 UNL     1      23.577   0.172  53.382  1.00  0.00    -0.023 A 
HETATM   18  C11 UNL     1      22.275   0.216  53.793  1.00  0.00     0.031 A 
HETATM   19  C12 UNL     1      21.858  -0.539  54.856  1.00  0.00     0.117 A 
HETATM   20  N4  UNL     1      22.810  -1.308  55.448  1.00  0.00    -0.272 NA
HETATM   21  C13 UNL     1      24.059  -1.302  54.993  1.00  0.00     0.129 A 
HETATM   22  C14 UNL     1      24.576  -0.583  53.934  1.00  0.00    -0.002 A 
BRANCH  22  23
HETATM   23  C15 UNL     1      25.800  -0.738  53.508  1.00  0.00    -0.041 C 
HETATM   24  C16 UNL     1      26.706   0.307  53.965  1.00  0.00     0.027 C 
HETATM   25  C17 UNL     1      28.004   0.323  53.973  1.00  0.00     0.011 C 
HETATM   26 BR1  UNL     1      29.078   1.771  54.622  1.00  0.00    -0.051 Br
HETATM   27  C18 UNL     1      28.793  -0.729  53.375  1.00  0.00     0.015 C 
HETATM   28  C19 UNL     1      28.018  -1.633  52.844  1.00  0.00    -0.021 C 
HETATM   29  C20 UNL     1      26.528  -1.756  52.748  1.00  0.00     0.066 C 
ENDBRANCH  22  23
ENDBRANCH  16  17
ENDBRANCH   1  16
TORSDOF 8
ENDMDL
MODEL 7
REMARK VINA RESULT:      -8.1      3.917      6.499
REMARK  8 active torsions:
REMARK  status: ('A' for Active; 'I' for Inactive)
REMARK    1  A    between atoms: N2_5  and  C4_6 
REMARK    2  A    between atoms: C4_6  and  C5_7 
REMARK    3  A    between atoms: C5_7  and  C6_8 
REMARK       I    between atoms: C6_8  and  N3_10 
REMARK    4  A    between atoms: N3_10  and  C7_11 
REMARK    5  A    between atoms: C7_11  and  C8_12 
REMARK    6  A    between atoms: C8_12  and  C9_13 
REMARK    7  A    between atoms: C9_13  and  C10_14 
REMARK    8  A    between atoms: C14_19  and  C15_20 
ROOT
HETATM    1  C8  UNL     1      26.535   2.694  50.122  1.00  0.00     0.018 C 
ENDROOT
BRANCH   1   2
HETATM    2  C7  UNL     1      26.434   3.959  49.674  1.00  0.00     0.091 C 
BRANCH   2   3
HETATM    3  N3  UNL     1      25.684   4.970  50.382  1.00  0.00    -0.337 N 
HETATM    4  C6  UNL     1      25.348   6.327  49.957  1.00  0.00     0.223 C 
HETATM    5  O1  UNL     1      25.927   6.238  48.844  1.00  0.00    -0.273 OA
HETATM    6  H12 UNL     1      25.471   4.416  51.260  1.00  0.00     0.168 HD
BRANCH   4   7
HETATM    7  C5  UNL     1      24.569   6.888  51.097  1.00  0.00     0.122 C 
BRANCH   7   8
HETATM    8  C4  UNL     1      23.370   7.691  50.666  1.00  0.00     0.126 C 
BRANCH   8   9
HETATM    9  N2  UNL     1      22.154   7.025  50.647  1.00  0.00    -0.409 N 
HETATM   10  C3  UNL     1      21.908   5.837  51.336  1.00  0.00     0.147 C 
HETATM   11  C2  UNL     1      20.921   4.921  50.615  1.00  0.00     0.291 C 
HETATM   12  N1  UNL     1      19.833   5.642  50.025  1.00  0.00     0.087 N 
HETATM   13  C1  UNL     1      19.227   4.732  49.038  1.00  0.00     0.310 C 
HETATM   14  C22 UNL     1      20.241   6.808  49.267  1.00  0.00     0.291 C 
HETATM   15  C21 UNL     1      21.020   7.727  50.204  1.00  0.00     0.147 C 
ENDBRANCH   8   9
ENDBRANCH   7   8
ENDBRANCH   4   7
ENDBRANCH   2   3
ENDBRANCH   1   2
BRANCH   1  16
HETATM   16  C9  UNL     1      26.735   2.496  51.538  1.00  0.00     0.014 C 
BRANCH  16  17
HETATM   17  C10 UNL     1      26.891   1.869  52.648  1.00  0.00    -0.023 A 
HETATM   18  C11 UNL     1      28.190   1.892  53.070  1.00  0.00     0.031 A 
HETATM   19  C12 UNL     1      28.558   1.247  54.220  1.00  0.00     0.117 A 
HETATM   20  N4  UNL     1      27.562   0.604  54.884  1.00  0.00    -0.272 NA
HETATM   21  C13 UNL     1      26.317   0.623  54.414  1.00  0.00     0.129 A 
HETATM   22  C14 UNL     1      25.848   1.242  53.274  1.00  0.00    -0.002 A 
BRANCH  22  23
HETATM   23  C15 UNL     1      24.580   1.286  52.967  1.00  0.00    -0.041 C 
HETATM   24  C16 UNL     1      23.832   0.130  53.445  1.00  0.00     0.027 C 
HETATM   25  C17 UNL     1      22.548  -0.023  53.568  1.00  0.00     0.011 C 
HETATM   26 BR1  UNL     1      21.693  -1.605  54.230  1.00  0.00    -0.051 Br
HETATM   27  C18 UNL     1      21.604   0.965  53.102  1.00  0.00     0.015 C 
HETATM   28  C19 UNL     1      22.229   1.969  52.554  1.00  0.00    -0.021 C 
HETATM   29  C20 UNL     1      23.684   2.254  52.333  1.00  0.00     0.066 C 
ENDBRANCH  22  23
ENDBRANCH  16  17
ENDBRANCH   1  16
TORSDOF 8
ENDMDL
MODEL 8
REMARK VINA RESULT:      -7.9      2.310      3.662
REMARK  8 active torsions:
REMARK  status: ('A' for Active; 'I' for Inactive)
REMARK    1  A    between atoms: N2_5  and  C4_6 
REMARK    2  A    between atoms: C4_6  and  C5_7 
REMARK    3  A    between atoms: C5_7  and  C6_8 
REMARK       I    between atoms: C6_8  and  N3_10 
REMARK    4  A    between atoms: N3_10  and  C7_11 
REMARK    5  A    between atoms: C7_11  and  C8_12 
REMARK    6  A    between atoms: C8_12  and  C9_13 
REMARK    7  A    between atoms: C9_13  and  C10_14 
REMARK    8  A    between atoms: C14_19  and  C15_20 
ROOT
HETATM    1  C8  UNL     1      25.879   3.541  49.426  1.00  0.00     0.018 C 
ENDROOT
BRANCH   1   2
HETATM    2  C7  UNL     1      26.215   4.842  49.477  1.00  0.00     0.091 C 
BRANCH   2   3
HETATM    3  N3  UNL     1      27.366   5.370  48.780  1.00  0.00    -0.337 N 
HETATM    4  C6  UNL     1      27.561   6.701  48.211  1.00  0.00     0.223 C 
HETATM    5  O1  UNL     1      26.430   7.132  48.553  1.00  0.00    -0.273 OA
HETATM    6  H12 UNL     1      27.981   4.508  48.827  1.00  0.00     0.168 HD
BRANCH   4   7
HETATM    7  C5  UNL     1      28.930   6.654  47.624  1.00  0.00     0.122 C 
BRANCH   7   8
HETATM    8  C4  UNL     1      29.771   5.522  48.152  1.00  0.00     0.126 C 
BRANCH   8   9
HETATM    9  N2  UNL     1      31.133   5.597  47.907  1.00  0.00    -0.409 N 
HETATM   10  C3  UNL     1      31.872   4.577  47.309  1.00  0.00     0.147 C 
HETATM   11  C2  UNL     1      33.308   4.497  47.824  1.00  0.00     0.291 C 
HETATM   12  N1  UNL     1      33.896   5.790  48.011  1.00  0.00     0.087 N 
HETATM   13  C1  UNL     1      35.064   5.584  48.884  1.00  0.00     0.310 C 
HETATM   14  C22 UNL     1      33.050   6.726  48.721  1.00  0.00     0.291 C 
HETATM   15  C21 UNL     1      31.744   6.863  47.943  1.00  0.00     0.147 C 
ENDBRANCH   8   9
ENDBRANCH   7   8
ENDBRANCH   4   7
ENDBRANCH   2   3
ENDBRANCH   1   2
BRANCH   1  16
HETATM   16  C9  UNL     1      24.514   3.187  49.732  1.00  0.00     0.014 C 
BRANCH  16  17
HETATM   17  C10 UNL     1      23.497   2.440  49.978  1.00  0.00    -0.023 A 
HETATM   18  C11 UNL     1      22.634   2.386  48.920  1.00  0.00     0.031 A 
HETATM   19  C12 UNL     1      21.474   1.665  49.007  1.00  0.00     0.117 A 
HETATM   20  N4  UNL     1      21.259   1.029  50.189  1.00  0.00    -0.272 NA
HETATM   21  C13 UNL     1      22.144   1.124  51.177  1.00  0.00     0.129 A 
HETATM   22  C14 UNL     1      23.335   1.820  51.187  1.00  0.00    -0.002 A 
BRANCH  22  23
HETATM   23  C15 UNL     1      24.181   1.754  52.179  1.00  0.00    -0.041 C 
HETATM   24  C16 UNL     1      24.936   0.508  52.210  1.00  0.00     0.027 C 
HETATM   25  C17 UNL     1      26.024   0.224  52.860  1.00  0.00     0.011 C 
HETATM   26 BR1  UNL     1      26.927  -1.465  52.797  1.00  0.00    -0.051 Br
HETATM   27  C18 UNL     1      26.619   1.136  53.808  1.00  0.00     0.015 C 
HETATM   28  C19 UNL     1      25.905   2.223  53.903  1.00  0.00    -0.021 C 
HETATM   29  C20 UNL     1      24.636   2.660  53.235  1.00  0.00     0.066 C 
ENDBRANCH  22  23
ENDBRANCH  16  17
ENDBRANCH   1  16
TORSDOF 8
ENDMDL
MODEL 9
REMARK VINA RESULT:      -7.9      1.628      2.108
REMARK  8 active torsions:
REMARK  status: ('A' for Active; 'I' for Inactive)
REMARK    1  A    between atoms: N2_5  and  C4_6 
REMARK    2  A    between atoms: C4_6  and  C5_7 
REMARK    3  A    between atoms: C5_7  and  C6_8 
REMARK       I    between atoms: C6_8  and  N3_10 
REMARK    4  A    between atoms: N3_10  and  C7_11 
REMARK    5  A    between atoms: C7_11  and  C8_12 
REMARK    6  A    between atoms: C8_12  and  C9_13 
REMARK    7  A    between atoms: C9_13  and  C10_14 
REMARK    8  A    between atoms: C14_19  and  C15_20 
ROOT
HETATM    1  C8  UNL     1      26.194   2.571  50.263  1.00  0.00     0.018 C 
ENDROOT
BRANCH   1   2
HETATM    2  C7  UNL     1      26.099   3.913  50.237  1.00  0.00     0.091 C 
BRANCH   2   3
HETATM    3  N3  UNL     1      26.930   4.728  49.382  1.00  0.00    -0.337 N 
HETATM    4  C6  UNL     1      26.742   6.120  48.978  1.00  0.00     0.223 C 
HETATM    5  O1  UNL     1      25.672   6.276  49.622  1.00  0.00    -0.273 OA
HETATM    6  H12 UNL     1      27.679   4.010  49.167  1.00  0.00     0.168 HD
BRANCH   4   7
HETATM    7  C5  UNL     1      27.909   6.410  48.098  1.00  0.00     0.122 C 
BRANCH   7   8
HETATM    8  C4  UNL     1      29.042   5.431  48.262  1.00  0.00     0.126 C 
BRANCH   8   9
HETATM    9  N2  UNL     1      30.305   5.883  47.915  1.00  0.00    -0.409 N 
HETATM   10  C3  UNL     1      31.407   5.048  47.732  1.00  0.00     0.147 C 
HETATM   11  C2  UNL     1      32.727   5.702  48.136  1.00  0.00     0.291 C 
HETATM   12  N1  UNL     1      32.801   7.077  47.741  1.00  0.00     0.087 N 
HETATM   13  C1  UNL     1      33.885   7.673  48.540  1.00  0.00     0.310 C 
HETATM   14  C22 UNL     1      31.619   7.848  48.067  1.00  0.00     0.291 C 
HETATM   15  C21 UNL     1      30.423   7.183  47.391  1.00  0.00     0.147 C 
ENDBRANCH   8   9
ENDBRANCH   7   8
ENDBRANCH   4   7
ENDBRANCH   2   3
ENDBRANCH   1   2
BRANCH   1  16
HETATM   16  C9  UNL     1      26.827   1.964  51.410  1.00  0.00     0.014 C 
BRANCH  16  17
HETATM   17  C10 UNL     1      26.970   1.547  52.616  1.00  0.00    -0.023 A 
HETATM   18  C11 UNL     1      28.274   1.589  53.021  1.00  0.00     0.031 A 
HETATM   19  C12 UNL     1      28.629   1.152  54.268  1.00  0.00     0.117 A 
HETATM   20  N4  UNL     1      27.614   0.688  55.044  1.00  0.00    -0.272 NA
HETATM   21  C13 UNL     1      26.366   0.677  54.586  1.00  0.00     0.129 A 
HETATM   22  C14 UNL     1      25.909   1.095  53.353  1.00  0.00    -0.002 A 
BRANCH  22  23
HETATM   23  C15 UNL     1      24.640   1.138  53.050  1.00  0.00    -0.041 C 
HETATM   24  C16 UNL     1      24.114   2.495  52.967  1.00  0.00     0.027 C 
HETATM   25  C17 UNL     1      23.009   2.915  52.430  1.00  0.00     0.011 C 
HETATM   26 BR1  UNL     1      22.444   4.745  52.379  1.00  0.00    -0.051 Br
HETATM   27  C18 UNL     1      22.015   2.012  51.901  1.00  0.00     0.015 C 
HETATM   28  C19 UNL     1      22.391   0.775  52.063  1.00  0.00    -0.021 C 
HETATM   29  C20 UNL     1      23.613   0.163  52.678  1.00  0.00     0.066 C 
ENDBRANCH  22  23
ENDBRANCH  16  17
ENDBRANCH   1  16
TORSDOF 8
ENDMDL
