MODEL 1
REMARK VINA RESULT:      -6.9      0.000      0.000
REMARK  3 active torsions:
REMARK  status: ('A' for Active; 'I' for Inactive)
REMARK    1  A    between atoms: C2_2  and  N1_3 
REMARK    2  A    between atoms: N1_3  and  C3_4 
REMARK    3  A    between atoms: C11_14  and  S1_15 
ROOT
HETATM    1  C1  UNL     1      26.305   3.554  50.021  1.00  0.00     0.046 C 
HETATM    2  C2  UNL     1      24.991   3.252  50.655  1.00  0.00     0.077 C 
HETATM    3  C8  UNL     1      23.907   2.903  49.632  1.00  0.00     0.140 C 
HETATM    4  C9  UNL     1      22.855   2.329  50.540  1.00  0.00     0.231 C 
HETATM    5  O1  UNL     1      21.588   2.409  50.403  1.00  0.00    -0.273 OA
HETATM    6  N2  UNL     1      23.583   1.672  51.591  1.00  0.00    -0.293 N 
HETATM    7  C10 UNL     1      22.915   0.839  52.562  1.00  0.00     0.118 C 
HETATM    8  C11 UNL     1      23.485  -0.109  53.317  1.00  0.00     0.015 C 
HETATM    9  C12 UNL     1      24.892  -0.529  53.347  1.00  0.00     0.043 C 
HETATM   10  C13 UNL     1      25.948   0.055  52.790  1.00  0.00     0.037 C 
HETATM   11 CL1  UNL     1      27.529  -0.678  52.992  1.00  0.00    -0.084 Cl
HETATM   12  C14 UNL     1      25.970   1.290  51.989  1.00  0.00     0.052 C 
HETATM   13  C15 UNL     1      24.981   2.003  51.464  1.00  0.00     0.049 C 
ENDROOT
BRANCH   2  14
HETATM   14  N1  UNL     1      24.518   4.307  51.553  1.00  0.00    -0.378 N 
HETATM   15  H4  UNL     1      24.497   4.261  52.596  1.00  0.00     0.160 HD
BRANCH  14  16
HETATM   16  C3  UNL     1      24.004   5.583  51.200  1.00  0.00     0.009 A 
HETATM   17  C4  UNL     1      24.709   6.650  50.852  1.00  0.00     0.024 A 
HETATM   18  C5  UNL     1      23.827   7.775  50.561  1.00  0.00    -0.002 A 
HETATM   19  C6  UNL     1      22.574   7.332  50.749  1.00  0.00    -0.021 A 
HETATM   20  C7  UNL     1      22.549   5.896  51.175  1.00  0.00     0.083 A 
ENDBRANCH  14  16
ENDBRANCH   2  14
BRANCH   8  21
HETATM   21  S1  UNL     1      22.382  -0.966  54.424  1.00  0.00    -0.142 SA
HETATM   22  H13 UNL     1      22.506  -2.356  54.147  1.00  0.00     0.107 HD
ENDBRANCH   8  21
TORSDOF 3
ENDMDL
MODEL 2
REMARK VINA RESULT:      -6.9      3.528      6.379
REMARK  3 active torsions:
REMARK  status: ('A' for Active; 'I' for Inactive)
REMARK    1  A    between atoms: C2_2  and  N1_3 
REMARK    2  A    between atoms: N1_3  and  C3_4 
REMARK    3  A    between atoms: C11_14  and  S1_15 
ROOT
HETATM    1  C1  UNL     1      27.653   2.404  53.710  1.00  0.00     0.046 C 
HETATM    2  C2  UNL     1      26.703   1.257  53.653  1.00  0.00     0.077 C 
HETATM    3  C8  UNL     1      26.454   0.627  55.025  1.00  0.00     0.140 C 
HETATM    4  C9  UNL     1      25.250  -0.220  54.718  1.00  0.00     0.231 C 
HETATM    5  O1  UNL     1      24.951  -1.353  55.224  1.00  0.00    -0.273 OA
HETATM    6  N2  UNL     1      24.512   0.521  53.732  1.00  0.00    -0.293 N 
HETATM    7  C10 UNL     1      23.189   0.114  53.320  1.00  0.00     0.118 C 
HETATM    8  C11 UNL     1      22.267   0.892  52.738  1.00  0.00     0.015 C 
HETATM    9  C12 UNL     1      22.366   2.313  52.381  1.00  0.00     0.043 C 
HETATM   10  C13 UNL     1      23.438   3.097  52.369  1.00  0.00     0.037 C 
HETATM   11 CL1  UNL     1      23.258   4.777  51.895  1.00  0.00    -0.084 Cl
HETATM   12  C14 UNL     1      24.821   2.729  52.717  1.00  0.00     0.052 C 
HETATM   13  C15 UNL     1      25.311   1.640  53.297  1.00  0.00     0.049 C 
ENDROOT
BRANCH   2  14
HETATM   14  N1  UNL     1      27.088   0.227  52.685  1.00  0.00    -0.378 N 
HETATM   15  H4  UNL     1      26.791   0.184  51.685  1.00  0.00     0.160 HD
BRANCH  14  16
HETATM   16  C3  UNL     1      27.925  -0.900  52.902  1.00  0.00     0.009 A 
HETATM   17  C4  UNL     1      29.183  -0.881  53.316  1.00  0.00     0.024 A 
HETATM   18  C5  UNL     1      29.711  -2.237  53.419  1.00  0.00    -0.002 A 
HETATM   19  C6  UNL     1      28.715  -3.058  53.050  1.00  0.00    -0.021 A 
HETATM   20  C7  UNL     1      27.475  -2.301  52.682  1.00  0.00     0.083 A 
ENDBRANCH  14  16
ENDBRANCH   2  14
BRANCH   8  21
HETATM   21  S1  UNL     1      20.725   0.086  52.350  1.00  0.00    -0.142 SA
HETATM   22  H13 UNL     1      19.943   1.013  51.607  1.00  0.00     0.107 HD
ENDBRANCH   8  21
TORSDOF 3
ENDMDL
MODEL 3
REMARK VINA RESULT:      -6.8      3.652      6.055
REMARK  3 active torsions:
REMARK  status: ('A' for Active; 'I' for Inactive)
REMARK    1  A    between atoms: C2_2  and  N1_3 
REMARK    2  A    between atoms: N1_3  and  C3_4 
REMARK    3  A    between atoms: C11_14  and  S1_15 
ROOT
HETATM    1  C1  UNL     1      24.279   0.577  52.615  1.00  0.00     0.046 C 
HETATM    2  C2  UNL     1      24.966   1.845  52.237  1.00  0.00     0.077 C 
HETATM    3  C8  UNL     1      25.745   1.726  50.925  1.00  0.00     0.140 C 
HETATM    4  C9  UNL     1      26.015   3.177  50.640  1.00  0.00     0.231 C 
HETATM    5  O1  UNL     1      27.045   3.676  50.076  1.00  0.00    -0.273 OA
HETATM    6  N2  UNL     1      24.864   3.878  51.139  1.00  0.00    -0.293 N 
HETATM    7  C10 UNL     1      24.669   5.285  50.880  1.00  0.00     0.118 C 
HETATM    8  C11 UNL     1      23.505   5.946  50.936  1.00  0.00     0.015 C 
HETATM    9  C12 UNL     1      22.173   5.423  51.266  1.00  0.00     0.043 C 
HETATM   10  C13 UNL     1      21.844   4.239  51.771  1.00  0.00     0.037 C 
HETATM   11 CL1  UNL     1      20.152   3.881  52.068  1.00  0.00    -0.084 Cl
HETATM   12  C14 UNL     1      22.751   3.136  52.132  1.00  0.00     0.052 C 
HETATM   13  C15 UNL     1      24.041   2.953  51.878  1.00  0.00     0.049 C 
ENDROOT
BRANCH   2  14
HETATM   14  N1  UNL     1      25.829   2.378  53.292  1.00  0.00    -0.378 N 
HETATM   15  H4  UNL     1      25.658   3.248  53.843  1.00  0.00     0.160 HD
BRANCH  14  16
HETATM   16  C3  UNL     1      27.051   1.836  53.774  1.00  0.00     0.009 A 
HETATM   17  C4  UNL     1      28.264   2.332  53.584  1.00  0.00     0.024 A 
HETATM   18  C5  UNL     1      29.268   1.495  54.233  1.00  0.00    -0.002 A 
HETATM   19  C6  UNL     1      28.601   0.486  54.814  1.00  0.00    -0.021 A 
HETATM   20  C7  UNL     1      27.124   0.591  54.587  1.00  0.00     0.083 A 
ENDBRANCH  14  16
ENDBRANCH   2  14
BRANCH   8  21
HETATM   21  S1  UNL     1      23.599   7.686  50.559  1.00  0.00    -0.142 SA
HETATM   22  H13 UNL     1      23.634   8.382  51.799  1.00  0.00     0.107 HD
ENDBRANCH   8  21
TORSDOF 3
ENDMDL
MODEL 4
REMARK VINA RESULT:      -6.7      3.232      6.276
REMARK  3 active torsions:
REMARK  status: ('A' for Active; 'I' for Inactive)
REMARK    1  A    between atoms: C2_2  and  N1_3 
REMARK    2  A    between atoms: N1_3  and  C3_4 
REMARK    3  A    between atoms: C11_14  and  S1_15 
ROOT
HETATM    1  C1  UNL     1      27.932   2.197  53.052  1.00  0.00     0.046 C 
HETATM    2  C2  UNL     1      26.578   1.708  52.666  1.00  0.00     0.077 C 
HETATM    3  C8  UNL     1      25.529   1.950  53.754  1.00  0.00     0.140 C 
HETATM    4  C9  UNL     1      24.269   1.693  52.975  1.00  0.00     0.231 C 
HETATM    5  O1  UNL     1      23.184   1.179  53.408  1.00  0.00    -0.273 OA
HETATM    6  N2  UNL     1      24.552   2.151  51.642  1.00  0.00    -0.293 N 
HETATM    7  C10 UNL     1      23.514   2.239  50.642  1.00  0.00     0.118 C 
HETATM    8  C11 UNL     1      23.548   2.989  49.532  1.00  0.00     0.015 C 
HETATM    9  C12 UNL     1      24.615   3.883  49.067  1.00  0.00     0.043 C 
HETATM   10  C13 UNL     1      25.857   4.007  49.521  1.00  0.00     0.037 C 
HETATM   11 CL1  UNL     1      26.929   5.171  48.764  1.00  0.00    -0.084 Cl
HETATM   12  C14 UNL     1      26.484   3.262  50.627  1.00  0.00     0.052 C 
HETATM   13  C15 UNL     1      25.956   2.464  51.547  1.00  0.00     0.049 C 
ENDROOT
BRANCH   2  14
HETATM   14  N1  UNL     1      26.560   0.304  52.251  1.00  0.00    -0.378 N 
HETATM   15  H4  UNL     1      25.872  -0.135  51.600  1.00  0.00     0.160 HD
BRANCH  14  16
HETATM   16  C3  UNL     1      27.457  -0.729  52.638  1.00  0.00     0.009 A 
HETATM   17  C4  UNL     1      27.236  -2.033  52.565  1.00  0.00     0.024 A 
HETATM   18  C5  UNL     1      28.392  -2.777  53.056  1.00  0.00    -0.002 A 
HETATM   19  C6  UNL     1      29.303  -1.861  53.420  1.00  0.00    -0.021 A 
HETATM   20  C7  UNL     1      28.811  -0.464  53.195  1.00  0.00     0.083 A 
ENDBRANCH  14  16
ENDBRANCH   2  14
BRANCH   8  21
HETATM   21  S1  UNL     1      22.102   2.879  48.495  1.00  0.00    -0.142 SA
HETATM   22  H13 UNL     1      21.887   4.169  47.937  1.00  0.00     0.107 HD
ENDBRANCH   8  21
TORSDOF 3
ENDMDL
MODEL 5
REMARK VINA RESULT:      -6.6      4.106      6.690
REMARK  3 active torsions:
REMARK  status: ('A' for Active; 'I' for Inactive)
REMARK    1  A    between atoms: C2_2  and  N1_3 
REMARK    2  A    between atoms: N1_3  and  C3_4 
REMARK    3  A    between atoms: C11_14  and  S1_15 
ROOT
HETATM    1  C1  UNL     1      23.615   2.540  50.908  1.00  0.00     0.046 C 
HETATM    2  C2  UNL     1      24.819   3.392  50.700  1.00  0.00     0.077 C 
HETATM    3  C8  UNL     1      25.526   3.103  49.374  1.00  0.00     0.140 C 
HETATM    4  C9  UNL     1      26.438   4.296  49.289  1.00  0.00     0.231 C 
HETATM    5  O1  UNL     1      27.609   4.340  48.786  1.00  0.00    -0.273 OA
HETATM    6  N2  UNL     1      25.704   5.373  49.897  1.00  0.00    -0.293 N 
HETATM    7  C10 UNL     1      26.181   6.734  49.839  1.00  0.00     0.118 C 
HETATM    8  C11 UNL     1      25.441   7.839  50.003  1.00  0.00     0.015 C 
HETATM    9  C12 UNL     1      24.002   7.942  50.276  1.00  0.00     0.043 C 
HETATM   10  C13 UNL     1      23.148   6.983  50.616  1.00  0.00     0.037 C 
HETATM   11 CL1  UNL     1      21.465   7.400  50.884  1.00  0.00    -0.084 Cl
HETATM   12  C14 UNL     1      23.437   5.552  50.807  1.00  0.00     0.052 C 
HETATM   13  C15 UNL     1      24.515   4.836  50.512  1.00  0.00     0.049 C 
ENDROOT
BRANCH   2  14
HETATM   14  N1  UNL     1      25.776   3.332  51.807  1.00  0.00    -0.378 N 
HETATM   15  H4  UNL     1      26.319   4.135  52.193  1.00  0.00     0.160 HD
BRANCH  14  16
HETATM   16  C3  UNL     1      26.153   2.194  52.569  1.00  0.00     0.009 A 
HETATM   17  C4  UNL     1      26.026   2.043  53.879  1.00  0.00     0.024 A 
HETATM   18  C5  UNL     1      26.526   0.738  54.296  1.00  0.00    -0.002 A 
HETATM   19  C6  UNL     1      26.953   0.122  53.182  1.00  0.00    -0.021 A 
HETATM   20  C7  UNL     1      26.763   0.977  51.966  1.00  0.00     0.083 A 
ENDBRANCH  14  16
ENDBRANCH   2  14
BRANCH   8  21
HETATM   21  S1  UNL     1      26.332   9.378  49.870  1.00  0.00    -0.142 SA
HETATM   22  H13 UNL     1      25.459  10.407  50.320  1.00  0.00     0.107 HD
ENDBRANCH   8  21
TORSDOF 3
ENDMDL
MODEL 6
REMARK VINA RESULT:      -6.6      3.192      5.735
REMARK  3 active torsions:
REMARK  status: ('A' for Active; 'I' for Inactive)
REMARK    1  A    between atoms: C2_2  and  N1_3 
REMARK    2  A    between atoms: N1_3  and  C3_4 
REMARK    3  A    between atoms: C11_14  and  S1_15 
ROOT
HETATM    1  C1  UNL     1      26.126   2.058  52.775  1.00  0.00     0.046 C 
HETATM    2  C2  UNL     1      24.859   2.628  52.233  1.00  0.00     0.077 C 
HETATM    3  C8  UNL     1      24.150   3.545  53.232  1.00  0.00     0.140 C 
HETATM    4  C9  UNL     1      23.154   4.212  52.324  1.00  0.00     0.231 C 
HETATM    5  O1  UNL     1      21.972   4.594  52.620  1.00  0.00    -0.273 OA
HETATM    6  N2  UNL     1      23.820   4.326  51.056  1.00  0.00    -0.293 N 
HETATM    7  C10 UNL     1      23.247   5.087  49.971  1.00  0.00     0.118 C 
HETATM    8  C11 UNL     1      23.909   5.589  48.920  1.00  0.00     0.015 C 
HETATM    9  C12 UNL     1      25.342   5.494  48.615  1.00  0.00     0.043 C 
HETATM   10  C13 UNL     1      26.269   4.737  49.190  1.00  0.00     0.037 C 
HETATM   11 CL1  UNL     1      27.923   4.831  48.612  1.00  0.00    -0.084 Cl
HETATM   12  C14 UNL     1      26.086   3.785  50.299  1.00  0.00     0.052 C 
HETATM   13  C15 UNL     1      25.056   3.585  51.112  1.00  0.00     0.049 C 
ENDROOT
BRANCH   2  14
HETATM   14  N1  UNL     1      23.931   1.615  51.728  1.00  0.00    -0.378 N 
HETATM   15  H4  UNL     1      23.728   1.414  50.724  1.00  0.00     0.160 HD
BRANCH  14  16
HETATM   16  C3  UNL     1      23.133   0.713  52.483  1.00  0.00     0.009 A 
HETATM   17  C4  UNL     1      23.563  -0.327  53.182  1.00  0.00     0.024 A 
HETATM   18  C5  UNL     1      22.445  -1.013  53.821  1.00  0.00    -0.002 A 
HETATM   19  C6  UNL     1      21.338  -0.337  53.474  1.00  0.00    -0.021 A 
HETATM   20  C7  UNL     1      21.653   0.830  52.588  1.00  0.00     0.083 A 
ENDBRANCH  14  16
ENDBRANCH   2  14
BRANCH   8  21
HETATM   21  S1  UNL     1      22.909   6.485  47.748  1.00  0.00    -0.142 SA
HETATM   22  H13 UNL     1      22.341   7.590  48.441  1.00  0.00     0.107 HD
ENDBRANCH   8  21
TORSDOF 3
ENDMDL
MODEL 7
REMARK VINA RESULT:      -6.5      2.895      4.035
REMARK  3 active torsions:
REMARK  status: ('A' for Active; 'I' for Inactive)
REMARK    1  A    between atoms: C2_2  and  N1_3 
REMARK    2  A    between atoms: N1_3  and  C3_4 
REMARK    3  A    between atoms: C11_14  and  S1_15 
ROOT
HETATM    1  C1  UNL     1      21.168   2.129  52.284  1.00  0.00     0.046 C 
HETATM    2  C2  UNL     1      22.555   1.998  51.753  1.00  0.00     0.077 C 
HETATM    3  C8  UNL     1      23.339   3.309  51.818  1.00  0.00     0.140 C 
HETATM    4  C9  UNL     1      24.732   2.803  51.563  1.00  0.00     0.231 C 
HETATM    5  O1  UNL     1      25.672   3.402  50.941  1.00  0.00    -0.273 OA
HETATM    6  N2  UNL     1      24.775   1.501  52.172  1.00  0.00    -0.293 N 
HETATM    7  C10 UNL     1      26.014   0.770  52.297  1.00  0.00     0.118 C 
HETATM    8  C11 UNL     1      26.260  -0.227  53.157  1.00  0.00     0.015 C 
HETATM    9  C12 UNL     1      25.359  -0.812  54.159  1.00  0.00     0.043 C 
HETATM   10  C13 UNL     1      24.052  -0.630  54.312  1.00  0.00     0.037 C 
HETATM   11 CL1  UNL     1      23.224  -1.468  55.613  1.00  0.00    -0.084 Cl
HETATM   12  C14 UNL     1      23.165   0.219  53.499  1.00  0.00     0.052 C 
HETATM   13  C15 UNL     1      23.441   1.135  52.580  1.00  0.00     0.049 C 
ENDROOT
BRANCH   2  14
HETATM   14  N1  UNL     1      22.612   1.439  50.401  1.00  0.00    -0.378 N 
HETATM   15  H4  UNL     1      23.017   0.515  50.135  1.00  0.00     0.160 HD
BRANCH  14  16
HETATM   16  C3  UNL     1      22.138   2.026  49.197  1.00  0.00     0.009 A 
HETATM   17  C4  UNL     1      22.842   2.753  48.343  1.00  0.00     0.024 A 
HETATM   18  C5  UNL     1      22.009   3.182  47.225  1.00  0.00    -0.002 A 
HETATM   19  C6  UNL     1      20.785   2.678  47.451  1.00  0.00    -0.021 A 
HETATM   20  C7  UNL     1      20.733   1.892  48.725  1.00  0.00     0.083 A 
ENDBRANCH  14  16
ENDBRANCH   2  14
BRANCH   8  21
HETATM   21  S1  UNL     1      27.897  -0.927  53.063  1.00  0.00    -0.142 SA
HETATM   22  H13 UNL     1      28.177  -1.509  54.330  1.00  0.00     0.107 HD
ENDBRANCH   8  21
TORSDOF 3
ENDMDL
MODEL 8
REMARK VINA RESULT:      -6.3      8.346     10.198
REMARK  3 active torsions:
REMARK  status: ('A' for Active; 'I' for Inactive)
REMARK    1  A    between atoms: C2_2  and  N1_3 
REMARK    2  A    between atoms: N1_3  and  C3_4 
REMARK    3  A    between atoms: C11_14  and  S1_15 
ROOT
HETATM    1  C1  UNL     1      31.526   7.084  49.588  1.00  0.00     0.046 C 
HETATM    2  C2  UNL     1      31.476   7.332  48.120  1.00  0.00     0.077 C 
HETATM    3  C8  UNL     1      32.228   8.599  47.708  1.00  0.00     0.140 C 
HETATM    4  C9  UNL     1      32.300   8.398  46.219  1.00  0.00     0.231 C 
HETATM    5  O1  UNL     1      32.261   9.297  45.314  1.00  0.00    -0.273 OA
HETATM    6  N2  UNL     1      32.420   6.976  46.038  1.00  0.00    -0.293 N 
HETATM    7  C10 UNL     1      32.702   6.405  44.743  1.00  0.00     0.118 C 
HETATM    8  C11 UNL     1      33.213   5.189  44.509  1.00  0.00     0.015 C 
HETATM    9  C12 UNL     1      33.605   4.161  45.482  1.00  0.00     0.043 C 
HETATM   10  C13 UNL     1      33.365   4.114  46.788  1.00  0.00     0.037 C 
HETATM   11 CL1  UNL     1      33.960   2.748  47.713  1.00  0.00    -0.084 Cl
HETATM   12  C14 UNL     1      32.632   5.101  47.599  1.00  0.00     0.052 C 
HETATM   13  C15 UNL     1      32.216   6.327  47.310  1.00  0.00     0.049 C 
ENDROOT
BRANCH   2  14
HETATM   14  N1  UNL     1      30.116   7.351  47.577  1.00  0.00    -0.378 N 
HETATM   15  H4  UNL     1      29.780   7.940  46.784  1.00  0.00     0.160 HD
BRANCH  14  16
HETATM   16  C3  UNL     1      28.997   6.589  48.008  1.00  0.00     0.009 A 
HETATM   17  C4  UNL     1      28.957   5.277  48.186  1.00  0.00     0.024 A 
HETATM   18  C5  UNL     1      27.633   4.859  48.634  1.00  0.00    -0.002 A 
HETATM   19  C6  UNL     1      26.893   5.976  48.716  1.00  0.00    -0.021 A 
HETATM   20  C7  UNL     1      27.675   7.193  48.328  1.00  0.00     0.083 A 
ENDBRANCH  14  16
ENDBRANCH   2  14
BRANCH   8  21
HETATM   21  S1  UNL     1      33.444   4.778  42.790  1.00  0.00    -0.142 SA
HETATM   22  H13 UNL     1      32.496   3.767  42.470  1.00  0.00     0.107 HD
ENDBRANCH   8  21
TORSDOF 3
ENDMDL
MODEL 9
REMARK VINA RESULT:      -6.2      3.157      5.968
REMARK  3 active torsions:
REMARK  status: ('A' for Active; 'I' for Inactive)
REMARK    1  A    between atoms: C2_2  and  N1_3 
REMARK    2  A    between atoms: N1_3  and  C3_4 
REMARK    3  A    between atoms: C11_14  and  S1_15 
ROOT
HETATM    1  C1  UNL     1      25.367   2.463  53.686  1.00  0.00     0.046 C 
HETATM    2  C2  UNL     1      24.600   1.808  52.589  1.00  0.00     0.077 C 
HETATM    3  C8  UNL     1      23.223   1.319  53.040  1.00  0.00     0.140 C 
HETATM    4  C9  UNL     1      22.584   1.045  51.707  1.00  0.00     0.231 C 
HETATM    5  O1  UNL     1      21.740   0.129  51.427  1.00  0.00    -0.273 OA
HETATM    6  N2  UNL     1      23.128   2.036  50.819  1.00  0.00    -0.293 N 
HETATM    7  C10 UNL     1      22.611   2.213  49.483  1.00  0.00     0.118 C 
HETATM    8  C11 UNL     1      22.742   3.309  48.723  1.00  0.00     0.015 C 
HETATM    9  C12 UNL     1      23.424   4.568  49.047  1.00  0.00     0.043 C 
HETATM   10  C13 UNL     1      24.227   4.843  50.069  1.00  0.00     0.037 C 
HETATM   11 CL1  UNL     1      24.908   6.454  50.207  1.00  0.00    -0.084 Cl
HETATM   12  C14 UNL     1      24.639   3.934  51.153  1.00  0.00     0.052 C 
HETATM   13  C15 UNL     1      24.192   2.734  51.498  1.00  0.00     0.049 C 
ENDROOT
BRANCH   2  14
HETATM   14  N1  UNL     1      25.332   0.724  51.931  1.00  0.00    -0.378 N 
HETATM   15  H4  UNL     1      25.120   0.322  50.991  1.00  0.00     0.160 HD
BRANCH  14  16
HETATM   16  C3  UNL     1      26.456   0.009  52.425  1.00  0.00     0.009 A 
HETATM   17  C4  UNL     1      26.549  -1.303  52.585  1.00  0.00     0.024 A 
HETATM   18  C5  UNL     1      27.859  -1.664  53.116  1.00  0.00    -0.002 A 
HETATM   19  C6  UNL     1      28.537  -0.515  53.261  1.00  0.00    -0.021 A 
HETATM   20  C7  UNL     1      27.723   0.670  52.840  1.00  0.00     0.083 A 
ENDBRANCH  14  16
ENDBRANCH   2  14
BRANCH   8  21
HETATM   21  S1  UNL     1      21.986   3.212  47.111  1.00  0.00    -0.142 SA
HETATM   22  H13 UNL     1      21.152   2.060  47.109  1.00  0.00     0.107 HD
ENDBRANCH   8  21
TORSDOF 3
ENDMDL
