MODEL 1
REMARK VINA RESULT:      -8.9      0.000      0.000
REMARK  4 active torsions:
REMARK  status: ('A' for Active; 'I' for Inactive)
REMARK    1  A    between atoms: C1_2  and  C2_3 
REMARK    2  A    between atoms: C1_2  and  C5_7 
REMARK    3  A    between atoms: C3_4  and  C4_5 
REMARK    4  A    between atoms: C4_5  and  O2_6 
ROOT
HETATM    1  C5  UNL     1      25.967   1.387  52.727  1.00  0.00     0.024 A 
HETATM    2  C6  UNL     1      26.554   2.211  51.789  1.00  0.00     0.017 A 
HETATM    3  C7  UNL     1      25.771   2.711  50.770  1.00  0.00     0.011 A 
HETATM    4  C8  UNL     1      24.441   2.371  50.729  1.00  0.00    -0.026 A 
HETATM    5  C9  UNL     1      23.820   1.555  51.643  1.00  0.00     0.002 A 
HETATM    6  C10 UNL     1      24.632   1.081  52.636  1.00  0.00     0.030 A 
HETATM    7  C11 UNL     1      22.414   1.353  51.375  1.00  0.00     0.072 A 
HETATM    8  C12 UNL     1      21.381   0.602  52.036  1.00  0.00    -0.005 A 
HETATM    9  C13 UNL     1      21.418  -0.174  53.153  1.00  0.00     0.017 A 
HETATM   10  C14 UNL     1      20.387  -0.864  53.725  1.00  0.00     0.045 A 
HETATM   11  C15 UNL     1      19.145  -0.799  53.141  1.00  0.00     0.138 A 
HETATM   12  F1  UNL     1      18.084  -1.448  53.645  1.00  0.00    -0.204 F 
HETATM   13  C16 UNL     1      19.006  -0.038  52.007  1.00  0.00     0.073 A 
HETATM   14 CL1  UNL     1      17.433   0.051  51.259  1.00  0.00    -0.081 Cl
HETATM   15  C17 UNL     1      20.100   0.619  51.505  1.00  0.00     0.040 A 
HETATM   16  N1  UNL     1      22.200   2.035  50.324  1.00  0.00    -0.283 NA
HETATM   17  C18 UNL     1      23.334   2.714  49.806  1.00  0.00     0.189 A 
ENDROOT
BRANCH   1  18
HETATM   18  C1  UNL     1      26.802   0.856  53.811  1.00  0.00     0.235 C 
HETATM   19  O1  UNL     1      26.722   1.356  54.975  1.00  0.00    -0.278 OA
BRANCH  18  20
HETATM   20  C2  UNL     1      27.705  -0.220  53.577  1.00  0.00    -0.021 C 
HETATM   21  C3  UNL     1      28.475  -1.151  53.395  1.00  0.00    -0.072 C 
BRANCH  21  22
HETATM   22  C4  UNL     1      29.380  -2.283  53.183  1.00  0.00     0.258 C 
BRANCH  22  23
HETATM   23  O2  UNL     1      28.648  -3.468  53.426  1.00  0.00    -0.389 OA
HETATM   24  H3  UNL     1      28.853  -4.111  52.697  1.00  0.00     0.210 HD
ENDBRANCH  22  23
ENDBRANCH  21  22
ENDBRANCH  18  20
ENDBRANCH   1  18
TORSDOF 4
ENDMDL
MODEL 2
REMARK VINA RESULT:      -8.6      4.842      7.589
REMARK  4 active torsions:
REMARK  status: ('A' for Active; 'I' for Inactive)
REMARK    1  A    between atoms: C1_2  and  C2_3 
REMARK    2  A    between atoms: C1_2  and  C5_7 
REMARK    3  A    between atoms: C3_4  and  C4_5 
REMARK    4  A    between atoms: C4_5  and  O2_6 
ROOT
HETATM    1  C5  UNL     1      22.432   0.908  52.919  1.00  0.00     0.024 A 
HETATM    2  C6  UNL     1      22.944  -0.179  53.597  1.00  0.00     0.017 A 
HETATM    3  C7  UNL     1      24.291  -0.449  53.487  1.00  0.00     0.011 A 
HETATM    4  C8  UNL     1      25.070   0.372  52.708  1.00  0.00    -0.026 A 
HETATM    5  C9  UNL     1      24.600   1.461  52.019  1.00  0.00     0.002 A 
HETATM    6  C10 UNL     1      23.259   1.694  52.155  1.00  0.00     0.030 A 
HETATM    7  C11 UNL     1      25.623   2.159  51.274  1.00  0.00     0.072 A 
HETATM    8  C12 UNL     1      25.609   3.321  50.427  1.00  0.00    -0.005 A 
HETATM    9  C13 UNL     1      24.590   4.144  50.059  1.00  0.00     0.017 A 
HETATM   10  C14 UNL     1      24.654   5.239  49.243  1.00  0.00     0.045 A 
HETATM   11  C15 UNL     1      25.868   5.592  48.705  1.00  0.00     0.138 A 
HETATM   12  F1  UNL     1      26.010   6.653  47.897  1.00  0.00    -0.204 F 
HETATM   13  C16 UNL     1      26.960   4.821  49.020  1.00  0.00     0.073 A 
HETATM   14 CL1  UNL     1      28.505   5.261  48.343  1.00  0.00    -0.081 Cl
HETATM   15  C17 UNL     1      26.798   3.739  49.847  1.00  0.00     0.040 A 
HETATM   16  N1  UNL     1      26.683   1.499  51.514  1.00  0.00    -0.283 NA
HETATM   17  C18 UNL     1      26.512   0.380  52.371  1.00  0.00     0.189 A 
ENDROOT
BRANCH   1  18
HETATM   18  C1  UNL     1      20.998   1.195  53.038  1.00  0.00     0.235 C 
HETATM   19  O1  UNL     1      20.584   2.394  52.965  1.00  0.00    -0.278 OA
BRANCH  18  20
HETATM   20  C2  UNL     1      20.056   0.145  53.233  1.00  0.00    -0.021 C 
HETATM   21  C3  UNL     1      19.250  -0.760  53.380  1.00  0.00    -0.072 C 
BRANCH  21  22
HETATM   22  C4  UNL     1      18.299  -1.862  53.546  1.00  0.00     0.258 C 
BRANCH  22  23
HETATM   23  O2  UNL     1      17.062  -1.304  53.939  1.00  0.00    -0.389 OA
HETATM   24  H3  UNL     1      16.600  -0.972  53.124  1.00  0.00     0.210 HD
ENDBRANCH  22  23
ENDBRANCH  21  22
ENDBRANCH  18  20
ENDBRANCH   1  18
TORSDOF 4
ENDMDL
MODEL 3
REMARK VINA RESULT:      -8.5      3.581      5.361
REMARK  4 active torsions:
REMARK  status: ('A' for Active; 'I' for Inactive)
REMARK    1  A    between atoms: C1_2  and  C2_3 
REMARK    2  A    between atoms: C1_2  and  C5_7 
REMARK    3  A    between atoms: C3_4  and  C4_5 
REMARK    4  A    between atoms: C4_5  and  O2_6 
ROOT
HETATM    1  C5  UNL     1      24.153  -0.290  53.817  1.00  0.00     0.024 A 
HETATM    2  C6  UNL     1      23.036  -1.069  54.033  1.00  0.00     0.017 A 
HETATM    3  C7  UNL     1      21.915  -0.841  53.263  1.00  0.00     0.011 A 
HETATM    4  C8  UNL     1      21.954   0.151  52.314  1.00  0.00    -0.026 A 
HETATM    5  C9  UNL     1      23.045   0.947  52.069  1.00  0.00     0.002 A 
HETATM    6  C10 UNL     1      24.135   0.688  52.853  1.00  0.00     0.030 A 
HETATM    7  C11 UNL     1      22.829   1.916  51.018  1.00  0.00     0.072 A 
HETATM    8  C12 UNL     1      23.656   2.933  50.427  1.00  0.00    -0.005 A 
HETATM    9  C13 UNL     1      24.939   3.304  50.690  1.00  0.00     0.017 A 
HETATM   10  C14 UNL     1      25.663   4.290  50.082  1.00  0.00     0.045 A 
HETATM   11  C15 UNL     1      25.073   5.022  49.081  1.00  0.00     0.138 A 
HETATM   12  F1  UNL     1      25.722   6.005  48.438  1.00  0.00    -0.204 F 
HETATM   13  C16 UNL     1      23.777   4.721  48.742  1.00  0.00     0.073 A 
HETATM   14 CL1  UNL     1      23.019   5.645  47.472  1.00  0.00    -0.081 Cl
HETATM   15  C17 UNL     1      23.129   3.714  49.410  1.00  0.00     0.040 A 
HETATM   16  N1  UNL     1      21.634   1.702  50.643  1.00  0.00    -0.283 NA
HETATM   17  C18 UNL     1      20.964   0.658  51.336  1.00  0.00     0.189 A 
ENDROOT
BRANCH   1  18
HETATM   18  C1  UNL     1      25.346  -0.534  54.637  1.00  0.00     0.235 C 
HETATM   19  O1  UNL     1      25.277  -1.310  55.639  1.00  0.00    -0.278 OA
BRANCH  18  20
HETATM   20  C2  UNL     1      26.587   0.088  54.323  1.00  0.00    -0.021 C 
HETATM   21  C3  UNL     1      27.661   0.611  54.070  1.00  0.00    -0.072 C 
BRANCH  21  22
HETATM   22  C4  UNL     1      28.960   1.217  53.765  1.00  0.00     0.258 C 
BRANCH  22  23
HETATM   23  O2  UNL     1      29.046   2.431  54.483  1.00  0.00    -0.389 OA
HETATM   24  H3  UNL     1      29.939   2.471  54.916  1.00  0.00     0.210 HD
ENDBRANCH  22  23
ENDBRANCH  21  22
ENDBRANCH  18  20
ENDBRANCH   1  18
TORSDOF 4
ENDMDL
MODEL 4
REMARK VINA RESULT:      -8.5      3.612      5.336
REMARK  4 active torsions:
REMARK  status: ('A' for Active; 'I' for Inactive)
REMARK    1  A    between atoms: C1_2  and  C2_3 
REMARK    2  A    between atoms: C1_2  and  C5_7 
REMARK    3  A    between atoms: C3_4  and  C4_5 
REMARK    4  A    between atoms: C4_5  and  O2_6 
ROOT
HETATM    1  C5  UNL     1      25.076   0.645  53.286  1.00  0.00     0.024 A 
HETATM    2  C6  UNL     1      24.078  -0.262  53.576  1.00  0.00     0.017 A 
HETATM    3  C7  UNL     1      22.886  -0.173  52.888  1.00  0.00     0.011 A 
HETATM    4  C8  UNL     1      22.739   0.813  51.943  1.00  0.00    -0.026 A 
HETATM    5  C9  UNL     1      23.707   1.734  51.626  1.00  0.00     0.002 A 
HETATM    6  C10 UNL     1      24.872   1.611  52.330  1.00  0.00     0.030 A 
HETATM    7  C11 UNL     1      23.302   2.666  50.598  1.00  0.00     0.072 A 
HETATM    8  C12 UNL     1      23.957   3.773  49.955  1.00  0.00    -0.005 A 
HETATM    9  C13 UNL     1      25.201   4.297  50.129  1.00  0.00     0.017 A 
HETATM   10  C14 UNL     1      25.757   5.360  49.477  1.00  0.00     0.045 A 
HETATM   11  C15 UNL     1      25.014   6.013  48.523  1.00  0.00     0.138 A 
HETATM   12  F1  UNL     1      25.493   7.065  47.841  1.00  0.00    -0.204 F 
HETATM   13  C16 UNL     1      23.743   5.557  48.275  1.00  0.00     0.073 A 
HETATM   14 CL1  UNL     1      22.792   6.379  47.066  1.00  0.00    -0.081 Cl
HETATM   15  C17 UNL     1      23.269   4.482  48.981  1.00  0.00     0.040 A 
HETATM   16  N1  UNL     1      22.118   2.308  50.307  1.00  0.00    -0.283 NA
HETATM   17  C18 UNL     1      21.629   1.195  51.040  1.00  0.00     0.189 A 
ENDROOT
BRANCH   1  18
HETATM   18  C1  UNL     1      26.344   0.550  54.018  1.00  0.00     0.235 C 
HETATM   19  O1  UNL     1      26.589   1.355  54.968  1.00  0.00    -0.278 OA
BRANCH  18  20
HETATM   20  C2  UNL     1      27.311  -0.439  53.679  1.00  0.00    -0.021 C 
HETATM   21  C3  UNL     1      28.155  -1.274  53.394  1.00  0.00    -0.072 C 
BRANCH  21  22
HETATM   22  C4  UNL     1      29.178  -2.273  53.075  1.00  0.00     0.258 C 
BRANCH  22  23
HETATM   23  O2  UNL     1      28.638  -3.547  53.366  1.00  0.00    -0.389 OA
HETATM   24  H3  UNL     1      28.871  -4.159  52.618  1.00  0.00     0.210 HD
ENDBRANCH  22  23
ENDBRANCH  21  22
ENDBRANCH  18  20
ENDBRANCH   1  18
TORSDOF 4
ENDMDL
MODEL 5
REMARK VINA RESULT:      -8.5      2.351      3.598
REMARK  4 active torsions:
REMARK  status: ('A' for Active; 'I' for Inactive)
REMARK    1  A    between atoms: C1_2  and  C2_3 
REMARK    2  A    between atoms: C1_2  and  C5_7 
REMARK    3  A    between atoms: C3_4  and  C4_5 
REMARK    4  A    between atoms: C4_5  and  O2_6 
ROOT
HETATM    1  C5  UNL     1      25.018  -0.108  53.841  1.00  0.00     0.024 A 
HETATM    2  C6  UNL     1      24.880  -0.849  54.996  1.00  0.00     0.017 A 
HETATM    3  C7  UNL     1      23.625  -1.304  55.341  1.00  0.00     0.011 A 
HETATM    4  C8  UNL     1      22.563  -1.002  54.523  1.00  0.00    -0.026 A 
HETATM    5  C9  UNL     1      22.659  -0.269  53.367  1.00  0.00     0.002 A 
HETATM    6  C10 UNL     1      23.920   0.163  53.062  1.00  0.00     0.030 A 
HETATM    7  C11 UNL     1      21.395  -0.092  52.689  1.00  0.00     0.072 A 
HETATM    8  C12 UNL     1      21.010   0.582  51.478  1.00  0.00    -0.005 A 
HETATM    9  C13 UNL     1      21.746   1.283  50.574  1.00  0.00     0.017 A 
HETATM   10  C14 UNL     1      21.305   1.902  49.439  1.00  0.00     0.045 A 
HETATM   11  C15 UNL     1      19.968   1.838  49.128  1.00  0.00     0.138 A 
HETATM   12  F1  UNL     1      19.462   2.420  48.030  1.00  0.00    -0.204 F 
HETATM   13  C16 UNL     1      19.142   1.150  49.981  1.00  0.00     0.073 A 
HETATM   14 CL1  UNL     1      17.444   1.064  49.596  1.00  0.00    -0.081 Cl
HETATM   15  C17 UNL     1      19.676   0.562  51.099  1.00  0.00     0.040 A 
HETATM   16  N1  UNL     1      20.562  -0.708  53.425  1.00  0.00    -0.283 NA
HETATM   17  C18 UNL     1      21.117  -1.317  54.581  1.00  0.00     0.189 A 
ENDROOT
BRANCH   1  18
HETATM   18  C1  UNL     1      26.354   0.375  53.475  1.00  0.00     0.235 C 
HETATM   19  O1  UNL     1      26.532   1.603  53.205  1.00  0.00    -0.278 OA
BRANCH  18  20
HETATM   20  C2  UNL     1      27.463  -0.516  53.418  1.00  0.00    -0.021 C 
HETATM   21  C3  UNL     1      28.404  -1.293  53.356  1.00  0.00    -0.072 C 
BRANCH  21  22
HETATM   22  C4  UNL     1      29.530  -2.224  53.257  1.00  0.00     0.258 C 
BRANCH  22  23
HETATM   23  O2  UNL     1      29.030  -3.526  53.487  1.00  0.00    -0.389 OA
HETATM   24  H3  UNL     1      28.074  -3.542  53.214  1.00  0.00     0.210 HD
ENDBRANCH  22  23
ENDBRANCH  21  22
ENDBRANCH  18  20
ENDBRANCH   1  18
TORSDOF 4
ENDMDL
MODEL 6
REMARK VINA RESULT:      -8.4      3.070      4.876
REMARK  4 active torsions:
REMARK  status: ('A' for Active; 'I' for Inactive)
REMARK    1  A    between atoms: C1_2  and  C2_3 
REMARK    2  A    between atoms: C1_2  and  C5_7 
REMARK    3  A    between atoms: C3_4  and  C4_5 
REMARK    4  A    between atoms: C4_5  and  O2_6 
ROOT
HETATM    1  C5  UNL     1      23.394  -0.604  54.092  1.00  0.00     0.024 A 
HETATM    2  C6  UNL     1      22.503  -1.258  54.917  1.00  0.00     0.017 A 
HETATM    3  C7  UNL     1      21.169  -1.267  54.571  1.00  0.00     0.011 A 
HETATM    4  C8  UNL     1      20.779  -0.626  53.421  1.00  0.00    -0.026 A 
HETATM    5  C9  UNL     1      21.633   0.036  52.574  1.00  0.00     0.002 A 
HETATM    6  C10 UNL     1      22.946   0.021  52.953  1.00  0.00     0.030 A 
HETATM    7  C11 UNL     1      20.972   0.627  51.432  1.00  0.00     0.072 A 
HETATM    8  C12 UNL     1      21.438   1.393  50.309  1.00  0.00    -0.005 A 
HETATM    9  C13 UNL     1      22.688   1.809  49.969  1.00  0.00     0.017 A 
HETATM   10  C14 UNL     1      23.056   2.541  48.876  1.00  0.00     0.045 A 
HETATM   11  C15 UNL     1      22.087   2.930  47.984  1.00  0.00     0.138 A 
HETATM   12  F1  UNL     1      22.372   3.649  46.888  1.00  0.00    -0.204 F 
HETATM   13  C16 UNL     1      20.790   2.557  48.240  1.00  0.00     0.073 A 
HETATM   14 CL1  UNL     1      19.552   3.045  47.113  1.00  0.00    -0.081 Cl
HETATM   15  C17 UNL     1      20.516   1.822  49.364  1.00  0.00     0.040 A 
HETATM   16  N1  UNL     1      19.748   0.324  51.595  1.00  0.00    -0.283 NA
HETATM   17  C18 UNL     1      19.467  -0.438  52.760  1.00  0.00     0.189 A 
ENDROOT
BRANCH   1  18
HETATM   18  C1  UNL     1      24.814  -0.595  54.461  1.00  0.00     0.235 C 
HETATM   19  O1  UNL     1      25.257  -1.442  55.297  1.00  0.00    -0.278 OA
BRANCH  18  20
HETATM   20  C2  UNL     1      25.711   0.354  53.893  1.00  0.00    -0.021 C 
HETATM   21  C3  UNL     1      26.471   1.183  53.418  1.00  0.00    -0.072 C 
BRANCH  21  22
HETATM   22  C4  UNL     1      27.389   2.185  52.870  1.00  0.00     0.258 C 
BRANCH  22  23
HETATM   23  O2  UNL     1      28.023   2.825  53.960  1.00  0.00    -0.389 OA
HETATM   24  H3  UNL     1      27.382   2.847  54.719  1.00  0.00     0.210 HD
ENDBRANCH  22  23
ENDBRANCH  21  22
ENDBRANCH  18  20
ENDBRANCH   1  18
TORSDOF 4
ENDMDL
MODEL 7
REMARK VINA RESULT:      -8.3      3.183      4.491
REMARK  4 active torsions:
REMARK  status: ('A' for Active; 'I' for Inactive)
REMARK    1  A    between atoms: C1_2  and  C2_3 
REMARK    2  A    between atoms: C1_2  and  C5_7 
REMARK    3  A    between atoms: C3_4  and  C4_5 
REMARK    4  A    between atoms: C4_5  and  O2_6 
ROOT
HETATM    1  C5  UNL     1      25.325   2.823  50.698  1.00  0.00     0.024 A 
HETATM    2  C6  UNL     1      26.511   2.450  51.295  1.00  0.00     0.017 A 
HETATM    3  C7  UNL     1      26.486   1.446  52.239  1.00  0.00     0.011 A 
HETATM    4  C8  UNL     1      25.284   0.858  52.548  1.00  0.00    -0.026 A 
HETATM    5  C9  UNL     1      24.083   1.200  51.978  1.00  0.00     0.002 A 
HETATM    6  C10 UNL     1      24.152   2.200  51.047  1.00  0.00     0.030 A 
HETATM    7  C11 UNL     1      22.966   0.430  52.477  1.00  0.00     0.072 A 
HETATM    8  C12 UNL     1      21.558   0.431  52.187  1.00  0.00    -0.005 A 
HETATM    9  C13 UNL     1      20.826   1.185  51.323  1.00  0.00     0.017 A 
HETATM   10  C14 UNL     1      19.479   1.129  51.101  1.00  0.00     0.045 A 
HETATM   11  C15 UNL     1      18.730   0.220  51.808  1.00  0.00     0.138 A 
HETATM   12  F1  UNL     1      17.403   0.105  51.644  1.00  0.00    -0.204 F 
HETATM   13  C16 UNL     1      19.381  -0.590  52.706  1.00  0.00     0.073 A 
HETATM   14 CL1  UNL     1      18.439  -1.747  53.609  1.00  0.00    -0.081 Cl
HETATM   15  C17 UNL     1      20.737  -0.460  52.862  1.00  0.00     0.040 A 
HETATM   16  N1  UNL     1      23.490  -0.356  53.327  1.00  0.00    -0.283 NA
HETATM   17  C18 UNL     1      24.894  -0.220  53.487  1.00  0.00     0.189 A 
ENDROOT
BRANCH   1  18
HETATM   18  C1  UNL     1      25.352   3.892  49.693  1.00  0.00     0.235 C 
HETATM   19  O1  UNL     1      24.264   4.393  49.271  1.00  0.00    -0.278 OA
BRANCH  18  20
HETATM   20  C2  UNL     1      26.587   4.381  49.180  1.00  0.00    -0.021 C 
HETATM   21  C3  UNL     1      27.639   4.820  48.741  1.00  0.00    -0.072 C 
BRANCH  21  22
HETATM   22  C4  UNL     1      28.901   5.363  48.232  1.00  0.00     0.258 C 
BRANCH  22  23
HETATM   23  O2  UNL     1      29.782   5.497  49.329  1.00  0.00    -0.389 OA
HETATM   24  H3  UNL     1      29.496   6.286  49.861  1.00  0.00     0.210 HD
ENDBRANCH  22  23
ENDBRANCH  21  22
ENDBRANCH  18  20
ENDBRANCH   1  18
TORSDOF 4
ENDMDL
MODEL 8
REMARK VINA RESULT:      -8.3      3.492      4.788
REMARK  4 active torsions:
REMARK  status: ('A' for Active; 'I' for Inactive)
REMARK    1  A    between atoms: C1_2  and  C2_3 
REMARK    2  A    between atoms: C1_2  and  C5_7 
REMARK    3  A    between atoms: C3_4  and  C4_5 
REMARK    4  A    between atoms: C4_5  and  O2_6 
ROOT
HETATM    1  C5  UNL     1      25.081   0.779  53.435  1.00  0.00     0.024 A 
HETATM    2  C6  UNL     1      24.403  -0.416  53.559  1.00  0.00     0.017 A 
HETATM    3  C7  UNL     1      23.097  -0.480  53.122  1.00  0.00     0.011 A 
HETATM    4  C8  UNL     1      22.523   0.644  52.581  1.00  0.00    -0.026 A 
HETATM    5  C9  UNL     1      23.163   1.850  52.440  1.00  0.00     0.002 A 
HETATM    6  C10 UNL     1      24.456   1.871  52.886  1.00  0.00     0.030 A 
HETATM    7  C11 UNL     1      22.339   2.875  51.841  1.00  0.00     0.072 A 
HETATM    8  C12 UNL     1      22.567   4.254  51.503  1.00  0.00    -0.005 A 
HETATM    9  C13 UNL     1      23.670   5.038  51.651  1.00  0.00     0.017 A 
HETATM   10  C14 UNL     1      23.812   6.352  51.304  1.00  0.00     0.045 A 
HETATM   11  C15 UNL     1      22.746   7.004  50.735  1.00  0.00     0.138 A 
HETATM   12  F1  UNL     1      22.811   8.293  50.367  1.00  0.00    -0.204 F 
HETATM   13  C16 UNL     1      21.586   6.295  50.543  1.00  0.00     0.073 A 
HETATM   14 CL1  UNL     1      20.227   7.115  49.821  1.00  0.00    -0.081 Cl
HETATM   15  C17 UNL     1      21.536   4.979  50.924  1.00  0.00     0.040 A 
HETATM   16  N1  UNL     1      21.229   2.293  51.629  1.00  0.00    -0.283 NA
HETATM   17  C18 UNL     1      21.181   0.930  52.024  1.00  0.00     0.189 A 
ENDROOT
BRANCH   1  18
HETATM   18  C1  UNL     1      26.471   0.847  53.901  1.00  0.00     0.235 C 
HETATM   19  O1  UNL     1      26.861   1.841  54.586  1.00  0.00    -0.278 OA
BRANCH  18  20
HETATM   20  C2  UNL     1      27.396  -0.192  53.595  1.00  0.00    -0.021 C 
HETATM   21  C3  UNL     1      28.178  -1.096  53.345  1.00  0.00    -0.072 C 
BRANCH  21  22
HETATM   22  C4  UNL     1      29.098  -2.194  53.042  1.00  0.00     0.258 C 
BRANCH  22  23
HETATM   23  O2  UNL     1      28.333  -3.379  52.943  1.00  0.00    -0.389 OA
HETATM   24  H3  UNL     1      28.854  -4.040  52.414  1.00  0.00     0.210 HD
ENDBRANCH  22  23
ENDBRANCH  21  22
ENDBRANCH  18  20
ENDBRANCH   1  18
TORSDOF 4
ENDMDL
MODEL 9
REMARK VINA RESULT:      -8.3      4.379      7.171
REMARK  4 active torsions:
REMARK  status: ('A' for Active; 'I' for Inactive)
REMARK    1  A    between atoms: C1_2  and  C2_3 
REMARK    2  A    between atoms: C1_2  and  C5_7 
REMARK    3  A    between atoms: C3_4  and  C4_5 
REMARK    4  A    between atoms: C4_5  and  O2_6 
ROOT
HETATM    1  C5  UNL     1      23.225  -0.169  53.896  1.00  0.00     0.024 A 
HETATM    2  C6  UNL     1      24.045  -0.998  54.632  1.00  0.00     0.017 A 
HETATM    3  C7  UNL     1      25.410  -0.899  54.458  1.00  0.00     0.011 A 
HETATM    4  C8  UNL     1      25.898   0.018  53.560  1.00  0.00    -0.026 A 
HETATM    5  C9  UNL     1      25.116   0.860  52.809  1.00  0.00     0.002 A 
HETATM    6  C10 UNL     1      23.770   0.730  53.011  1.00  0.00     0.030 A 
HETATM    7  C11 UNL     1      25.875   1.730  51.939  1.00  0.00     0.072 A 
HETATM    8  C12 UNL     1      25.505   2.750  50.995  1.00  0.00    -0.005 A 
HETATM    9  C13 UNL     1      24.283   3.219  50.622  1.00  0.00     0.017 A 
HETATM   10  C14 UNL     1      24.008   4.199  49.710  1.00  0.00     0.045 A 
HETATM   11  C15 UNL     1      25.054   4.813  49.064  1.00  0.00     0.138 A 
HETATM   12  F1  UNL     1      24.863   5.782  48.157  1.00  0.00    -0.204 F 
HETATM   13  C16 UNL     1      26.329   4.407  49.374  1.00  0.00     0.073 A 
HETATM   14 CL1  UNL     1      27.663   5.180  48.560  1.00  0.00    -0.081 Cl
HETATM   15  C17 UNL     1      26.507   3.415  50.303  1.00  0.00     0.040 A 
HETATM   16  N1  UNL     1      27.085   1.414  52.167  1.00  0.00    -0.283 NA
HETATM   17  C18 UNL     1      27.266   0.387  53.129  1.00  0.00     0.189 A 
ENDROOT
BRANCH   1  18
HETATM   18  C1  UNL     1      21.774  -0.274  54.082  1.00  0.00     0.235 C 
HETATM   19  O1  UNL     1      21.302  -1.092  54.930  1.00  0.00    -0.278 OA
BRANCH  18  20
HETATM   20  C2  UNL     1      20.879   0.532  53.321  1.00  0.00    -0.021 C 
HETATM   21  C3  UNL     1      20.106   1.232  52.687  1.00  0.00    -0.072 C 
BRANCH  21  22
HETATM   22  C4  UNL     1      19.188   2.093  51.937  1.00  0.00     0.258 C 
BRANCH  22  23
HETATM   23  O2  UNL     1      19.418   3.425  52.348  1.00  0.00    -0.389 OA
HETATM   24  H3  UNL     1      20.251   3.744  51.909  1.00  0.00     0.210 HD
ENDBRANCH  22  23
ENDBRANCH  21  22
ENDBRANCH  18  20
ENDBRANCH   1  18
TORSDOF 4
ENDMDL
