MODEL 1
REMARK VINA RESULT:      -8.3      0.000      0.000
REMARK  4 active torsions:
REMARK  status: ('A' for Active; 'I' for Inactive)
REMARK    1  A    between atoms: O1_2  and  C2_3 
REMARK    2  A    between atoms: C6_7  and  C8_10 
REMARK    3  A    between atoms: C8_10  and  C10_12 
REMARK    4  A    between atoms: C17_19  and  C18_20 
ROOT
HETATM    1  C2  UNL     1      21.559   0.261  52.353  1.00  0.00     0.078 A 
HETATM    2  C3  UNL     1      22.206   0.966  51.433  1.00  0.00     0.015 A 
HETATM    3  C4  UNL     1      23.615   1.429  51.383  1.00  0.00     0.070 A 
HETATM    4  C5  UNL     1      24.303   0.957  52.612  1.00  0.00    -0.036 A 
HETATM    5  C6  UNL     1      25.575   1.334  52.618  1.00  0.00     0.037 C 
HETATM    6  C7  UNL     1      25.943   2.101  51.432  1.00  0.00     0.096 C 
HETATM    7  N1  UNL     1      26.227   2.733  50.481  1.00  0.00    -0.192 NA
HETATM    8  C16 UNL     1      23.650   0.183  53.661  1.00  0.00     0.026 A 
HETATM    9  C17 UNL     1      22.373  -0.122  53.504  1.00  0.00     0.035 A 
ENDROOT
BRANCH   5  10
HETATM   10  C8  UNL     1      26.609   1.070  53.647  1.00  0.00     0.059 C 
HETATM   11  C9  UNL     1      27.581   2.220  53.760  1.00  0.00     0.021 C 
BRANCH  10  12
HETATM   12  C10 UNL     1      27.384  -0.173  53.411  1.00  0.00    -0.049 A 
HETATM   13  C11 UNL     1      28.734  -0.211  53.726  1.00  0.00     0.008 A 
HETATM   14  C12 UNL     1      29.528  -1.336  53.532  1.00  0.00     0.001 A 
HETATM   15  C13 UNL     1      28.899  -2.425  53.005  1.00  0.00     0.000 A 
HETATM   16  C14 UNL     1      27.562  -2.486  52.659  1.00  0.00     0.001 A 
HETATM   17  C15 UNL     1      26.861  -1.314  52.891  1.00  0.00     0.008 A 
ENDBRANCH  10  12
ENDBRANCH   5  10
BRANCH   9  18
HETATM   18  C18 UNL     1      21.783  -0.878  54.570  1.00  0.00     0.272 C 
HETATM   19  O2  UNL     1      22.493  -1.626  55.323  1.00  0.00    -0.301 OA
ENDBRANCH   9  18
BRANCH   1  20
HETATM   20  O1  UNL     1      20.219  -0.110  52.275  1.00  0.00    -0.355 OA
HETATM   21  C1  UNL     1      19.300   0.706  51.598  1.00  0.00     0.210 C 
ENDBRANCH   1  20
TORSDOF 4
ENDMDL
MODEL 2
REMARK VINA RESULT:      -7.9      2.329      6.214
REMARK  4 active torsions:
REMARK  status: ('A' for Active; 'I' for Inactive)
REMARK    1  A    between atoms: O1_2  and  C2_3 
REMARK    2  A    between atoms: C6_7  and  C8_10 
REMARK    3  A    between atoms: C8_10  and  C10_12 
REMARK    4  A    between atoms: C17_19  and  C18_20 
ROOT
HETATM    1  C2  UNL     1      27.740   0.176  53.875  1.00  0.00     0.078 A 
HETATM    2  C3  UNL     1      27.268   1.403  54.055  1.00  0.00     0.015 A 
HETATM    3  C4  UNL     1      26.020   2.041  53.566  1.00  0.00     0.070 A 
HETATM    4  C5  UNL     1      25.269   1.039  52.766  1.00  0.00    -0.036 A 
HETATM    5  C6  UNL     1      24.135   1.552  52.308  1.00  0.00     0.037 C 
HETATM    6  C7  UNL     1      23.940   2.942  52.709  1.00  0.00     0.096 C 
HETATM    7  N1  UNL     1      23.799   4.067  53.022  1.00  0.00    -0.192 NA
HETATM    8  C16 UNL     1      25.734  -0.322  52.527  1.00  0.00     0.026 A 
HETATM    9  C17 UNL     1      26.888  -0.686  53.060  1.00  0.00     0.035 A 
ENDROOT
BRANCH   5  10
HETATM   10  C8  UNL     1      23.096   0.896  51.478  1.00  0.00     0.059 C 
HETATM   11  C9  UNL     1      22.498   1.859  50.480  1.00  0.00     0.021 C 
BRANCH  10  12
HETATM   12  C10 UNL     1      21.991   0.297  52.267  1.00  0.00    -0.049 A 
HETATM   13  C11 UNL     1      20.676   0.519  51.885  1.00  0.00     0.008 A 
HETATM   14  C12 UNL     1      19.587  -0.005  52.572  1.00  0.00     0.001 A 
HETATM   15  C13 UNL     1      19.882  -0.766  53.665  1.00  0.00     0.000 A 
HETATM   16  C14 UNL     1      21.157  -1.044  54.124  1.00  0.00     0.001 A 
HETATM   17  C15 UNL     1      22.169  -0.475  53.370  1.00  0.00     0.008 A 
ENDBRANCH  10  12
ENDBRANCH   5  10
BRANCH   9  18
HETATM   18  C18 UNL     1      27.296  -2.033  52.786  1.00  0.00     0.272 C 
HETATM   19  O2  UNL     1      26.750  -2.715  51.855  1.00  0.00    -0.301 OA
ENDBRANCH   9  18
BRANCH   1  20
HETATM   20  O1  UNL     1      28.940  -0.300  54.398  1.00  0.00    -0.355 OA
HETATM   21  C1  UNL     1      30.109  -0.265  53.623  1.00  0.00     0.210 C 
ENDBRANCH   1  20
TORSDOF 4
ENDMDL
MODEL 3
REMARK VINA RESULT:      -7.9      3.007      6.417
REMARK  4 active torsions:
REMARK  status: ('A' for Active; 'I' for Inactive)
REMARK    1  A    between atoms: O1_2  and  C2_3 
REMARK    2  A    between atoms: C6_7  and  C8_10 
REMARK    3  A    between atoms: C8_10  and  C10_12 
REMARK    4  A    between atoms: C17_19  and  C18_20 
ROOT
HETATM    1  C2  UNL     1      26.767  -0.082  53.993  1.00  0.00     0.078 A 
HETATM    2  C3  UNL     1      25.704  -0.854  54.183  1.00  0.00     0.015 A 
HETATM    3  C4  UNL     1      24.275  -0.630  53.850  1.00  0.00     0.070 A 
HETATM    4  C5  UNL     1      24.152   0.700  53.201  1.00  0.00    -0.036 A 
HETATM    5  C6  UNL     1      22.892   0.952  52.870  1.00  0.00     0.037 C 
HETATM    6  C7  UNL     1      21.985  -0.133  53.232  1.00  0.00     0.096 C 
HETATM    7  N1  UNL     1      21.258  -1.003  53.544  1.00  0.00    -0.192 NA
HETATM    8  C16 UNL     1      25.278   1.596  52.967  1.00  0.00     0.026 A 
HETATM    9  C17 UNL     1      26.479   1.196  53.349  1.00  0.00     0.035 A 
ENDROOT
BRANCH   5  10
HETATM   10  C8  UNL     1      22.337   2.154  52.203  1.00  0.00     0.059 C 
HETATM   11  C9  UNL     1      20.925   2.434  52.657  1.00  0.00     0.021 C 
BRANCH  10  12
HETATM   12  C10 UNL     1      22.343   2.072  50.721  1.00  0.00    -0.049 A 
HETATM   13  C11 UNL     1      23.193   2.891  49.992  1.00  0.00     0.008 A 
HETATM   14  C12 UNL     1      23.255   2.876  48.603  1.00  0.00     0.001 A 
HETATM   15  C13 UNL     1      22.421   1.995  47.979  1.00  0.00     0.000 A 
HETATM   16  C14 UNL     1      21.541   1.140  48.616  1.00  0.00     0.001 A 
HETATM   17  C15 UNL     1      21.557   1.234  49.998  1.00  0.00     0.008 A 
ENDBRANCH  10  12
ENDBRANCH   5  10
BRANCH   9  18
HETATM   18  C18 UNL     1      27.546   2.121  53.098  1.00  0.00     0.272 C 
HETATM   19  O2  UNL     1      28.125   2.740  54.053  1.00  0.00    -0.301 OA
ENDBRANCH   9  18
BRANCH   1  20
HETATM   20  O1  UNL     1      28.069  -0.418  54.358  1.00  0.00    -0.355 OA
HETATM   21  C1  UNL     1      28.885  -1.140  53.474  1.00  0.00     0.210 C 
ENDBRANCH   1  20
TORSDOF 4
ENDMDL
MODEL 4
REMARK VINA RESULT:      -7.8      2.189      3.475
REMARK  4 active torsions:
REMARK  status: ('A' for Active; 'I' for Inactive)
REMARK    1  A    between atoms: O1_2  and  C2_3 
REMARK    2  A    between atoms: C6_7  and  C8_10 
REMARK    3  A    between atoms: C8_10  and  C10_12 
REMARK    4  A    between atoms: C17_19  and  C18_20 
ROOT
HETATM    1  C2  UNL     1      20.761   0.125  53.065  1.00  0.00     0.078 A 
HETATM    2  C3  UNL     1      21.345  -0.213  54.208  1.00  0.00     0.015 A 
HETATM    3  C4  UNL     1      22.772  -0.467  54.526  1.00  0.00     0.070 A 
HETATM    4  C5  UNL     1      23.567  -0.271  53.286  1.00  0.00    -0.036 A 
HETATM    5  C6  UNL     1      24.858  -0.476  53.513  1.00  0.00     0.037 C 
HETATM    6  C7  UNL     1      25.139  -0.833  54.900  1.00  0.00     0.096 C 
HETATM    7  N1  UNL     1      25.355  -1.139  56.015  1.00  0.00    -0.192 NA
HETATM    8  C16 UNL     1      22.986   0.096  52.000  1.00  0.00     0.026 A 
HETATM    9  C17 UNL     1      21.677   0.272  51.938  1.00  0.00     0.035 A 
ENDROOT
BRANCH   5  10
HETATM   10  C8  UNL     1      25.987  -0.380  52.557  1.00  0.00     0.059 C 
HETATM   11  C9  UNL     1      26.461  -1.747  52.126  1.00  0.00     0.021 C 
BRANCH  10  12
HETATM   12  C10 UNL     1      27.153   0.373  53.083  1.00  0.00    -0.049 A 
HETATM   13  C11 UNL     1      27.093   1.756  53.173  1.00  0.00     0.008 A 
HETATM   14  C12 UNL     1      28.142   2.533  53.651  1.00  0.00     0.001 A 
HETATM   15  C13 UNL     1      29.259   1.852  54.036  1.00  0.00     0.000 A 
HETATM   16  C14 UNL     1      29.416   0.479  53.984  1.00  0.00     0.001 A 
HETATM   17  C15 UNL     1      28.313  -0.200  53.493  1.00  0.00     0.008 A 
ENDBRANCH  10  12
ENDBRANCH   5  10
BRANCH   9  18
HETATM   18  C18 UNL     1      21.163   0.627  50.647  1.00  0.00     0.272 C 
HETATM   19  O2  UNL     1      21.935   1.035  49.716  1.00  0.00    -0.301 OA
ENDBRANCH   9  18
BRANCH   1  20
HETATM   20  O1  UNL     1      19.393   0.335  52.903  1.00  0.00    -0.355 OA
HETATM   21  C1  UNL     1      18.509  -0.754  52.899  1.00  0.00     0.210 C 
ENDBRANCH   1  20
TORSDOF 4
ENDMDL
MODEL 5
REMARK VINA RESULT:      -7.8      2.596      6.479
REMARK  4 active torsions:
REMARK  status: ('A' for Active; 'I' for Inactive)
REMARK    1  A    between atoms: O1_2  and  C2_3 
REMARK    2  A    between atoms: C6_7  and  C8_10 
REMARK    3  A    between atoms: C8_10  and  C10_12 
REMARK    4  A    between atoms: C17_19  and  C18_20 
ROOT
HETATM    1  C2  UNL     1      26.417   1.677  53.663  1.00  0.00     0.078 A 
HETATM    2  C3  UNL     1      25.597   2.719  53.718  1.00  0.00     0.015 A 
HETATM    3  C4  UNL     1      24.260   2.932  53.110  1.00  0.00     0.070 A 
HETATM    4  C5  UNL     1      23.894   1.707  52.353  1.00  0.00    -0.036 A 
HETATM    5  C6  UNL     1      22.698   1.835  51.793  1.00  0.00     0.037 C 
HETATM    6  C7  UNL     1      22.079   3.128  52.070  1.00  0.00     0.096 C 
HETATM    7  N1  UNL     1      21.595   4.179  52.282  1.00  0.00    -0.192 NA
HETATM    8  C16 UNL     1      24.750   0.531  52.250  1.00  0.00     0.026 A 
HETATM    9  C17 UNL     1      25.915   0.555  52.874  1.00  0.00     0.035 A 
ENDROOT
BRANCH   5  10
HETATM   10  C8  UNL     1      21.960   0.854  50.963  1.00  0.00     0.059 C 
HETATM   11  C9  UNL     1      21.565   1.445  49.630  1.00  0.00     0.021 C 
BRANCH  10  12
HETATM   12  C10 UNL     1      20.739   0.317  51.614  1.00  0.00    -0.049 A 
HETATM   13  C11 UNL     1      20.836  -0.295  52.856  1.00  0.00     0.008 A 
HETATM   14  C12 UNL     1      19.741  -0.824  53.529  1.00  0.00     0.001 A 
HETATM   15  C13 UNL     1      18.540  -0.709  52.894  1.00  0.00     0.000 A 
HETATM   16  C14 UNL     1      18.341  -0.119  51.660  1.00  0.00     0.001 A 
HETATM   17  C15 UNL     1      19.495   0.376  51.075  1.00  0.00     0.008 A 
ENDBRANCH  10  12
ENDBRANCH   5  10
BRANCH   9  18
HETATM   18  C18 UNL     1      26.715  -0.627  52.732  1.00  0.00     0.272 C 
HETATM   19  O2  UNL     1      26.661  -1.571  53.590  1.00  0.00    -0.301 OA
ENDBRANCH   9  18
BRANCH   1  20
HETATM   20  O1  UNL     1      27.660   1.608  54.288  1.00  0.00    -0.355 OA
HETATM   21  C1  UNL     1      28.765   2.268  53.731  1.00  0.00     0.210 C 
ENDBRANCH   1  20
TORSDOF 4
ENDMDL
MODEL 6
REMARK VINA RESULT:      -7.5      2.569      4.836
REMARK  4 active torsions:
REMARK  status: ('A' for Active; 'I' for Inactive)
REMARK    1  A    between atoms: O1_2  and  C2_3 
REMARK    2  A    between atoms: C6_7  and  C8_10 
REMARK    3  A    between atoms: C8_10  and  C10_12 
REMARK    4  A    between atoms: C17_19  and  C18_20 
ROOT
HETATM    1  C2  UNL     1      19.940  -0.762  53.416  1.00  0.00     0.078 A 
HETATM    2  C3  UNL     1      20.845  -1.174  54.295  1.00  0.00     0.015 A 
HETATM    3  C4  UNL     1      22.316  -0.980  54.332  1.00  0.00     0.070 A 
HETATM    4  C5  UNL     1      22.709  -0.178  53.145  1.00  0.00    -0.036 A 
HETATM    5  C6  UNL     1      24.018   0.037  53.129  1.00  0.00     0.037 C 
HETATM    6  C7  UNL     1      24.704  -0.569  54.267  1.00  0.00     0.096 C 
HETATM    7  N1  UNL     1      25.252  -1.075  55.177  1.00  0.00    -0.192 NA
HETATM    8  C16 UNL     1      21.766   0.301  52.141  1.00  0.00     0.026 A 
HETATM    9  C17 UNL     1      20.486   0.010  52.303  1.00  0.00     0.035 A 
ENDROOT
BRANCH   5  10
HETATM   10  C8  UNL     1      24.816   0.790  52.133  1.00  0.00     0.059 C 
HETATM   11  C9  UNL     1      26.288   0.765  52.472  1.00  0.00     0.021 C 
BRANCH  10  12
HETATM   12  C10 UNL     1      24.398   2.206  51.979  1.00  0.00    -0.049 A 
HETATM   13  C11 UNL     1      24.219   2.734  50.708  1.00  0.00     0.008 A 
HETATM   14  C12 UNL     1      23.832   4.049  50.480  1.00  0.00     0.001 A 
HETATM   15  C13 UNL     1      23.630   4.812  51.593  1.00  0.00     0.000 A 
HETATM   16  C14 UNL     1      23.782   4.379  52.897  1.00  0.00     0.001 A 
HETATM   17  C15 UNL     1      24.171   3.054  53.014  1.00  0.00     0.008 A 
ENDBRANCH  10  12
ENDBRANCH   5  10
BRANCH   9  18
HETATM   18  C18 UNL     1      19.608   0.502  51.282  1.00  0.00     0.272 C 
HETATM   19  O2  UNL     1      19.018   1.628  51.402  1.00  0.00    -0.301 OA
ENDBRANCH   9  18
BRANCH   1  20
HETATM   20  O1  UNL     1      18.574  -1.017  53.502  1.00  0.00    -0.355 OA
HETATM   21  C1  UNL     1      18.110  -2.332  53.651  1.00  0.00     0.210 C 
ENDBRANCH   1  20
TORSDOF 4
ENDMDL
MODEL 7
REMARK VINA RESULT:      -7.3      5.784      8.174
REMARK  4 active torsions:
REMARK  status: ('A' for Active; 'I' for Inactive)
REMARK    1  A    between atoms: O1_2  and  C2_3 
REMARK    2  A    between atoms: C6_7  and  C8_10 
REMARK    3  A    between atoms: C8_10  and  C10_12 
REMARK    4  A    between atoms: C17_19  and  C18_20 
ROOT
HETATM    1  C2  UNL     1      28.476   7.351  48.268  1.00  0.00     0.078 A 
HETATM    2  C3  UNL     1      27.271   7.813  48.577  1.00  0.00     0.015 A 
HETATM    3  C4  UNL     1      26.029   7.096  48.963  1.00  0.00     0.070 A 
HETATM    4  C5  UNL     1      26.319   5.639  48.974  1.00  0.00    -0.036 A 
HETATM    5  C6  UNL     1      25.243   4.945  49.323  1.00  0.00     0.037 C 
HETATM    6  C7  UNL     1      24.087   5.792  49.596  1.00  0.00     0.096 C 
HETATM    7  N1  UNL     1      23.154   6.481  49.796  1.00  0.00    -0.192 NA
HETATM    8  C16 UNL     1      27.618   5.067  48.642  1.00  0.00     0.026 A 
HETATM    9  C17 UNL     1      28.597   5.896  48.319  1.00  0.00     0.035 A 
ENDROOT
BRANCH   5  10
HETATM   10  C8  UNL     1      25.101   3.476  49.463  1.00  0.00     0.059 C 
HETATM   11  C9  UNL     1      23.694   3.026  49.150  1.00  0.00     0.021 C 
BRANCH  10  12
HETATM   12  C10 UNL     1      25.465   2.965  50.809  1.00  0.00    -0.049 A 
HETATM   13  C11 UNL     1      24.508   2.933  51.813  1.00  0.00     0.008 A 
HETATM   14  C12 UNL     1      24.770   2.472  53.097  1.00  0.00     0.001 A 
HETATM   15  C13 UNL     1      26.044   2.044  53.328  1.00  0.00     0.000 A 
HETATM   16  C14 UNL     1      27.066   2.037  52.396  1.00  0.00     0.001 A 
HETATM   17  C15 UNL     1      26.700   2.515  51.149  1.00  0.00     0.008 A 
ENDBRANCH  10  12
ENDBRANCH   5  10
BRANCH   9  18
HETATM   18  C18 UNL     1      29.849   5.276  47.997  1.00  0.00     0.272 C 
HETATM   19  O2  UNL     1      30.781   5.175  48.863  1.00  0.00    -0.301 OA
ENDBRANCH   9  18
BRANCH   1  20
HETATM   20  O1  UNL     1      29.567   8.144  47.920  1.00  0.00    -0.355 OA
HETATM   21  C1  UNL     1      30.236   8.891  48.900  1.00  0.00     0.210 C 
ENDBRANCH   1  20
TORSDOF 4
ENDMDL
MODEL 8
REMARK VINA RESULT:      -7.1      3.960      6.099
REMARK  4 active torsions:
REMARK  status: ('A' for Active; 'I' for Inactive)
REMARK    1  A    between atoms: O1_2  and  C2_3 
REMARK    2  A    between atoms: C6_7  and  C8_10 
REMARK    3  A    between atoms: C8_10  and  C10_12 
REMARK    4  A    between atoms: C17_19  and  C18_20 
ROOT
HETATM    1  C2  UNL     1      24.606   5.664  50.739  1.00  0.00     0.078 A 
HETATM    2  C3  UNL     1      23.408   5.765  51.300  1.00  0.00     0.015 A 
HETATM    3  C4  UNL     1      22.418   4.719  51.663  1.00  0.00     0.070 A 
HETATM    4  C5  UNL     1      22.984   3.396  51.293  1.00  0.00    -0.036 A 
HETATM    5  C6  UNL     1      22.143   2.418  51.604  1.00  0.00     0.037 C 
HETATM    6  C7  UNL     1      20.910   2.904  52.215  1.00  0.00     0.096 C 
HETATM    7  N1  UNL     1      19.911   3.305  52.690  1.00  0.00    -0.192 NA
HETATM    8  C16 UNL     1      24.290   3.217  50.670  1.00  0.00     0.026 A 
HETATM    9  C17 UNL     1      25.016   4.296  50.429  1.00  0.00     0.035 A 
ENDROOT
BRANCH   5  10
HETATM   10  C8  UNL     1      22.317   0.959  51.410  1.00  0.00     0.059 C 
HETATM   11  C9  UNL     1      21.084   0.332  50.803  1.00  0.00     0.021 C 
BRANCH  10  12
HETATM   12  C10 UNL     1      22.646   0.225  52.657  1.00  0.00    -0.049 A 
HETATM   13  C11 UNL     1      23.965   0.152  53.083  1.00  0.00     0.008 A 
HETATM   14  C12 UNL     1      24.355  -0.517  54.237  1.00  0.00     0.001 A 
HETATM   15  C13 UNL     1      23.354  -1.113  54.947  1.00  0.00     0.000 A 
HETATM   16  C14 UNL     1      22.014  -1.097  54.606  1.00  0.00     0.001 A 
HETATM   17  C15 UNL     1      21.733  -0.404  53.440  1.00  0.00     0.008 A 
ENDBRANCH  10  12
ENDBRANCH   5  10
BRANCH   9  18
HETATM   18  C18 UNL     1      26.288   4.059  49.811  1.00  0.00     0.272 C 
HETATM   19  O2  UNL     1      27.092   3.178  50.267  1.00  0.00    -0.301 OA
ENDBRANCH   9  18
BRANCH   1  20
HETATM   20  O1  UNL     1      25.443   6.739  50.450  1.00  0.00    -0.355 OA
HETATM   21  C1  UNL     1      25.101   7.644  49.434  1.00  0.00     0.210 C 
ENDBRANCH   1  20
TORSDOF 4
ENDMDL
MODEL 9
REMARK VINA RESULT:      -7.1      4.904      6.977
REMARK  4 active torsions:
REMARK  status: ('A' for Active; 'I' for Inactive)
REMARK    1  A    between atoms: O1_2  and  C2_3 
REMARK    2  A    between atoms: C6_7  and  C8_10 
REMARK    3  A    between atoms: C8_10  and  C10_12 
REMARK    4  A    between atoms: C17_19  and  C18_20 
ROOT
HETATM    1  C2  UNL     1      26.398   7.297  49.584  1.00  0.00     0.078 A 
HETATM    2  C3  UNL     1      25.342   7.389  50.382  1.00  0.00     0.015 A 
HETATM    3  C4  UNL     1      24.403   6.347  50.869  1.00  0.00     0.070 A 
HETATM    4  C5  UNL     1      24.828   5.040  50.305  1.00  0.00    -0.036 A 
HETATM    5  C6  UNL     1      24.028   4.064  50.716  1.00  0.00     0.037 C 
HETATM    6  C7  UNL     1      22.963   4.538  51.595  1.00  0.00     0.096 C 
HETATM    7  N1  UNL     1      22.098   4.930  52.288  1.00  0.00    -0.192 NA
HETATM    8  C16 UNL     1      25.974   4.872  49.420  1.00  0.00     0.026 A 
HETATM    9  C17 UNL     1      26.680   5.945  49.108  1.00  0.00     0.035 A 
ENDROOT
BRANCH   5  10
HETATM   10  C8  UNL     1      24.099   2.619  50.396  1.00  0.00     0.059 C 
HETATM   11  C9  UNL     1      22.725   2.034  50.173  1.00  0.00     0.021 C 
BRANCH  10  12
HETATM   12  C10 UNL     1      24.787   1.810  51.432  1.00  0.00    -0.049 A 
HETATM   13  C11 UNL     1      26.174   1.752  51.450  1.00  0.00     0.008 A 
HETATM   14  C12 UNL     1      26.891   1.015  52.386  1.00  0.00     0.001 A 
HETATM   15  C13 UNL     1      26.148   0.338  53.307  1.00  0.00     0.000 A 
HETATM   16  C14 UNL     1      24.767   0.332  53.372  1.00  0.00     0.001 A 
HETATM   17  C15 UNL     1      24.149   1.096  52.395  1.00  0.00     0.008 A 
ENDBRANCH  10  12
ENDBRANCH   5  10
BRANCH   9  18
HETATM   18  C18 UNL     1      27.792   5.719  48.230  1.00  0.00     0.272 C 
HETATM   19  O2  UNL     1      28.795   5.022  48.598  1.00  0.00    -0.301 OA
ENDBRANCH   9  18
BRANCH   1  20
HETATM   20  O1  UNL     1      27.202   8.368  49.202  1.00  0.00    -0.355 OA
HETATM   21  C1  UNL     1      27.544   9.360  50.133  1.00  0.00     0.210 C 
ENDBRANCH   1  20
TORSDOF 4
ENDMDL
