MODEL 1
REMARK VINA RESULT:      -9.2      0.000      0.000
REMARK  5 active torsions:
REMARK  status: ('A' for Active; 'I' for Inactive)
REMARK    1  A    between atoms: C3_3  and  C4_4 
REMARK       I    between atoms: C4_4  and  N1_6 
REMARK    2  A    between atoms: N1_6  and  C5_7 
REMARK    3  A    between atoms: C5_7  and  C6_8 
REMARK    4  A    between atoms: C11_14  and  N3_15 
REMARK    5  A    between atoms: N3_15  and  C12_16 
ROOT
HETATM    1  C6  UNL     1      19.450  -0.886  53.202  1.00  0.00    -0.057 C 
HETATM    2  C7  UNL     1      19.657   0.033  52.246  1.00  0.00     0.037 C 
HETATM    3  C8  UNL     1      20.976   0.580  51.944  1.00  0.00     0.069 A 
HETATM    4  N2  UNL     1      21.087   1.068  50.695  1.00  0.00    -0.260 NA
HETATM    5  C9  UNL     1      22.197   1.621  50.183  1.00  0.00     0.119 A 
HETATM    6  C10 UNL     1      23.280   1.681  51.009  1.00  0.00     0.049 A 
HETATM    7  C11 UNL     1      23.290   1.208  52.324  1.00  0.00     0.046 A 
HETATM    8  C18 UNL     1      22.091   0.647  52.779  1.00  0.00     0.019 A 
HETATM    9  C19 UNL     1      22.189   0.187  54.159  1.00  0.00     0.012 C 
HETATM   10  C20 UNL     1      21.437  -0.752  54.707  1.00  0.00    -0.021 C 
HETATM   11  C21 UNL     1      20.359  -1.555  54.132  1.00  0.00     0.063 C 
ENDROOT
BRANCH   7  12
HETATM   12  N3  UNL     1      24.430   1.288  53.156  1.00  0.00    -0.355 N 
HETATM   13  H12 UNL     1      24.143   1.990  53.884  1.00  0.00     0.166 HD
BRANCH  12  14
HETATM   14  C12 UNL     1      25.716   0.690  53.203  1.00  0.00     0.034 A 
HETATM   15  C13 UNL     1      25.877  -0.599  52.747  1.00  0.00     0.032 A 
HETATM   16  C14 UNL     1      27.134  -1.109  52.827  1.00  0.00     0.046 A 
HETATM   17  C15 UNL     1      28.258  -0.444  53.324  1.00  0.00     0.138 A 
HETATM   18  F1  UNL     1      29.465  -1.080  53.345  1.00  0.00    -0.204 F 
HETATM   19  C16 UNL     1      28.048   0.846  53.769  1.00  0.00     0.074 A 
HETATM   20 CL1  UNL     1      29.431   1.726  54.404  1.00  0.00    -0.081 Cl
HETATM   21  C17 UNL     1      26.787   1.400  53.705  1.00  0.00     0.056 A 
ENDBRANCH  12  14
ENDBRANCH   7  12
BRANCH   1  22
HETATM   22  C5  UNL     1      18.007  -1.268  53.297  1.00  0.00     0.157 C 
BRANCH  22  23
HETATM   23  N1  UNL     1      17.813  -2.553  53.905  1.00  0.00    -0.354 N 
HETATM   24  C4  UNL     1      16.744  -3.399  53.454  1.00  0.00     0.241 C 
HETATM   25  O1  UNL     1      16.065  -2.880  52.524  1.00  0.00    -0.269 OA
HETATM   26  H6  UNL     1      18.435  -2.910  54.684  1.00  0.00     0.163 HD
BRANCH  24  27
HETATM   27  C3  UNL     1      16.521  -4.700  54.043  1.00  0.00     0.070 C 
HETATM   28  C2  UNL     1      15.362  -5.214  54.470  1.00  0.00    -0.026 C 
HETATM   29  C1  UNL     1      15.310  -6.582  55.057  1.00  0.00     0.036 C 
ENDBRANCH  24  27
ENDBRANCH  22  23
ENDBRANCH   1  22
TORSDOF 5
ENDMDL
MODEL 2
REMARK VINA RESULT:      -9.0      1.677      2.771
REMARK  5 active torsions:
REMARK  status: ('A' for Active; 'I' for Inactive)
REMARK    1  A    between atoms: C3_3  and  C4_4 
REMARK       I    between atoms: C4_4  and  N1_6 
REMARK    2  A    between atoms: N1_6  and  C5_7 
REMARK    3  A    between atoms: C5_7  and  C6_8 
REMARK    4  A    between atoms: C11_14  and  N3_15 
REMARK    5  A    between atoms: N3_15  and  C12_16 
ROOT
HETATM    1  C6  UNL     1      19.648   0.138  52.628  1.00  0.00    -0.057 C 
HETATM    2  C7  UNL     1      20.188  -0.806  53.414  1.00  0.00     0.037 C 
HETATM    3  C8  UNL     1      21.582  -0.777  53.846  1.00  0.00     0.069 A 
HETATM    4  N2  UNL     1      21.813  -1.466  54.979  1.00  0.00    -0.260 NA
HETATM    5  C9  UNL     1      23.009  -1.587  55.573  1.00  0.00     0.119 A 
HETATM    6  C10 UNL     1      24.054  -0.954  54.965  1.00  0.00     0.049 A 
HETATM    7  C11 UNL     1      23.942  -0.209  53.789  1.00  0.00     0.046 A 
HETATM    8  C18 UNL     1      22.659  -0.135  53.234  1.00  0.00     0.019 A 
HETATM    9  C19 UNL     1      22.634   0.655  52.009  1.00  0.00     0.012 C 
HETATM   10  C20 UNL     1      21.574   1.275  51.519  1.00  0.00    -0.021 C 
HETATM   11  C21 UNL     1      20.205   1.349  52.026  1.00  0.00     0.063 C 
ENDROOT
BRANCH   7  12
HETATM   12  N3  UNL     1      25.046   0.433  53.183  1.00  0.00    -0.355 N 
HETATM   13  H12 UNL     1      24.592   1.105  52.514  1.00  0.00     0.166 HD
BRANCH  12  14
HETATM   14  C12 UNL     1      26.459   0.364  53.282  1.00  0.00     0.034 A 
HETATM   15  C13 UNL     1      27.181   1.526  53.440  1.00  0.00     0.032 A 
HETATM   16  C14 UNL     1      28.531   1.385  53.521  1.00  0.00     0.046 A 
HETATM   17  C15 UNL     1      29.234   0.179  53.461  1.00  0.00     0.138 A 
HETATM   18  F1  UNL     1      30.595   0.185  53.557  1.00  0.00    -0.204 F 
HETATM   19  C16 UNL     1      28.468  -0.959  53.302  1.00  0.00     0.074 A 
HETATM   20 CL1  UNL     1      29.306  -2.502  53.219  1.00  0.00    -0.081 Cl
HETATM   21  C17 UNL     1      27.095  -0.859  53.214  1.00  0.00     0.056 A 
ENDBRANCH  12  14
ENDBRANCH   7  12
BRANCH   1  22
HETATM   22  C5  UNL     1      18.206  -0.140  52.341  1.00  0.00     0.157 C 
BRANCH  22  23
HETATM   23  N1  UNL     1      17.752  -1.366  52.930  1.00  0.00    -0.354 N 
HETATM   24  C4  UNL     1      16.536  -1.972  52.461  1.00  0.00     0.241 C 
HETATM   25  O1  UNL     1      15.984  -1.315  51.535  1.00  0.00    -0.269 OA
HETATM   26  H6  UNL     1      18.281  -1.851  53.707  1.00  0.00     0.163 HD
BRANCH  24  27
HETATM   27  C3  UNL     1      16.050  -3.208  53.032  1.00  0.00     0.070 C 
HETATM   28  C2  UNL     1      16.774  -4.244  53.471  1.00  0.00    -0.026 C 
HETATM   29  C1  UNL     1      16.106  -5.450  54.034  1.00  0.00     0.036 C 
ENDBRANCH  24  27
ENDBRANCH  22  23
ENDBRANCH   1  22
TORSDOF 5
ENDMDL
MODEL 3
REMARK VINA RESULT:      -8.9      5.069      6.604
REMARK  5 active torsions:
REMARK  status: ('A' for Active; 'I' for Inactive)
REMARK    1  A    between atoms: C3_3  and  C4_4 
REMARK       I    between atoms: C4_4  and  N1_6 
REMARK    2  A    between atoms: N1_6  and  C5_7 
REMARK    3  A    between atoms: C5_7  and  C6_8 
REMARK    4  A    between atoms: C11_14  and  N3_15 
REMARK    5  A    between atoms: N3_15  and  C12_16 
ROOT
HETATM    1  C6  UNL     1      24.779   0.441  52.666  1.00  0.00    -0.057 C 
HETATM    2  C7  UNL     1      23.907   1.325  52.156  1.00  0.00     0.037 C 
HETATM    3  C8  UNL     1      24.267   2.287  51.120  1.00  0.00     0.069 A 
HETATM    4  N2  UNL     1      23.220   2.720  50.394  1.00  0.00    -0.260 NA
HETATM    5  C9  UNL     1      23.297   3.604  49.388  1.00  0.00     0.119 A 
HETATM    6  C10 UNL     1      24.540   4.085  49.098  1.00  0.00     0.049 A 
HETATM    7  C11 UNL     1      25.703   3.712  49.777  1.00  0.00     0.046 A 
HETATM    8  C18 UNL     1      25.533   2.787  50.813  1.00  0.00     0.019 A 
HETATM    9  C19 UNL     1      26.793   2.460  51.470  1.00  0.00     0.012 C 
HETATM   10  C20 UNL     1      27.044   1.344  52.133  1.00  0.00    -0.021 C 
HETATM   11  C21 UNL     1      26.191   0.184  52.387  1.00  0.00     0.063 C 
ENDROOT
BRANCH   7  12
HETATM   12  N3  UNL     1      26.976   4.232  49.452  1.00  0.00    -0.355 N 
HETATM   13  H12 UNL     1      27.634   3.543  49.898  1.00  0.00     0.166 HD
BRANCH  12  14
HETATM   14  C12 UNL     1      27.483   5.348  48.738  1.00  0.00     0.034 A 
HETATM   15  C13 UNL     1      26.648   6.407  48.463  1.00  0.00     0.032 A 
HETATM   16  C14 UNL     1      27.200   7.439  47.771  1.00  0.00     0.046 A 
HETATM   17  C15 UNL     1      28.522   7.514  47.326  1.00  0.00     0.138 A 
HETATM   18  F1  UNL     1      28.943   8.616  46.640  1.00  0.00    -0.204 F 
HETATM   19  C16 UNL     1      29.321   6.428  47.626  1.00  0.00     0.074 A 
HETATM   20 CL1  UNL     1      30.994   6.473  47.087  1.00  0.00    -0.081 Cl
HETATM   21  C17 UNL     1      28.800   5.361  48.325  1.00  0.00     0.056 A 
ENDBRANCH  12  14
ENDBRANCH   7  12
BRANCH   1  22
HETATM   22  C5  UNL     1      24.143  -0.422  53.710  1.00  0.00     0.157 C 
BRANCH  22  23
HETATM   23  N1  UNL     1      22.752  -0.665  53.455  1.00  0.00    -0.354 N 
HETATM   24  C4  UNL     1      21.946  -1.298  54.462  1.00  0.00     0.241 C 
HETATM   25  O1  UNL     1      22.596  -1.582  55.506  1.00  0.00    -0.269 OA
HETATM   26  H6  UNL     1      22.287  -0.392  52.545  1.00  0.00     0.163 HD
BRANCH  24  27
HETATM   27  C3  UNL     1      20.541  -1.557  54.239  1.00  0.00     0.070 C 
HETATM   28  C2  UNL     1      19.701  -0.875  53.451  1.00  0.00    -0.026 C 
HETATM   29  C1  UNL     1      18.273  -1.281  53.336  1.00  0.00     0.036 C 
ENDBRANCH  24  27
ENDBRANCH  22  23
ENDBRANCH   1  22
TORSDOF 5
ENDMDL
MODEL 4
REMARK VINA RESULT:      -8.8      5.088      9.389
REMARK  5 active torsions:
REMARK  status: ('A' for Active; 'I' for Inactive)
REMARK    1  A    between atoms: C3_3  and  C4_4 
REMARK       I    between atoms: C4_4  and  N1_6 
REMARK    2  A    between atoms: N1_6  and  C5_7 
REMARK    3  A    between atoms: C5_7  and  C6_8 
REMARK    4  A    between atoms: C11_14  and  N3_15 
REMARK    5  A    between atoms: N3_15  and  C12_16 
ROOT
HETATM    1  C6  UNL     1      23.962  -0.350  53.738  1.00  0.00    -0.057 C 
HETATM    2  C7  UNL     1      23.328   0.155  52.668  1.00  0.00     0.037 C 
HETATM    3  C8  UNL     1      21.874   0.249  52.579  1.00  0.00     0.069 A 
HETATM    4  N2  UNL     1      21.444   1.194  51.723  1.00  0.00    -0.260 NA
HETATM    5  C9  UNL     1      20.156   1.471  51.470  1.00  0.00     0.119 A 
HETATM    6  C10 UNL     1      19.233   0.725  52.143  1.00  0.00     0.049 A 
HETATM    7  C11 UNL     1      19.554  -0.282  53.056  1.00  0.00     0.046 A 
HETATM    8  C18 UNL     1      20.920  -0.506  53.261  1.00  0.00     0.019 A 
HETATM    9  C19 UNL     1      21.164  -1.575  54.222  1.00  0.00     0.012 C 
HETATM   10  C20 UNL     1      22.259  -1.716  54.948  1.00  0.00    -0.021 C 
HETATM   11  C21 UNL     1      23.470  -0.898  55.001  1.00  0.00     0.063 C 
ENDROOT
BRANCH   7  12
HETATM   12  N3  UNL     1      18.572  -1.038  53.736  1.00  0.00    -0.355 N 
HETATM   13  H12 UNL     1      18.681  -0.726  54.733  1.00  0.00     0.166 HD
BRANCH  12  14
HETATM   14  C12 UNL     1      17.595  -2.006  53.390  1.00  0.00     0.034 A 
HETATM   15  C13 UNL     1      17.760  -3.309  53.804  1.00  0.00     0.032 A 
HETATM   16  C14 UNL     1      16.788  -4.183  53.431  1.00  0.00     0.046 A 
HETATM   17  C15 UNL     1      15.653  -3.874  52.677  1.00  0.00     0.138 A 
HETATM   18  F1  UNL     1      14.755  -4.856  52.375  1.00  0.00    -0.204 F 
HETATM   19  C16 UNL     1      15.530  -2.556  52.285  1.00  0.00     0.074 A 
HETATM   20 CL1  UNL     1      14.119  -2.117  51.334  1.00  0.00    -0.081 Cl
HETATM   21  C17 UNL     1      16.495  -1.638  52.642  1.00  0.00     0.056 A 
ENDBRANCH  12  14
ENDBRANCH   7  12
BRANCH   1  22
HETATM   22  C5  UNL     1      25.448  -0.326  53.562  1.00  0.00     0.157 C 
BRANCH  22  23
HETATM   23  N1  UNL     1      25.860   0.489  52.456  1.00  0.00    -0.354 N 
HETATM   24  C4  UNL     1      26.475   1.764  52.703  1.00  0.00     0.241 C 
HETATM   25  O1  UNL     1      26.583   2.028  53.934  1.00  0.00    -0.269 OA
HETATM   26  H6  UNL     1      25.730   0.187  51.450  1.00  0.00     0.163 HD
BRANCH  24  27
HETATM   27  C3  UNL     1      26.904   2.611  51.613  1.00  0.00     0.070 C 
HETATM   28  C2  UNL     1      26.240   2.885  50.484  1.00  0.00    -0.026 C 
HETATM   29  C1  UNL     1      26.832   3.786  49.457  1.00  0.00     0.036 C 
ENDBRANCH  24  27
ENDBRANCH  22  23
ENDBRANCH   1  22
TORSDOF 5
ENDMDL
MODEL 5
REMARK VINA RESULT:      -8.7      6.751     10.780
REMARK  5 active torsions:
REMARK  status: ('A' for Active; 'I' for Inactive)
REMARK    1  A    between atoms: C3_3  and  C4_4 
REMARK       I    between atoms: C4_4  and  N1_6 
REMARK    2  A    between atoms: N1_6  and  C5_7 
REMARK    3  A    between atoms: C5_7  and  C6_8 
REMARK    4  A    between atoms: C11_14  and  N3_15 
REMARK    5  A    between atoms: N3_15  and  C12_16 
ROOT
HETATM    1  C6  UNL     1      26.006   6.665  48.886  1.00  0.00    -0.057 C 
HETATM    2  C7  UNL     1      24.869   6.466  49.570  1.00  0.00     0.037 C 
HETATM    3  C8  UNL     1      24.667   5.328  50.461  1.00  0.00     0.069 A 
HETATM    4  N2  UNL     1      23.736   5.539  51.409  1.00  0.00    -0.260 NA
HETATM    5  C9  UNL     1      23.374   4.646  52.342  1.00  0.00     0.119 A 
HETATM    6  C10 UNL     1      24.012   3.441  52.306  1.00  0.00     0.049 A 
HETATM    7  C11 UNL     1      24.996   3.102  51.373  1.00  0.00     0.046 A 
HETATM    8  C18 UNL     1      25.312   4.091  50.434  1.00  0.00     0.019 A 
HETATM    9  C19 UNL     1      26.340   3.652  49.499  1.00  0.00     0.012 C 
HETATM   10  C20 UNL     1      27.152   4.448  48.825  1.00  0.00    -0.021 C 
HETATM   11  C21 UNL     1      27.254   5.907  48.818  1.00  0.00     0.063 C 
ENDROOT
BRANCH   7  12
HETATM   12  N3  UNL     1      25.636   1.842  51.362  1.00  0.00    -0.355 N 
HETATM   13  H12 UNL     1      25.193   1.359  50.541  1.00  0.00     0.166 HD
BRANCH  12  14
HETATM   14  C12 UNL     1      26.628   1.184  52.133  1.00  0.00     0.034 A 
HETATM   15  C13 UNL     1      26.664  -0.193  52.152  1.00  0.00     0.032 A 
HETATM   16  C14 UNL     1      27.637  -0.756  52.916  1.00  0.00     0.046 A 
HETATM   17  C15 UNL     1      28.589  -0.065  53.670  1.00  0.00     0.138 A 
HETATM   18  F1  UNL     1      29.513  -0.762  54.394  1.00  0.00    -0.204 F 
HETATM   19  C16 UNL     1      28.514   1.313  53.620  1.00  0.00     0.074 A 
HETATM   20 CL1  UNL     1      29.689   2.228  54.553  1.00  0.00    -0.081 Cl
HETATM   21  C17 UNL     1      27.541   1.923  52.857  1.00  0.00     0.056 A 
ENDBRANCH  12  14
ENDBRANCH   7  12
BRANCH   1  22
HETATM   22  C5  UNL     1      25.940   7.906  48.053  1.00  0.00     0.157 C 
BRANCH  22  23
HETATM   23  N1  UNL     1      27.163   8.654  48.075  1.00  0.00    -0.354 N 
HETATM   24  C4  UNL     1      27.253   9.847  48.871  1.00  0.00     0.241 C 
HETATM   25  O1  UNL     1      26.183  10.107  49.489  1.00  0.00    -0.269 OA
HETATM   26  H6  UNL     1      28.017   8.360  47.523  1.00  0.00     0.163 HD
BRANCH  24  27
HETATM   27  C3  UNL     1      28.472  10.623  48.918  1.00  0.00     0.070 C 
HETATM   28  C2  UNL     1      28.590  11.956  48.902  1.00  0.00    -0.026 C 
HETATM   29  C1  UNL     1      29.932  12.598  48.957  1.00  0.00     0.036 C 
ENDBRANCH  24  27
ENDBRANCH  22  23
ENDBRANCH   1  22
TORSDOF 5
ENDMDL
MODEL 6
REMARK VINA RESULT:      -8.6      5.803     10.465
REMARK  5 active torsions:
REMARK  status: ('A' for Active; 'I' for Inactive)
REMARK    1  A    between atoms: C3_3  and  C4_4 
REMARK       I    between atoms: C4_4  and  N1_6 
REMARK    2  A    between atoms: N1_6  and  C5_7 
REMARK    3  A    between atoms: C5_7  and  C6_8 
REMARK    4  A    between atoms: C11_14  and  N3_15 
REMARK    5  A    between atoms: N3_15  and  C12_16 
ROOT
HETATM    1  C6  UNL     1      25.759   4.395  49.750  1.00  0.00    -0.057 C 
HETATM    2  C7  UNL     1      26.549   3.492  50.351  1.00  0.00     0.037 C 
HETATM    3  C8  UNL     1      26.031   2.433  51.212  1.00  0.00     0.069 A 
HETATM    4  N2  UNL     1      26.847   1.367  51.310  1.00  0.00    -0.260 NA
HETATM    5  C9  UNL     1      26.592   0.271  52.039  1.00  0.00     0.119 A 
HETATM    6  C10 UNL     1      25.412   0.260  52.724  1.00  0.00     0.049 A 
HETATM    7  C11 UNL     1      24.483   1.303  52.702  1.00  0.00     0.046 A 
HETATM    8  C18 UNL     1      24.828   2.410  51.917  1.00  0.00     0.019 A 
HETATM    9  C19 UNL     1      23.808   3.451  51.957  1.00  0.00     0.012 C 
HETATM   10  C20 UNL     1      23.611   4.365  51.022  1.00  0.00    -0.021 C 
HETATM   11  C21 UNL     1      24.309   4.589  49.757  1.00  0.00     0.063 C 
ENDROOT
BRANCH   7  12
HETATM   12  N3  UNL     1      23.270   1.261  53.425  1.00  0.00    -0.355 N 
HETATM   13  H12 UNL     1      23.293   2.154  53.979  1.00  0.00     0.166 HD
BRANCH  12  14
HETATM   14  C12 UNL     1      22.169   0.374  53.540  1.00  0.00     0.034 A 
HETATM   15  C13 UNL     1      22.244  -0.684  54.418  1.00  0.00     0.032 A 
HETATM   16  C14 UNL     1      21.155  -1.496  54.472  1.00  0.00     0.046 A 
HETATM   17  C15 UNL     1      19.984  -1.346  53.724  1.00  0.00     0.138 A 
HETATM   18  F1  UNL     1      18.964  -2.239  53.880  1.00  0.00    -0.204 F 
HETATM   19  C16 UNL     1      19.954  -0.271  52.858  1.00  0.00     0.074 A 
HETATM   20 CL1  UNL     1      18.503  -0.040  51.895  1.00  0.00    -0.081 Cl
HETATM   21  C17 UNL     1      21.040   0.576  52.774  1.00  0.00     0.056 A 
ENDBRANCH  12  14
ENDBRANCH   7  12
BRANCH   1  22
HETATM   22  C5  UNL     1      26.551   5.363  48.928  1.00  0.00     0.157 C 
BRANCH  22  23
HETATM   23  N1  UNL     1      27.958   5.087  48.954  1.00  0.00    -0.354 N 
HETATM   24  C4  UNL     1      28.860   5.923  48.210  1.00  0.00     0.241 C 
HETATM   25  O1  UNL     1      28.270   6.850  47.587  1.00  0.00    -0.269 OA
HETATM   26  H6  UNL     1      28.368   4.284  49.507  1.00  0.00     0.163 HD
BRANCH  24  27
HETATM   27  C3  UNL     1      30.284   5.675  48.214  1.00  0.00     0.070 C 
HETATM   28  C2  UNL     1      31.207   6.239  49.001  1.00  0.00    -0.026 C 
HETATM   29  C1  UNL     1      32.643   5.866  48.873  1.00  0.00     0.036 C 
ENDBRANCH  24  27
ENDBRANCH  22  23
ENDBRANCH   1  22
TORSDOF 5
ENDMDL
MODEL 7
REMARK VINA RESULT:      -8.4      5.317      9.959
REMARK  5 active torsions:
REMARK  status: ('A' for Active; 'I' for Inactive)
REMARK    1  A    between atoms: C3_3  and  C4_4 
REMARK       I    between atoms: C4_4  and  N1_6 
REMARK    2  A    between atoms: N1_6  and  C5_7 
REMARK    3  A    between atoms: C5_7  and  C6_8 
REMARK    4  A    between atoms: C11_14  and  N3_15 
REMARK    5  A    between atoms: N3_15  and  C12_16 
ROOT
HETATM    1  C6  UNL     1      24.185   1.633  51.941  1.00  0.00    -0.057 C 
HETATM    2  C7  UNL     1      24.115   0.917  53.074  1.00  0.00     0.037 C 
HETATM    3  C8  UNL     1      22.927   0.167  53.467  1.00  0.00     0.069 A 
HETATM    4  N2  UNL     1      23.182  -0.851  54.310  1.00  0.00    -0.260 NA
HETATM    5  C9  UNL     1      22.256  -1.683  54.810  1.00  0.00     0.119 A 
HETATM    6  C10 UNL     1      20.968  -1.460  54.421  1.00  0.00     0.049 A 
HETATM    7  C11 UNL     1      20.577  -0.439  53.552  1.00  0.00     0.046 A 
HETATM    8  C18 UNL     1      21.605   0.384  53.077  1.00  0.00     0.019 A 
HETATM    9  C19 UNL     1      21.109   1.423  52.183  1.00  0.00     0.012 C 
HETATM   10  C20 UNL     1      21.820   2.036  51.252  1.00  0.00    -0.021 C 
HETATM   11  C21 UNL     1      23.220   1.865  50.867  1.00  0.00     0.063 C 
ENDROOT
BRANCH   7  12
HETATM   12  N3  UNL     1      19.232  -0.234  53.170  1.00  0.00    -0.355 N 
HETATM   13  H12 UNL     1      19.169   0.811  53.075  1.00  0.00     0.166 HD
BRANCH  12  14
HETATM   14  C12 UNL     1      18.096  -1.046  52.920  1.00  0.00     0.034 A 
HETATM   15  C13 UNL     1      17.108  -0.584  52.080  1.00  0.00     0.032 A 
HETATM   16  C14 UNL     1      16.047  -1.412  51.891  1.00  0.00     0.046 A 
HETATM   17  C15 UNL     1      15.880  -2.674  52.468  1.00  0.00     0.138 A 
HETATM   18  F1  UNL     1      14.760  -3.402  52.188  1.00  0.00    -0.204 F 
HETATM   19  C16 UNL     1      16.897  -3.096  53.302  1.00  0.00     0.074 A 
HETATM   20 CL1  UNL     1      16.733  -4.677  54.052  1.00  0.00    -0.081 Cl
HETATM   21  C17 UNL     1      17.990  -2.284  53.520  1.00  0.00     0.056 A 
ENDBRANCH  12  14
ENDBRANCH   7  12
BRANCH   1  22
HETATM   22  C5  UNL     1      25.516   2.298  51.789  1.00  0.00     0.157 C 
BRANCH  22  23
HETATM   23  N1  UNL     1      25.424   3.584  51.160  1.00  0.00    -0.354 N 
HETATM   24  C4  UNL     1      26.225   3.868  50.002  1.00  0.00     0.241 C 
HETATM   25  O1  UNL     1      26.955   2.896  49.659  1.00  0.00    -0.269 OA
HETATM   26  H6  UNL     1      24.780   4.344  51.518  1.00  0.00     0.163 HD
BRANCH  24  27
HETATM   27  C3  UNL     1      26.156   5.152  49.342  1.00  0.00     0.070 C 
HETATM   28  C2  UNL     1      27.096   5.733  48.588  1.00  0.00    -0.026 C 
HETATM   29  C1  UNL     1      26.859   7.071  47.978  1.00  0.00     0.036 C 
ENDBRANCH  24  27
ENDBRANCH  22  23
ENDBRANCH   1  22
TORSDOF 5
ENDMDL
MODEL 8
REMARK VINA RESULT:      -8.4      5.288      9.461
REMARK  5 active torsions:
REMARK  status: ('A' for Active; 'I' for Inactive)
REMARK    1  A    between atoms: C3_3  and  C4_4 
REMARK       I    between atoms: C4_4  and  N1_6 
REMARK    2  A    between atoms: N1_6  and  C5_7 
REMARK    3  A    between atoms: C5_7  and  C6_8 
REMARK    4  A    between atoms: C11_14  and  N3_15 
REMARK    5  A    between atoms: N3_15  and  C12_16 
ROOT
HETATM    1  C6  UNL     1      24.703   1.705  52.246  1.00  0.00    -0.057 C 
HETATM    2  C7  UNL     1      24.483   0.865  53.269  1.00  0.00     0.037 C 
HETATM    3  C8  UNL     1      23.183   0.252  53.526  1.00  0.00     0.069 A 
HETATM    4  N2  UNL     1      23.254  -0.894  54.229  1.00  0.00    -0.260 NA
HETATM    5  C9  UNL     1      22.198  -1.640  54.588  1.00  0.00     0.119 A 
HETATM    6  C10 UNL     1      20.973  -1.182  54.200  1.00  0.00     0.049 A 
HETATM    7  C11 UNL     1      20.770  -0.010  53.468  1.00  0.00     0.046 A 
HETATM    8  C18 UNL     1      21.924   0.709  53.135  1.00  0.00     0.019 A 
HETATM    9  C19 UNL     1      21.621   1.917  52.379  1.00  0.00     0.012 C 
HETATM   10  C20 UNL     1      22.452   2.536  51.559  1.00  0.00    -0.021 C 
HETATM   11  C21 UNL     1      23.830   2.214  51.190  1.00  0.00     0.063 C 
ENDROOT
BRANCH   7  12
HETATM   12  N3  UNL     1      19.486   0.438  53.083  1.00  0.00    -0.355 N 
HETATM   13  H12 UNL     1      19.355   1.306  53.661  1.00  0.00     0.166 HD
BRANCH  12  14
HETATM   14  C12 UNL     1      18.469   0.010  52.191  1.00  0.00     0.034 A 
HETATM   15  C13 UNL     1      18.486   0.452  50.888  1.00  0.00     0.032 A 
HETATM   16  C14 UNL     1      17.479   0.006  50.091  1.00  0.00     0.046 A 
HETATM   17  C15 UNL     1      16.446  -0.851  50.479  1.00  0.00     0.138 A 
HETATM   18  F1  UNL     1      15.497  -1.220  49.571  1.00  0.00    -0.204 F 
HETATM   19  C16 UNL     1      16.471  -1.269  51.795  1.00  0.00     0.074 A 
HETATM   20 CL1  UNL     1      15.192  -2.348  52.333  1.00  0.00    -0.081 Cl
HETATM   21  C17 UNL     1      17.476  -0.838  52.636  1.00  0.00     0.056 A 
ENDBRANCH  12  14
ENDBRANCH   7  12
BRANCH   1  22
HETATM   22  C5  UNL     1      26.121   2.182  52.220  1.00  0.00     0.157 C 
BRANCH  22  23
HETATM   23  N1  UNL     1      27.061   1.144  52.528  1.00  0.00    -0.354 N 
HETATM   24  C4  UNL     1      28.119   1.398  53.466  1.00  0.00     0.241 C 
HETATM   25  O1  UNL     1      28.092   2.571  53.931  1.00  0.00    -0.269 OA
HETATM   26  H6  UNL     1      27.007   0.183  52.088  1.00  0.00     0.163 HD
BRANCH  24  27
HETATM   27  C3  UNL     1      29.083   0.373  53.801  1.00  0.00     0.070 C 
HETATM   28  C2  UNL     1      29.091  -0.902  53.395  1.00  0.00    -0.026 C 
HETATM   29  C1  UNL     1      30.167  -1.830  53.838  1.00  0.00     0.036 C 
ENDBRANCH  24  27
ENDBRANCH  22  23
ENDBRANCH   1  22
TORSDOF 5
ENDMDL
MODEL 9
REMARK VINA RESULT:      -8.3      3.006      4.430
REMARK  5 active torsions:
REMARK  status: ('A' for Active; 'I' for Inactive)
REMARK    1  A    between atoms: C3_3  and  C4_4 
REMARK       I    between atoms: C4_4  and  N1_6 
REMARK    2  A    between atoms: N1_6  and  C5_7 
REMARK    3  A    between atoms: C5_7  and  C6_8 
REMARK    4  A    between atoms: C11_14  and  N3_15 
REMARK    5  A    between atoms: N3_15  and  C12_16 
ROOT
HETATM    1  C6  UNL     1      19.470   1.945  51.722  1.00  0.00    -0.057 C 
HETATM    2  C7  UNL     1      19.613   0.668  52.107  1.00  0.00     0.037 C 
HETATM    3  C8  UNL     1      20.781   0.185  52.837  1.00  0.00     0.069 A 
HETATM    4  N2  UNL     1      20.548  -0.928  53.557  1.00  0.00    -0.260 NA
HETATM    5  C9  UNL     1      21.461  -1.559  54.310  1.00  0.00     0.119 A 
HETATM    6  C10 UNL     1      22.711  -1.013  54.330  1.00  0.00     0.049 A 
HETATM    7  C11 UNL     1      23.076   0.137  53.627  1.00  0.00     0.046 A 
HETATM    8  C18 UNL     1      22.063   0.733  52.866  1.00  0.00     0.019 A 
HETATM    9  C19 UNL     1      22.531   1.921  52.163  1.00  0.00     0.012 C 
HETATM   10  C20 UNL     1      21.767   2.921  51.757  1.00  0.00    -0.021 C 
HETATM   11  C21 UNL     1      20.324   3.120  51.886  1.00  0.00     0.063 C 
ENDROOT
BRANCH   7  12
HETATM   12  N3  UNL     1      24.382   0.676  53.668  1.00  0.00    -0.355 N 
HETATM   13  H12 UNL     1      24.212   1.694  53.867  1.00  0.00     0.166 HD
BRANCH  12  14
HETATM   14  C12 UNL     1      25.704   0.185  53.517  1.00  0.00     0.034 A 
HETATM   15  C13 UNL     1      25.907  -1.023  52.891  1.00  0.00     0.032 A 
HETATM   16  C14 UNL     1      27.199  -1.433  52.786  1.00  0.00     0.046 A 
HETATM   17  C15 UNL     1      28.319  -0.740  53.252  1.00  0.00     0.138 A 
HETATM   18  F1  UNL     1      29.564  -1.272  53.077  1.00  0.00    -0.204 F 
HETATM   19  C16 UNL     1      28.066   0.467  53.872  1.00  0.00     0.074 A 
HETATM   20 CL1  UNL     1      29.443   1.378  54.477  1.00  0.00    -0.081 Cl
HETATM   21  C17 UNL     1      26.769   0.918  53.999  1.00  0.00     0.056 A 
ENDBRANCH  12  14
ENDBRANCH   7  12
BRANCH   1  22
HETATM   22  C5  UNL     1      18.181   2.161  50.993  1.00  0.00     0.157 C 
BRANCH  22  23
HETATM   23  N1  UNL     1      17.319   3.095  51.659  1.00  0.00    -0.354 N 
HETATM   24  C4  UNL     1      15.937   2.763  51.867  1.00  0.00     0.241 C 
HETATM   25  O1  UNL     1      15.631   1.626  51.413  1.00  0.00    -0.269 OA
HETATM   26  H6  UNL     1      17.663   4.033  52.009  1.00  0.00     0.163 HD
BRANCH  24  27
HETATM   27  C3  UNL     1      15.041   3.681  52.535  1.00  0.00     0.070 C 
HETATM   28  C2  UNL     1      13.899   3.389  53.167  1.00  0.00    -0.026 C 
HETATM   29  C1  UNL     1      13.091   4.464  53.807  1.00  0.00     0.036 C 
ENDBRANCH  24  27
ENDBRANCH  22  23
ENDBRANCH   1  22
TORSDOF 5
ENDMDL
