MODEL 1
REMARK VINA RESULT:      -6.8      0.000      0.000
REMARK  4 active torsions:
REMARK  status: ('A' for Active; 'I' for Inactive)
REMARK    1  A    between atoms: O1_2  and  C2_3 
REMARK    2  A    between atoms: C5_6  and  N1_7 
REMARK    3  A    between atoms: C8_10  and  C9_11 
REMARK    4  A    between atoms: C9_11  and  C10_12 
ROOT
HETATM    1  C2  UNL     1      25.814   3.838  49.842  1.00  0.00     0.122 C 
HETATM    2  C3  UNL     1      25.821   2.855  50.836  1.00  0.00     0.052 C 
HETATM    3  C4  UNL     1      24.491   2.596  51.519  1.00  0.00    -0.005 C 
HETATM    4  C5  UNL     1      23.430   1.893  51.019  1.00  0.00     0.142 C 
HETATM    5  N2  UNL     1      22.893   1.750  49.648  1.00  0.00    -0.223 NA
HETATM    6  C12 UNL     1      22.762   2.810  48.807  1.00  0.00     0.238 C 
HETATM    7  N3  UNL     1      23.550   4.116  48.726  1.00  0.00    -0.215 NA
HETATM    8  C13 UNL     1      24.449   4.499  49.644  1.00  0.00     0.204 C 
HETATM    9  O2  UNL     1      24.013   5.609  50.461  1.00  0.00    -0.302 OA
HETATM   10  C14 UNL     1      23.681   5.529  51.888  1.00  0.00     0.140 C 
HETATM   11  C15 UNL     1      23.748   4.549  52.836  1.00  0.00     0.002 C 
HETATM   12  C16 UNL     1      23.799   3.010  52.789  1.00  0.00     0.071 C 
ENDROOT
BRANCH   4  13
HETATM   13  N1  UNL     1      22.793   1.220  52.086  1.00  0.00    -0.305 N 
HETATM   14  C6  UNL     1      21.506   1.267  52.691  1.00  0.00     0.113 C 
HETATM   15  C7  UNL     1      21.933   0.568  53.693  1.00  0.00     0.021 C 
HETATM   16  C8  UNL     1      23.037   0.226  53.127  1.00  0.00     0.054 C 
BRANCH  16  17
HETATM   17  C9  UNL     1      24.145  -0.702  53.303  1.00  0.00     0.050 C 
BRANCH  17  18
HETATM   18  C10 UNL     1      25.396  -0.291  53.410  1.00  0.00     0.010 C 
HETATM   19  C11 UNL     1      26.115   0.367  54.529  1.00  0.00     0.062 C 
HETATM   20 CL1  UNL     1      26.570  -0.463  52.123  1.00  0.00    -0.089 Cl
ENDBRANCH  17  18
ENDBRANCH  16  17
ENDBRANCH   4  13
BRANCH   1  21
HETATM   21  O1  UNL     1      27.102   3.920  49.315  1.00  0.00    -0.352 OA
HETATM   22  C1  UNL     1      27.586   5.029  48.614  1.00  0.00     0.210 C 
ENDBRANCH   1  21
TORSDOF 4
ENDMDL
MODEL 2
REMARK VINA RESULT:      -6.6      2.129      3.401
REMARK  4 active torsions:
REMARK  status: ('A' for Active; 'I' for Inactive)
REMARK    1  A    between atoms: O1_2  and  C2_3 
REMARK    2  A    between atoms: C5_6  and  N1_7 
REMARK    3  A    between atoms: C8_10  and  C9_11 
REMARK    4  A    between atoms: C9_11  and  C10_12 
ROOT
HETATM    1  C2  UNL     1      24.001   5.974  48.331  1.00  0.00     0.122 C 
HETATM    2  C3  UNL     1      23.429   4.722  48.570  1.00  0.00     0.052 C 
HETATM    3  C4  UNL     1      23.969   3.967  49.770  1.00  0.00    -0.005 C 
HETATM    4  C5  UNL     1      23.685   4.199  51.087  1.00  0.00     0.142 C 
HETATM    5  N2  UNL     1      23.416   5.444  51.839  1.00  0.00    -0.223 NA
HETATM    6  C12 UNL     1      24.150   6.574  51.657  1.00  0.00     0.238 C 
HETATM    7  N3  UNL     1      24.909   7.077  50.431  1.00  0.00    -0.215 NA
HETATM    8  C13 UNL     1      25.103   6.345  49.325  1.00  0.00     0.204 C 
HETATM    9  O2  UNL     1      26.470   5.910  49.145  1.00  0.00    -0.302 OA
HETATM   10  C14 UNL     1      26.939   4.525  49.259  1.00  0.00     0.140 C 
HETATM   11  C15 UNL     1      26.332   3.318  49.450  1.00  0.00     0.002 C 
HETATM   12  C16 UNL     1      24.975   2.878  50.033  1.00  0.00     0.071 C 
ENDROOT
BRANCH   4  13
HETATM   13  N1  UNL     1      23.677   2.961  51.771  1.00  0.00    -0.305 N 
HETATM   14  C6  UNL     1      22.879   1.785  51.729  1.00  0.00     0.113 C 
HETATM   15  C7  UNL     1      23.407   1.367  52.835  1.00  0.00     0.021 C 
HETATM   16  C8  UNL     1      24.359   2.234  52.837  1.00  0.00     0.054 C 
BRANCH  16  17
HETATM   17  C9  UNL     1      25.614   2.515  53.518  1.00  0.00     0.050 C 
BRANCH  17  18
HETATM   18  C10 UNL     1      26.750   1.938  53.166  1.00  0.00     0.010 C 
HETATM   19  C11 UNL     1      28.156   2.255  53.522  1.00  0.00     0.062 C 
HETATM   20 CL1  UNL     1      26.827   0.547  52.107  1.00  0.00    -0.089 Cl
ENDBRANCH  17  18
ENDBRANCH  16  17
ENDBRANCH   4  13
BRANCH   1  21
HETATM   21  O1  UNL     1      23.370   6.525  47.216  1.00  0.00    -0.352 OA
HETATM   22  C1  UNL     1      22.280   5.933  46.569  1.00  0.00     0.210 C 
ENDBRANCH   1  21
TORSDOF 4
ENDMDL
MODEL 3
REMARK VINA RESULT:      -6.5      1.915      3.163
REMARK  4 active torsions:
REMARK  status: ('A' for Active; 'I' for Inactive)
REMARK    1  A    between atoms: O1_2  and  C2_3 
REMARK    2  A    between atoms: C5_6  and  N1_7 
REMARK    3  A    between atoms: C8_10  and  C9_11 
REMARK    4  A    between atoms: C9_11  and  C10_12 
ROOT
HETATM    1  C2  UNL     1      23.761   4.679  51.184  1.00  0.00     0.122 C 
HETATM    2  C3  UNL     1      23.466   3.927  52.325  1.00  0.00     0.052 C 
HETATM    3  C4  UNL     1      23.779   2.446  52.239  1.00  0.00    -0.005 C 
HETATM    4  C5  UNL     1      25.009   1.855  52.333  1.00  0.00     0.142 C 
HETATM    5  N2  UNL     1      26.353   2.289  51.893  1.00  0.00    -0.223 NA
HETATM    6  C12 UNL     1      26.568   2.860  50.678  1.00  0.00     0.238 C 
HETATM    7  N3  UNL     1      25.640   3.688  49.792  1.00  0.00    -0.215 NA
HETATM    8  C13 UNL     1      24.331   3.848  50.033  1.00  0.00     0.204 C 
HETATM    9  O2  UNL     1      23.476   3.147  49.102  1.00  0.00    -0.302 OA
HETATM   10  C14 UNL     1      22.644   1.983  49.429  1.00  0.00     0.140 C 
HETATM   11  C15 UNL     1      22.349   1.307  50.577  1.00  0.00     0.002 C 
HETATM   12  C16 UNL     1      23.033   1.170  51.951  1.00  0.00     0.071 C 
ENDROOT
BRANCH   4  13
HETATM   13  N1  UNL     1      24.861   0.606  52.977  1.00  0.00    -0.305 N 
HETATM   14  C6  UNL     1      23.859  -0.011  53.776  1.00  0.00     0.113 C 
HETATM   15  C7  UNL     1      24.684  -0.947  54.120  1.00  0.00     0.021 C 
HETATM   16  C8  UNL     1      25.567  -0.646  53.232  1.00  0.00     0.054 C 
BRANCH  16  17
HETATM   17  C9  UNL     1      26.778  -1.185  52.631  1.00  0.00     0.050 C 
BRANCH  17  18
HETATM   18  C10 UNL     1      27.973  -0.997  53.165  1.00  0.00     0.010 C 
HETATM   19  C11 UNL     1      28.553   0.175  53.867  1.00  0.00     0.062 C 
HETATM   20 CL1  UNL     1      29.229  -2.215  53.149  1.00  0.00    -0.089 Cl
ENDBRANCH  17  18
ENDBRANCH  16  17
ENDBRANCH   4  13
BRANCH   1  21
HETATM   21  O1  UNL     1      23.434   6.008  51.453  1.00  0.00    -0.352 OA
HETATM   22  C1  UNL     1      24.237   7.094  51.090  1.00  0.00     0.210 C 
ENDBRANCH   1  21
TORSDOF 4
ENDMDL
MODEL 4
REMARK VINA RESULT:      -6.5      1.929      3.609
REMARK  4 active torsions:
REMARK  status: ('A' for Active; 'I' for Inactive)
REMARK    1  A    between atoms: O1_2  and  C2_3 
REMARK    2  A    between atoms: C5_6  and  N1_7 
REMARK    3  A    between atoms: C8_10  and  C9_11 
REMARK    4  A    between atoms: C9_11  and  C10_12 
ROOT
HETATM    1  C2  UNL     1      22.950   3.691  49.244  1.00  0.00     0.122 C 
HETATM    2  C3  UNL     1      23.241   2.449  49.817  1.00  0.00     0.052 C 
HETATM    3  C4  UNL     1      24.304   2.453  50.900  1.00  0.00    -0.005 C 
HETATM    4  C5  UNL     1      24.160   2.867  52.195  1.00  0.00     0.142 C 
HETATM    5  N2  UNL     1      23.359   3.949  52.807  1.00  0.00    -0.223 NA
HETATM    6  C12 UNL     1      23.279   5.190  52.259  1.00  0.00     0.238 C 
HETATM    7  N3  UNL     1      23.401   5.643  50.805  1.00  0.00    -0.215 NA
HETATM    8  C13 UNL     1      23.792   4.838  49.808  1.00  0.00     0.204 C 
HETATM    9  O2  UNL     1      25.111   5.137  49.297  1.00  0.00    -0.302 OA
HETATM   10  C14 UNL     1      26.296   4.288  49.464  1.00  0.00     0.140 C 
HETATM   11  C15 UNL     1      26.523   3.051  49.995  1.00  0.00     0.002 C 
HETATM   12  C16 UNL     1      25.776   2.162  51.008  1.00  0.00     0.071 C 
ENDROOT
BRANCH   4  13
HETATM   13  N1  UNL     1      24.970   2.053  53.020  1.00  0.00    -0.305 N 
HETATM   14  C6  UNL     1      26.097   2.265  53.862  1.00  0.00     0.113 C 
HETATM   15  C7  UNL     1      26.299   0.989  53.942  1.00  0.00     0.021 C 
HETATM   16  C8  UNL     1      25.163   0.666  53.430  1.00  0.00     0.054 C 
BRANCH  16  17
HETATM   17  C9  UNL     1      24.307  -0.498  53.252  1.00  0.00     0.050 C 
BRANCH  17  18
HETATM   18  C10 UNL     1      23.006  -0.457  53.483  1.00  0.00     0.010 C 
HETATM   19  C11 UNL     1      21.875  -0.042  52.617  1.00  0.00     0.062 C 
HETATM   20 CL1  UNL     1      22.292  -0.935  55.008  1.00  0.00    -0.089 Cl
ENDBRANCH  17  18
ENDBRANCH  16  17
ENDBRANCH   4  13
BRANCH   1  21
HETATM   21  O1  UNL     1      21.945   3.499  48.298  1.00  0.00    -0.352 OA
HETATM   22  C1  UNL     1      21.269   2.287  48.118  1.00  0.00     0.210 C 
ENDBRANCH   1  21
TORSDOF 4
ENDMDL
MODEL 5
REMARK VINA RESULT:      -6.4      2.249      3.635
REMARK  4 active torsions:
REMARK  status: ('A' for Active; 'I' for Inactive)
REMARK    1  A    between atoms: O1_2  and  C2_3 
REMARK    2  A    between atoms: C5_6  and  N1_7 
REMARK    3  A    between atoms: C8_10  and  C9_11 
REMARK    4  A    between atoms: C9_11  and  C10_12 
ROOT
HETATM    1  C2  UNL     1      21.397   4.265  50.829  1.00  0.00     0.122 C 
HETATM    2  C3  UNL     1      20.854   3.465  51.839  1.00  0.00     0.052 C 
HETATM    3  C4  UNL     1      21.550   2.139  52.078  1.00  0.00    -0.005 C 
HETATM    4  C5  UNL     1      22.731   1.935  52.737  1.00  0.00     0.142 C 
HETATM    5  N2  UNL     1      23.969   2.740  52.827  1.00  0.00    -0.223 NA
HETATM    6  C12 UNL     1      24.522   3.342  51.741  1.00  0.00     0.238 C 
HETATM    7  N3  UNL     1      23.877   3.858  50.457  1.00  0.00    -0.215 NA
HETATM    8  C13 UNL     1      22.598   3.630  50.124  1.00  0.00     0.204 C 
HETATM    9  O2  UNL     1      22.436   2.704  49.026  1.00  0.00    -0.302 OA
HETATM   10  C14 UNL     1      21.882   1.350  49.135  1.00  0.00     0.140 C 
HETATM   11  C15 UNL     1      21.316   0.623  50.142  1.00  0.00     0.002 C 
HETATM   12  C16 UNL     1      21.361   0.700  51.680  1.00  0.00     0.071 C 
ENDROOT
BRANCH   4  13
HETATM   13  N1  UNL     1      22.657   0.700  53.421  1.00  0.00    -0.305 N 
HETATM   14  C6  UNL     1      21.673   0.028  54.198  1.00  0.00     0.113 C 
HETATM   15  C7  UNL     1      22.556  -0.822  54.614  1.00  0.00     0.021 C 
HETATM   16  C8  UNL     1      23.452  -0.478  53.756  1.00  0.00     0.054 C 
BRANCH  16  17
HETATM   17  C9  UNL     1      24.731  -0.933  53.230  1.00  0.00     0.050 C 
BRANCH  17  18
HETATM   18  C10 UNL     1      25.839  -0.224  53.363  1.00  0.00     0.010 C 
HETATM   19  C11 UNL     1      26.771   0.328  52.349  1.00  0.00     0.062 C 
HETATM   20 CL1  UNL     1      26.487   0.251  54.918  1.00  0.00    -0.089 Cl
ENDBRANCH  17  18
ENDBRANCH  16  17
ENDBRANCH   4  13
BRANCH   1  21
HETATM   21  O1  UNL     1      20.651   5.441  50.769  1.00  0.00    -0.352 OA
HETATM   22  C1  UNL     1      21.190   6.686  50.426  1.00  0.00     0.210 C 
ENDBRANCH   1  21
TORSDOF 4
ENDMDL
MODEL 6
REMARK VINA RESULT:      -6.4      1.795      2.749
REMARK  4 active torsions:
REMARK  status: ('A' for Active; 'I' for Inactive)
REMARK    1  A    between atoms: O1_2  and  C2_3 
REMARK    2  A    between atoms: C5_6  and  N1_7 
REMARK    3  A    between atoms: C8_10  and  C9_11 
REMARK    4  A    between atoms: C9_11  and  C10_12 
ROOT
HETATM    1  C2  UNL     1      24.875   4.419  49.747  1.00  0.00     0.122 C 
HETATM    2  C3  UNL     1      25.476   3.437  50.539  1.00  0.00     0.052 C 
HETATM    3  C4  UNL     1      24.563   2.734  51.526  1.00  0.00    -0.005 C 
HETATM    4  C5  UNL     1      23.644   1.760  51.251  1.00  0.00     0.142 C 
HETATM    5  N2  UNL     1      22.763   1.528  50.086  1.00  0.00    -0.223 NA
HETATM    6  C12 UNL     1      22.077   2.536  49.485  1.00  0.00     0.238 C 
HETATM    7  N3  UNL     1      22.392   4.026  49.378  1.00  0.00    -0.215 NA
HETATM    8  C13 UNL     1      23.388   4.624  50.047  1.00  0.00     0.204 C 
HETATM    9  O2  UNL     1      22.938   5.493  51.111  1.00  0.00    -0.302 OA
HETATM   10  C14 UNL     1      23.114   5.236  52.545  1.00  0.00     0.140 C 
HETATM   11  C15 UNL     1      23.754   4.278  53.277  1.00  0.00     0.002 C 
HETATM   12  C16 UNL     1      24.223   2.839  52.989  1.00  0.00     0.071 C 
ENDROOT
BRANCH   4  13
HETATM   13  N1  UNL     1      23.598   0.863  52.343  1.00  0.00    -0.305 N 
HETATM   14  C6  UNL     1      24.533   0.018  53.002  1.00  0.00     0.113 C 
HETATM   15  C7  UNL     1      23.574  -0.584  53.629  1.00  0.00     0.021 C 
HETATM   16  C8  UNL     1      22.676   0.284  53.316  1.00  0.00     0.054 C 
BRANCH  16  17
HETATM   17  C9  UNL     1      21.315   0.662  53.668  1.00  0.00     0.050 C 
BRANCH  17  18
HETATM   18  C10 UNL     1      20.481   1.187  52.787  1.00  0.00     0.010 C 
HETATM   19  C11 UNL     1      19.527   0.548  51.846  1.00  0.00     0.062 C 
HETATM   20 CL1  UNL     1      20.322   2.911  52.532  1.00  0.00    -0.089 Cl
ENDBRANCH  17  18
ENDBRANCH  16  17
ENDBRANCH   4  13
BRANCH   1  21
HETATM   21  O1  UNL     1      25.849   4.933  48.892  1.00  0.00    -0.352 OA
HETATM   22  C1  UNL     1      27.189   4.531  48.913  1.00  0.00     0.210 C 
ENDBRANCH   1  21
TORSDOF 4
ENDMDL
MODEL 7
REMARK VINA RESULT:      -6.2      2.644      5.577
REMARK  4 active torsions:
REMARK  status: ('A' for Active; 'I' for Inactive)
REMARK    1  A    between atoms: O1_2  and  C2_3 
REMARK    2  A    between atoms: C5_6  and  N1_7 
REMARK    3  A    between atoms: C8_10  and  C9_11 
REMARK    4  A    between atoms: C9_11  and  C10_12 
ROOT
HETATM    1  C2  UNL     1      23.148   1.146  51.908  1.00  0.00     0.122 C 
HETATM    2  C3  UNL     1      24.046   1.964  51.216  1.00  0.00     0.052 C 
HETATM    3  C4  UNL     1      23.426   2.952  50.246  1.00  0.00    -0.005 C 
HETATM    4  C5  UNL     1      22.800   4.129  50.554  1.00  0.00     0.142 C 
HETATM    5  N2  UNL     1      21.950   4.530  51.695  1.00  0.00    -0.223 NA
HETATM    6  C12 UNL     1      20.974   3.722  52.191  1.00  0.00     0.238 C 
HETATM    7  N3  UNL     1      20.856   2.200  52.201  1.00  0.00    -0.215 NA
HETATM    8  C13 UNL     1      21.684   1.386  51.531  1.00  0.00     0.204 C 
HETATM    9  O2  UNL     1      21.076   0.744  50.389  1.00  0.00    -0.302 OA
HETATM   10  C14 UNL     1      21.402   1.025  48.987  1.00  0.00     0.140 C 
HETATM   11  C15 UNL     1      22.327   1.805  48.354  1.00  0.00     0.002 C 
HETATM   12  C16 UNL     1      23.159   3.034  48.767  1.00  0.00     0.071 C 
ENDROOT
BRANCH   4  13
HETATM   13  N1  UNL     1      23.071   5.065  49.530  1.00  0.00    -0.305 N 
HETATM   14  C6  UNL     1      22.317   5.683  48.495  1.00  0.00     0.113 C 
HETATM   15  C7  UNL     1      23.403   6.111  47.935  1.00  0.00     0.021 C 
HETATM   16  C8  UNL     1      24.159   5.840  48.941  1.00  0.00     0.054 C 
BRANCH  16  17
HETATM   17  C9  UNL     1      25.504   6.102  49.432  1.00  0.00     0.050 C 
BRANCH  17  18
HETATM   18  C10 UNL     1      26.548   5.397  49.033  1.00  0.00     0.010 C 
HETATM   19  C11 UNL     1      27.811   5.812  48.372  1.00  0.00     0.062 C 
HETATM   20 CL1  UNL     1      26.658   3.660  49.226  1.00  0.00    -0.089 Cl
ENDBRANCH  17  18
ENDBRANCH  16  17
ENDBRANCH   4  13
BRANCH   1  21
HETATM   21  O1  UNL     1      23.888   0.329  52.762  1.00  0.00    -0.352 OA
HETATM   22  C1  UNL     1      25.189   0.623  53.184  1.00  0.00     0.210 C 
ENDBRANCH   1  21
TORSDOF 4
ENDMDL
MODEL 8
REMARK VINA RESULT:      -6.1      2.804      4.762
REMARK  4 active torsions:
REMARK  status: ('A' for Active; 'I' for Inactive)
REMARK    1  A    between atoms: O1_2  and  C2_3 
REMARK    2  A    between atoms: C5_6  and  N1_7 
REMARK    3  A    between atoms: C8_10  and  C9_11 
REMARK    4  A    between atoms: C9_11  and  C10_12 
ROOT
HETATM    1  C2  UNL     1      20.324   1.307  50.854  1.00  0.00     0.122 C 
HETATM    2  C3  UNL     1      21.515   1.464  50.139  1.00  0.00     0.052 C 
HETATM    3  C4  UNL     1      22.691   2.010  50.926  1.00  0.00    -0.005 C 
HETATM    4  C5  UNL     1      23.474   1.330  51.818  1.00  0.00     0.142 C 
HETATM    5  N2  UNL     1      23.168   0.255  52.786  1.00  0.00    -0.223 NA
HETATM    6  C12 UNL     1      22.058   0.280  53.571  1.00  0.00     0.238 C 
HETATM    7  N3  UNL     1      20.692   0.922  53.338  1.00  0.00    -0.215 NA
HETATM    8  C13 UNL     1      20.425   1.748  52.316  1.00  0.00     0.204 C 
HETATM    9  O2  UNL     1      20.244   3.126  52.711  1.00  0.00    -0.302 OA
HETATM   10  C14 UNL     1      21.165   4.224  52.397  1.00  0.00     0.140 C 
HETATM   11  C15 UNL     1      22.301   4.339  51.650  1.00  0.00     0.002 C 
HETATM   12  C16 UNL     1      23.359   3.342  51.140  1.00  0.00     0.071 C 
ENDROOT
BRANCH   4  13
HETATM   13  N1  UNL     1      24.796   1.823  51.725  1.00  0.00    -0.305 N 
HETATM   14  C6  UNL     1      25.592   2.401  50.698  1.00  0.00     0.113 C 
HETATM   15  C7  UNL     1      26.658   2.254  51.418  1.00  0.00     0.021 C 
HETATM   16  C8  UNL     1      26.020   1.981  52.503  1.00  0.00     0.054 C 
BRANCH  16  17
HETATM   17  C9  UNL     1      26.253   1.846  53.933  1.00  0.00     0.050 C 
BRANCH  17  18
HETATM   18  C10 UNL     1      26.683   0.719  54.473  1.00  0.00     0.010 C 
HETATM   19  C11 UNL     1      28.057   0.196  54.676  1.00  0.00     0.062 C 
HETATM   20 CL1  UNL     1      25.607  -0.501  55.120  1.00  0.00    -0.089 Cl
ENDBRANCH  17  18
ENDBRANCH  16  17
ENDBRANCH   4  13
BRANCH   1  21
HETATM   21  O1  UNL     1      19.372   0.778  49.985  1.00  0.00    -0.352 OA
HETATM   22  C1  UNL     1      18.074   0.427  50.373  1.00  0.00     0.210 C 
ENDBRANCH   1  21
TORSDOF 4
ENDMDL
MODEL 9
REMARK VINA RESULT:      -6.0      2.667      5.507
REMARK  4 active torsions:
REMARK  status: ('A' for Active; 'I' for Inactive)
REMARK    1  A    between atoms: O1_2  and  C2_3 
REMARK    2  A    between atoms: C5_6  and  N1_7 
REMARK    3  A    between atoms: C8_10  and  C9_11 
REMARK    4  A    between atoms: C9_11  and  C10_12 
ROOT
HETATM    1  C2  UNL     1      21.082   1.733  52.151  1.00  0.00     0.122 C 
HETATM    2  C3  UNL     1      21.279   3.068  52.515  1.00  0.00     0.052 C 
HETATM    3  C4  UNL     1      22.557   3.710  52.009  1.00  0.00    -0.005 C 
HETATM    4  C5  UNL     1      22.808   4.159  50.741  1.00  0.00     0.142 C 
HETATM    5  N2  UNL     1      22.384   3.667  49.413  1.00  0.00    -0.223 NA
HETATM    6  C12 UNL     1      22.393   2.346  49.093  1.00  0.00     0.238 C 
HETATM    7  N3  UNL     1      22.237   1.110  49.976  1.00  0.00    -0.215 NA
HETATM    8  C13 UNL     1      22.225   1.151  51.316  1.00  0.00     0.204 C 
HETATM    9  O2  UNL     1      23.411   0.598  51.929  1.00  0.00    -0.302 OA
HETATM   10  C14 UNL     1      24.432   1.371  52.646  1.00  0.00     0.140 C 
HETATM   11  C15 UNL     1      24.559   2.677  53.021  1.00  0.00     0.002 C 
HETATM   12  C16 UNL     1      23.936   4.000  52.536  1.00  0.00     0.071 C 
ENDROOT
BRANCH   4  13
HETATM   13  N1  UNL     1      23.638   5.301  50.825  1.00  0.00    -0.305 N 
HETATM   14  C6  UNL     1      23.775   6.391  51.728  1.00  0.00     0.113 C 
HETATM   15  C7  UNL     1      24.518   7.024  50.878  1.00  0.00     0.021 C 
HETATM   16  C8  UNL     1      24.695   6.008  50.109  1.00  0.00     0.054 C 
BRANCH  16  17
HETATM   17  C9  UNL     1      25.522   5.583  48.989  1.00  0.00     0.050 C 
BRANCH  17  18
HETATM   18  C10 UNL     1      26.499   4.704  49.129  1.00  0.00     0.010 C 
HETATM   19  C11 UNL     1      26.528   3.375  49.788  1.00  0.00     0.062 C 
HETATM   20 CL1  UNL     1      28.113   4.962  48.502  1.00  0.00    -0.089 Cl
ENDBRANCH  17  18
ENDBRANCH  16  17
ENDBRANCH   4  13
BRANCH   1  21
HETATM   21  O1  UNL     1      19.859   1.323  52.679  1.00  0.00    -0.352 OA
HETATM   22  C1  UNL     1      19.638   0.060  53.239  1.00  0.00     0.210 C 
ENDBRANCH   1  21
TORSDOF 4
ENDMDL
