MODEL 1
REMARK VINA RESULT:      -9.8      0.000      0.000
REMARK  1 active torsions:
REMARK  status: ('A' for Active; 'I' for Inactive)
REMARK    1  A    between atoms: C12_15  and  C13_16 
ROOT
HETATM    1  O1  UNL     1      25.627   7.765  49.719  1.00  0.00     0.000 OA
HETATM    2  C1  UNL     1      26.439   8.736  49.962  1.00  0.00     0.338 A 
HETATM    3  N1  UNL     1      26.351   9.683  48.904  1.00  0.00    -0.380 NA
HETATM    4  C2  UNL     1      25.605   9.466  47.890  1.00  0.00     0.278 A 
HETATM    5  C3  UNL     1      24.688   8.590  47.231  1.00  0.00     0.020 A 
HETATM    6  C4  UNL     1      24.192   7.468  47.626  1.00  0.00     0.013 A 
HETATM    7  C5  UNL     1      23.809   6.261  48.323  1.00  0.00    -0.031 A 
HETATM    8  C6  UNL     1      22.937   5.544  47.583  1.00  0.00     0.013 C 
HETATM    9  C7  UNL     1      22.147   4.320  47.595  1.00  0.00     0.017 C 
HETATM   10  C8  UNL     1      21.855   3.295  48.377  1.00  0.00     0.083 C 
HETATM   11  N2  UNL     1      21.997   2.598  49.627  1.00  0.00    -0.391 N 
HETATM   12  C9  UNL     1      23.207   2.163  50.382  1.00  0.00     0.114 C 
HETATM   13  C10 UNL     1      22.703   1.498  51.629  1.00  0.00     0.055 C 
HETATM   14  C11 UNL     1      23.800   0.844  52.378  1.00  0.00    -0.011 C 
HETATM   15  C12 UNL     1      25.064   0.547  52.753  1.00  0.00     0.048 C 
HETATM   16  C14 UNL     1      26.385   1.110  52.588  1.00  0.00     0.092 A 
HETATM   17 CL1  UNL     1      27.833   0.268  53.098  1.00  0.00    -0.195 Cl
HETATM   18  C15 UNL     1      27.207   2.031  52.182  1.00  0.00     0.120 A 
HETATM   19  C16 UNL     1      25.831   2.389  51.904  1.00  0.00     0.195 A 
HETATM   20  O2  UNL     1      24.655   2.772  51.718  1.00  0.00    -0.381 OA
HETATM   21  C17 UNL     1      24.012   3.402  50.605  1.00  0.00     0.072 C 
HETATM   22  C18 UNL     1      23.826   4.458  49.759  1.00  0.00     0.139 C 
HETATM   23  C19 UNL     1      24.370   5.828  49.623  1.00  0.00    -0.026 A 
HETATM   24  C20 UNL     1      25.260   6.429  50.437  1.00  0.00     0.291 A 
HETATM   25  N3  UNL     1      26.109   7.516  50.693  1.00  0.00     0.132 N 
HETATM   26  H7  UNL     1      21.072   2.368  50.115  1.00  0.00     0.159 HD
HETATM   27  H17 UNL     1      26.722   7.659  51.567  1.00  0.00     0.320 HD
ENDROOT
BRANCH  15  28
HETATM   28  C13 UNL     1      25.301  -0.482  53.828  1.00  0.00     0.415 C 
HETATM   29  F1  UNL     1      24.082  -0.967  54.214  1.00  0.00    -0.166 F 
HETATM   30  F2  UNL     1      26.072  -1.504  53.322  1.00  0.00    -0.166 F 
HETATM   31  F3  UNL     1      25.925   0.146  54.921  1.00  0.00    -0.166 F 
ENDBRANCH  15  28
TORSDOF 1
ENDMDL
MODEL 2
REMARK VINA RESULT:      -9.6      4.922      7.528
REMARK  1 active torsions:
REMARK  status: ('A' for Active; 'I' for Inactive)
REMARK    1  A    between atoms: C12_15  and  C13_16 
ROOT
HETATM    1  O1  UNL     1      27.326   1.898  53.171  1.00  0.00     0.000 OA
HETATM    2  C1  UNL     1      28.507   2.385  53.350  1.00  0.00     0.338 A 
HETATM    3  N1  UNL     1      29.184   1.600  54.324  1.00  0.00    -0.380 NA
HETATM    4  C2  UNL     1      28.593   0.632  54.913  1.00  0.00     0.278 A 
HETATM    5  C3  UNL     1      27.398  -0.136  55.071  1.00  0.00     0.020 A 
HETATM    6  C4  UNL     1      26.277  -0.055  54.441  1.00  0.00     0.013 A 
HETATM    7  C5  UNL     1      25.161   0.268  53.580  1.00  0.00    -0.031 A 
HETATM    8  C6  UNL     1      24.114  -0.544  53.841  1.00  0.00     0.013 C 
HETATM    9  C7  UNL     1      22.748  -0.833  53.426  1.00  0.00     0.017 C 
HETATM   10  C8  UNL     1      21.844  -0.457  52.537  1.00  0.00     0.083 C 
HETATM   11  N2  UNL     1      21.452   0.369  51.427  1.00  0.00    -0.391 N 
HETATM   12  C9  UNL     1      21.503   1.847  51.231  1.00  0.00     0.114 C 
HETATM   13  C10 UNL     1      20.969   2.103  49.852  1.00  0.00     0.055 C 
HETATM   14  C11 UNL     1      20.781   3.550  49.602  1.00  0.00    -0.011 C 
HETATM   15  C12 UNL     1      20.907   4.883  49.781  1.00  0.00     0.048 C 
HETATM   16  C14 UNL     1      21.762   5.784  50.519  1.00  0.00     0.092 A 
HETATM   17 CL1  UNL     1      21.446   7.502  50.623  1.00  0.00    -0.195 Cl
HETATM   18  C15 UNL     1      22.778   6.045  51.287  1.00  0.00     0.120 A 
HETATM   19  C16 UNL     1      22.698   4.633  50.977  1.00  0.00     0.195 A 
HETATM   20  O2  UNL     1      22.712   3.420  50.670  1.00  0.00    -0.381 OA
HETATM   21  C17 UNL     1      22.931   2.234  51.441  1.00  0.00     0.072 C 
HETATM   22  C18 UNL     1      23.725   1.410  52.186  1.00  0.00     0.139 C 
HETATM   23  C19 UNL     1      25.140   1.391  52.617  1.00  0.00    -0.026 A 
HETATM   24  C20 UNL     1      26.097   2.284  52.292  1.00  0.00     0.291 A 
HETATM   25  N3  UNL     1      27.399   2.770  52.480  1.00  0.00     0.132 N 
HETATM   26  H7  UNL     1      21.078  -0.171  50.582  1.00  0.00     0.159 HD
HETATM   27  H17 UNL     1      27.859   3.592  51.957  1.00  0.00     0.320 HD
ENDROOT
BRANCH  15  28
HETATM   28  C13 UNL     1      20.194   5.830  48.850  1.00  0.00     0.415 C 
HETATM   29  F1  UNL     1      19.520   5.078  47.928  1.00  0.00    -0.166 F 
HETATM   30  F2  UNL     1      19.306   6.597  49.568  1.00  0.00    -0.166 F 
HETATM   31  F3  UNL     1      21.154   6.625  48.197  1.00  0.00    -0.166 F 
ENDBRANCH  15  28
TORSDOF 1
ENDMDL
MODEL 3
REMARK VINA RESULT:      -9.5      4.684      7.588
REMARK  1 active torsions:
REMARK  status: ('A' for Active; 'I' for Inactive)
REMARK    1  A    between atoms: C12_15  and  C13_16 
ROOT
HETATM    1  O1  UNL     1      27.418   1.750  53.160  1.00  0.00     0.000 OA
HETATM    2  C1  UNL     1      28.585   1.867  53.698  1.00  0.00     0.338 A 
HETATM    3  N1  UNL     1      28.680   0.956  54.787  1.00  0.00    -0.380 NA
HETATM    4  C2  UNL     1      27.681   0.237  55.130  1.00  0.00     0.278 A 
HETATM    5  C3  UNL     1      26.320  -0.129  54.896  1.00  0.00     0.020 A 
HETATM    6  C4  UNL     1      25.510   0.258  53.973  1.00  0.00     0.013 A 
HETATM    7  C5  UNL     1      24.844   0.865  52.841  1.00  0.00    -0.031 A 
HETATM    8  C6  UNL     1      23.574   0.418  52.746  1.00  0.00     0.013 C 
HETATM    9  C7  UNL     1      22.367   0.536  51.938  1.00  0.00     0.017 C 
HETATM   10  C8  UNL     1      21.918   1.129  50.845  1.00  0.00     0.083 C 
HETATM   11  N2  UNL     1      22.133   1.986  49.711  1.00  0.00    -0.391 N 
HETATM   12  C9  UNL     1      22.679   3.371  49.612  1.00  0.00     0.114 C 
HETATM   13  C10 UNL     1      22.673   3.717  48.152  1.00  0.00     0.055 C 
HETATM   14  C11 UNL     1      23.009   5.142  47.929  1.00  0.00    -0.011 C 
HETATM   15  C12 UNL     1      23.471   6.382  48.202  1.00  0.00     0.048 C 
HETATM   16  C14 UNL     1      24.302   7.014  49.201  1.00  0.00     0.092 A 
HETATM   17 CL1  UNL     1      24.500   8.751  49.294  1.00  0.00    -0.195 Cl
HETATM   18  C15 UNL     1      25.079   6.990  50.243  1.00  0.00     0.120 A 
HETATM   19  C16 UNL     1      24.673   5.655  49.854  1.00  0.00     0.195 A 
HETATM   20  O2  UNL     1      24.412   4.482  49.504  1.00  0.00    -0.381 OA
HETATM   21  C17 UNL     1      24.031   3.319  50.246  1.00  0.00     0.072 C 
HETATM   22  C18 UNL     1      24.288   2.326  51.148  1.00  0.00     0.139 C 
HETATM   23  C19 UNL     1      25.442   1.901  51.971  1.00  0.00    -0.026 A 
HETATM   24  C20 UNL     1      26.673   2.450  51.982  1.00  0.00     0.291 A 
HETATM   25  N3  UNL     1      27.947   2.530  52.564  1.00  0.00     0.132 N 
HETATM   26  H7  UNL     1      21.878   1.549  48.768  1.00  0.00     0.159 HD
HETATM   27  H17 UNL     1      28.764   3.152  52.238  1.00  0.00     0.320 HD
ENDROOT
BRANCH  15  28
HETATM   28  C13 UNL     1      23.379   7.459  47.153  1.00  0.00     0.415 C 
HETATM   29  F1  UNL     1      22.803   6.909  46.041  1.00  0.00    -0.166 F 
HETATM   30  F2  UNL     1      22.598   8.491  47.622  1.00  0.00    -0.166 F 
HETATM   31  F3  UNL     1      24.680   7.895  46.841  1.00  0.00    -0.166 F 
ENDBRANCH  15  28
TORSDOF 1
ENDMDL
MODEL 4
REMARK VINA RESULT:      -9.5      5.623      8.055
REMARK  1 active torsions:
REMARK  status: ('A' for Active; 'I' for Inactive)
REMARK    1  A    between atoms: C12_15  and  C13_16 
ROOT
HETATM    1  O1  UNL     1      24.762   2.043  51.284  1.00  0.00     0.000 OA
HETATM    2  C1  UNL     1      25.550   2.814  50.615  1.00  0.00     0.338 A 
HETATM    3  N1  UNL     1      26.854   2.737  51.178  1.00  0.00    -0.380 NA
HETATM    4  C2  UNL     1      27.076   2.036  52.224  1.00  0.00     0.278 A 
HETATM    5  C3  UNL     1      26.550   1.172  53.233  1.00  0.00     0.020 A 
HETATM    6  C4  UNL     1      25.360   0.698  53.372  1.00  0.00     0.013 A 
HETATM    7  C5  UNL     1      23.966   0.328  53.268  1.00  0.00    -0.031 A 
HETATM    8  C6  UNL     1      23.619  -0.493  54.283  1.00  0.00     0.013 C 
HETATM    9  C7  UNL     1      22.495  -1.243  54.825  1.00  0.00     0.017 C 
HETATM   10  C8  UNL     1      21.231  -1.532  54.563  1.00  0.00     0.083 C 
HETATM   11  N2  UNL     1      20.073  -1.416  53.720  1.00  0.00    -0.391 N 
HETATM   12  C9  UNL     1      19.375  -0.222  53.161  1.00  0.00     0.114 C 
HETATM   13  C10 UNL     1      18.238  -0.751  52.336  1.00  0.00     0.055 C 
HETATM   14  C11 UNL     1      17.343   0.337  51.882  1.00  0.00    -0.011 C 
HETATM   15  C12 UNL     1      16.932   1.595  51.608  1.00  0.00     0.048 C 
HETATM   16  C14 UNL     1      17.528   2.902  51.457  1.00  0.00     0.092 A 
HETATM   17 CL1  UNL     1      16.569   4.356  51.282  1.00  0.00    -0.195 Cl
HETATM   18  C15 UNL     1      18.546   3.710  51.397  1.00  0.00     0.120 A 
HETATM   19  C16 UNL     1      18.970   2.335  51.564  1.00  0.00     0.195 A 
HETATM   20  O2  UNL     1      19.381   1.155  51.626  1.00  0.00    -0.381 OA
HETATM   21  C17 UNL     1      20.414   0.535  52.399  1.00  0.00     0.072 C 
HETATM   22  C18 UNL     1      21.726   0.347  52.728  1.00  0.00     0.139 C 
HETATM   23  C19 UNL     1      23.031   0.852  52.248  1.00  0.00    -0.026 A 
HETATM   24  C20 UNL     1      23.243   1.692  51.215  1.00  0.00     0.291 A 
HETATM   25  N3  UNL     1      24.131   2.495  50.484  1.00  0.00     0.132 N 
HETATM   26  H7  UNL     1      19.647  -2.351  53.419  1.00  0.00     0.159 HD
HETATM   27  H17 UNL     1      23.899   3.070  49.603  1.00  0.00     0.320 HD
ENDROOT
BRANCH  15  28
HETATM   28  C13 UNL     1      15.548   1.823  51.058  1.00  0.00     0.415 C 
HETATM   29  F1  UNL     1      14.948   0.602  50.923  1.00  0.00    -0.166 F 
HETATM   30  F2  UNL     1      14.829   2.604  51.934  1.00  0.00    -0.166 F 
HETATM   31  F3  UNL     1      15.662   2.433  49.795  1.00  0.00    -0.166 F 
ENDBRANCH  15  28
TORSDOF 1
ENDMDL
MODEL 5
REMARK VINA RESULT:      -9.4      4.595      7.825
REMARK  1 active torsions:
REMARK  status: ('A' for Active; 'I' for Inactive)
REMARK    1  A    between atoms: C12_15  and  C13_16 
ROOT
HETATM    1  O1  UNL     1      24.997   0.360  53.747  1.00  0.00     0.000 OA
HETATM    2  C1  UNL     1      25.981   0.178  54.560  1.00  0.00     0.338 A 
HETATM    3  N1  UNL     1      25.597  -0.782  55.537  1.00  0.00    -0.380 NA
HETATM    4  C2  UNL     1      24.415  -1.267  55.551  1.00  0.00     0.278 A 
HETATM    5  C3  UNL     1      23.115  -1.297  54.958  1.00  0.00     0.020 A 
HETATM    6  C4  UNL     1      22.673  -0.688  53.912  1.00  0.00     0.013 A 
HETATM    7  C5  UNL     1      22.466   0.110  52.724  1.00  0.00    -0.031 A 
HETATM    8  C6  UNL     1      21.200  -0.027  52.278  1.00  0.00     0.013 C 
HETATM    9  C7  UNL     1      20.297   0.406  51.220  1.00  0.00     0.017 C 
HETATM   10  C8  UNL     1      20.282   1.139  50.119  1.00  0.00     0.083 C 
HETATM   11  N2  UNL     1      20.960   1.977  49.168  1.00  0.00    -0.391 N 
HETATM   12  C9  UNL     1      21.792   3.201  49.350  1.00  0.00     0.114 C 
HETATM   13  C10 UNL     1      22.238   3.610  47.977  1.00  0.00     0.055 C 
HETATM   14  C11 UNL     1      22.913   4.928  47.994  1.00  0.00    -0.011 C 
HETATM   15  C12 UNL     1      23.539   6.013  48.500  1.00  0.00     0.048 C 
HETATM   16  C14 UNL     1      24.197   6.387  49.731  1.00  0.00     0.092 A 
HETATM   17 CL1  UNL     1      24.726   8.024  50.051  1.00  0.00    -0.195 Cl
HETATM   18  C15 UNL     1      24.654   6.133  50.921  1.00  0.00     0.120 A 
HETATM   19  C16 UNL     1      24.091   4.949  50.307  1.00  0.00     0.195 A 
HETATM   20  O2  UNL     1      23.688   3.886  49.783  1.00  0.00    -0.381 OA
HETATM   21  C17 UNL     1      22.891   2.808  50.283  1.00  0.00     0.072 C 
HETATM   22  C18 UNL     1      22.690   1.740  51.111  1.00  0.00     0.139 C 
HETATM   23  C19 UNL     1      23.475   1.021  52.138  1.00  0.00    -0.026 A 
HETATM   24  C20 UNL     1      24.748   1.269  52.504  1.00  0.00     0.291 A 
HETATM   25  N3  UNL     1      25.814   1.024  53.382  1.00  0.00     0.132 N 
HETATM   26  H7  UNL     1      20.871   1.657  48.150  1.00  0.00     0.159 HD
HETATM   27  H17 UNL     1      26.800   1.457  53.331  1.00  0.00     0.320 HD
ENDROOT
BRANCH  15  28
HETATM   28  C13 UNL     1      23.952   7.132  47.579  1.00  0.00     0.415 C 
HETATM   29  F1  UNL     1      23.513   6.819  46.322  1.00  0.00    -0.166 F 
HETATM   30  F2  UNL     1      23.373   8.307  47.998  1.00  0.00    -0.166 F 
HETATM   31  F3  UNL     1      25.356   7.218  47.579  1.00  0.00    -0.166 F 
ENDBRANCH  15  28
TORSDOF 1
ENDMDL
MODEL 6
REMARK VINA RESULT:      -9.3      4.750      8.414
REMARK  1 active torsions:
REMARK  status: ('A' for Active; 'I' for Inactive)
REMARK    1  A    between atoms: C12_15  and  C13_16 
ROOT
HETATM    1  O1  UNL     1      21.207   0.943  53.006  1.00  0.00     0.000 OA
HETATM    2  C1  UNL     1      20.016   0.601  53.364  1.00  0.00     0.338 A 
HETATM    3  N1  UNL     1      20.084  -0.641  54.055  1.00  0.00    -0.380 NA
HETATM    4  C2  UNL     1      21.193  -1.263  54.179  1.00  0.00     0.278 A 
HETATM    5  C3  UNL     1      22.596  -1.295  53.909  1.00  0.00     0.020 A 
HETATM    6  C4  UNL     1      23.343  -0.422  53.326  1.00  0.00     0.013 A 
HETATM    7  C5  UNL     1      23.915   0.719  52.646  1.00  0.00    -0.031 A 
HETATM    8  C6  UNL     1      25.242   0.546  52.468  1.00  0.00     0.013 C 
HETATM    9  C7  UNL     1      26.427   1.195  51.923  1.00  0.00     0.017 C 
HETATM   10  C8  UNL     1      26.806   2.325  51.350  1.00  0.00     0.083 C 
HETATM   11  N2  UNL     1      26.497   3.639  50.854  1.00  0.00    -0.391 N 
HETATM   12  C9  UNL     1      25.450   4.113  49.904  1.00  0.00     0.114 C 
HETATM   13  C10 UNL     1      25.624   5.600  49.802  1.00  0.00     0.055 C 
HETATM   14  C11 UNL     1      24.771   6.175  48.737  1.00  0.00    -0.011 C 
HETATM   15  C12 UNL     1      23.778   6.247  47.822  1.00  0.00     0.048 C 
HETATM   16  C14 UNL     1      22.563   5.530  47.510  1.00  0.00     0.092 A 
HETATM   17 CL1  UNL     1      21.631   5.852  46.064  1.00  0.00    -0.195 Cl
HETATM   18  C15 UNL     1      21.665   4.619  47.742  1.00  0.00     0.120 A 
HETATM   19  C16 UNL     1      22.674   4.646  48.781  1.00  0.00     0.195 A 
HETATM   20  O2  UNL     1      23.477   4.690  49.739  1.00  0.00    -0.381 OA
HETATM   21  C17 UNL     1      24.146   3.665  50.482  1.00  0.00     0.072 C 
HETATM   22  C18 UNL     1      24.148   2.606  51.345  1.00  0.00     0.139 C 
HETATM   23  C19 UNL     1      23.137   1.868  52.133  1.00  0.00    -0.026 A 
HETATM   24  C20 UNL     1      21.819   2.140  52.214  1.00  0.00     0.291 A 
HETATM   25  N3  UNL     1      20.540   1.761  52.648  1.00  0.00     0.132 N 
HETATM   26  H7  UNL     1      27.111   4.420  51.253  1.00  0.00     0.159 HD
HETATM   27  H17 UNL     1      19.628   2.320  52.522  1.00  0.00     0.320 HD
ENDROOT
BRANCH  15  28
HETATM   28  C13 UNL     1      23.628   7.488  46.981  1.00  0.00     0.415 C 
HETATM   29  F1  UNL     1      24.638   8.345  47.321  1.00  0.00    -0.166 F 
HETATM   30  F2  UNL     1      23.725   7.154  45.650  1.00  0.00    -0.166 F 
HETATM   31  F3  UNL     1      22.388   8.083  47.277  1.00  0.00    -0.166 F 
ENDBRANCH  15  28
TORSDOF 1
ENDMDL
MODEL 7
REMARK VINA RESULT:      -9.0      7.268      9.606
REMARK  1 active torsions:
REMARK  status: ('A' for Active; 'I' for Inactive)
REMARK    1  A    between atoms: C12_15  and  C13_16 
ROOT
HETATM    1  O1  UNL     1      22.795  -0.963  54.658  1.00  0.00     0.000 OA
HETATM    2  C1  UNL     1      23.543  -1.446  55.591  1.00  0.00     0.338 A 
HETATM    3  N1  UNL     1      24.895  -1.094  55.321  1.00  0.00    -0.380 NA
HETATM    4  C2  UNL     1      25.208  -0.460  54.257  1.00  0.00     0.278 A 
HETATM    5  C3  UNL     1      24.770   0.146  53.040  1.00  0.00     0.020 A 
HETATM    6  C4  UNL     1      23.578   0.290  52.574  1.00  0.00     0.013 A 
HETATM    7  C5  UNL     1      22.155   0.304  52.313  1.00  0.00    -0.031 A 
HETATM    8  C6  UNL     1      21.897   0.913  51.136  1.00  0.00     0.013 C 
HETATM    9  C7  UNL     1      20.805   1.303  50.255  1.00  0.00     0.017 C 
HETATM   10  C8  UNL     1      19.484   1.286  50.187  1.00  0.00     0.083 C 
HETATM   11  N2  UNL     1      18.209   0.960  50.765  1.00  0.00    -0.391 N 
HETATM   12  C9  UNL     1      17.679  -0.315  51.329  1.00  0.00     0.114 C 
HETATM   13  C10 UNL     1      16.284  -0.016  51.796  1.00  0.00     0.055 C 
HETATM   14  C11 UNL     1      15.570  -1.248  52.201  1.00  0.00    -0.011 C 
HETATM   15  C12 UNL     1      15.395  -2.538  52.564  1.00  0.00     0.048 C 
HETATM   16  C14 UNL     1      16.211  -3.632  53.037  1.00  0.00     0.092 A 
HETATM   17 CL1  UNL     1      15.587  -5.258  53.214  1.00  0.00    -0.195 Cl
HETATM   18  C15 UNL     1      17.335  -4.148  53.438  1.00  0.00     0.120 A 
HETATM   19  C16 UNL     1      17.469  -2.732  53.164  1.00  0.00     0.195 A 
HETATM   20  O2  UNL     1      17.609  -1.497  53.017  1.00  0.00    -0.381 OA
HETATM   21  C17 UNL     1      18.637  -0.711  52.405  1.00  0.00     0.072 C 
HETATM   22  C18 UNL     1      19.914  -0.229  52.347  1.00  0.00     0.139 C 
HETATM   23  C19 UNL     1      21.137  -0.342  53.171  1.00  0.00    -0.026 A 
HETATM   24  C20 UNL     1      21.268  -1.002  54.339  1.00  0.00     0.291 A 
HETATM   25  N3  UNL     1      22.102  -1.484  55.358  1.00  0.00     0.132 N 
HETATM   26  H7  UNL     1      17.524   1.780  50.821  1.00  0.00     0.159 HD
HETATM   27  H17 UNL     1      21.792  -2.015  56.244  1.00  0.00     0.320 HD
ENDROOT
BRANCH  15  28
HETATM   28  C13 UNL     1      14.004  -3.055  52.826  1.00  0.00     0.415 C 
HETATM   29  F1  UNL     1      13.168  -1.977  52.908  1.00  0.00    -0.166 F 
HETATM   30  F2  UNL     1      13.616  -3.872  51.789  1.00  0.00    -0.166 F 
HETATM   31  F3  UNL     1      14.005  -3.743  54.054  1.00  0.00    -0.166 F 
ENDBRANCH  15  28
TORSDOF 1
ENDMDL
MODEL 8
REMARK VINA RESULT:      -8.9      6.308      9.237
REMARK  1 active torsions:
REMARK  status: ('A' for Active; 'I' for Inactive)
REMARK    1  A    between atoms: C12_15  and  C13_16 
ROOT
HETATM    1  O1  UNL     1      23.129   6.058  50.833  1.00  0.00     0.000 OA
HETATM    2  C1  UNL     1      21.926   6.105  51.297  1.00  0.00     0.338 A 
HETATM    3  N1  UNL     1      21.366   4.799  51.250  1.00  0.00    -0.380 NA
HETATM    4  C2  UNL     1      22.016   3.824  50.741  1.00  0.00     0.278 A 
HETATM    5  C3  UNL     1      23.215   3.371  50.109  1.00  0.00     0.020 A 
HETATM    6  C4  UNL     1      24.298   4.015  49.839  1.00  0.00     0.013 A 
HETATM    7  C5  UNL     1      25.363   4.979  49.668  1.00  0.00    -0.031 A 
HETATM    8  C6  UNL     1      26.426   4.405  49.066  1.00  0.00     0.013 C 
HETATM    9  C7  UNL     1      27.776   4.686  48.597  1.00  0.00     0.017 C 
HETATM   10  C8  UNL     1      28.669   5.661  48.563  1.00  0.00     0.083 C 
HETATM   11  N2  UNL     1      29.057   7.010  48.875  1.00  0.00    -0.391 N 
HETATM   12  C9  UNL     1      28.386   8.315  48.610  1.00  0.00     0.114 C 
HETATM   13  C10 UNL     1      29.279   9.369  49.197  1.00  0.00     0.055 C 
HETATM   14  C11 UNL     1      28.827  10.730  48.831  1.00  0.00    -0.011 C 
HETATM   15  C12 UNL     1      28.003  11.704  48.385  1.00  0.00     0.048 C 
HETATM   16  C14 UNL     1      26.592  11.867  48.119  1.00  0.00     0.092 A 
HETATM   17 CL1  UNL     1      25.944  13.293  47.337  1.00  0.00    -0.195 Cl
HETATM   18  C15 UNL     1      25.359  11.454  48.122  1.00  0.00     0.120 A 
HETATM   19  C16 UNL     1      26.247  10.475  48.714  1.00  0.00     0.195 A 
HETATM   20  O2  UNL     1      26.965   9.638  49.305  1.00  0.00    -0.381 OA
HETATM   21  C17 UNL     1      27.034   8.210  49.236  1.00  0.00     0.072 C 
HETATM   22  C18 UNL     1      26.507   6.966  49.439  1.00  0.00     0.139 C 
HETATM   23  C19 UNL     1      25.262   6.413  50.017  1.00  0.00    -0.026 A 
HETATM   24  C20 UNL     1      24.256   7.108  50.585  1.00  0.00     0.291 A 
HETATM   25  N3  UNL     1      22.959   7.122  51.119  1.00  0.00     0.132 N 
HETATM   26  H7  UNL     1      29.980   7.094  49.412  1.00  0.00     0.159 HD
HETATM   27  H17 UNL     1      22.448   7.972  51.540  1.00  0.00     0.320 HD
ENDROOT
BRANCH  15  28
HETATM   28  C13 UNL     1      28.492  13.128  48.331  1.00  0.00     0.415 C 
HETATM   29  F1  UNL     1      29.756  13.153  48.853  1.00  0.00    -0.166 F 
HETATM   30  F2  UNL     1      28.517  13.555  47.024  1.00  0.00    -0.166 F 
HETATM   31  F3  UNL     1      27.642  13.925  49.120  1.00  0.00    -0.166 F 
ENDBRANCH  15  28
TORSDOF 1
ENDMDL
MODEL 9
REMARK VINA RESULT:      -8.9      4.338      7.573
REMARK  1 active torsions:
REMARK  status: ('A' for Active; 'I' for Inactive)
REMARK    1  A    between atoms: C12_15  and  C13_16 
ROOT
HETATM    1  O1  UNL     1      17.056  -0.286  52.092  1.00  0.00     0.000 OA
HETATM    2  C1  UNL     1      16.220  -1.231  52.358  1.00  0.00     0.338 A 
HETATM    3  N1  UNL     1      14.902  -0.699  52.327  1.00  0.00    -0.380 NA
HETATM    4  C2  UNL     1      14.701   0.547  52.128  1.00  0.00     0.278 A 
HETATM    5  C3  UNL     1      15.266   1.837  51.888  1.00  0.00     0.020 A 
HETATM    6  C4  UNL     1      16.497   2.179  51.718  1.00  0.00     0.013 A 
HETATM    7  C5  UNL     1      17.933   2.258  51.566  1.00  0.00    -0.031 A 
HETATM    8  C6  UNL     1      18.314   3.532  51.338  1.00  0.00     0.013 C 
HETATM    9  C7  UNL     1      19.489   4.358  51.088  1.00  0.00     0.017 C 
HETATM   10  C8  UNL     1      20.797   4.258  50.920  1.00  0.00     0.083 C 
HETATM   11  N2  UNL     1      21.987   3.456  50.838  1.00  0.00    -0.391 N 
HETATM   12  C9  UNL     1      22.551   2.430  51.763  1.00  0.00     0.114 C 
HETATM   13  C10 UNL     1      23.809   1.931  51.115  1.00  0.00     0.055 C 
HETATM   14  C11 UNL     1      24.575   1.047  52.023  1.00  0.00    -0.011 C 
HETATM   15  C12 UNL     1      24.825   0.247  53.082  1.00  0.00     0.048 C 
HETATM   16  C14 UNL     1      24.064  -0.472  54.079  1.00  0.00     0.092 A 
HETATM   17 CL1  UNL     1      24.821  -1.267  55.442  1.00  0.00    -0.195 Cl
HETATM   18  C15 UNL     1      22.951  -0.888  54.606  1.00  0.00     0.120 A 
HETATM   19  C16 UNL     1      22.713  -0.132  53.394  1.00  0.00     0.195 A 
HETATM   20  O2  UNL     1      22.468   0.444  52.311  1.00  0.00    -0.381 OA
HETATM   21  C17 UNL     1      21.477   1.406  51.935  1.00  0.00     0.072 C 
HETATM   22  C18 UNL     1      20.182   1.777  51.703  1.00  0.00     0.139 C 
HETATM   23  C19 UNL     1      18.859   1.116  51.734  1.00  0.00    -0.026 A 
HETATM   24  C20 UNL     1      18.610  -0.184  51.993  1.00  0.00     0.291 A 
HETATM   25  N3  UNL     1      17.676  -1.199  52.244  1.00  0.00     0.132 N 
HETATM   26  H7  UNL     1      22.562   3.603  49.947  1.00  0.00     0.159 HD
HETATM   27  H17 UNL     1      17.891  -2.243  52.405  1.00  0.00     0.320 HD
ENDROOT
BRANCH  15  28
HETATM   28  C13 UNL     1      26.201  -0.341  53.264  1.00  0.00     0.415 C 
HETATM   29  F1  UNL     1      26.987   0.120  52.245  1.00  0.00    -0.166 F 
HETATM   30  F2  UNL     1      26.716   0.066  54.473  1.00  0.00    -0.166 F 
HETATM   31  F3  UNL     1      26.105  -1.742  53.187  1.00  0.00    -0.166 F 
ENDBRANCH  15  28
TORSDOF 1
ENDMDL
