MODEL 1
REMARK VINA RESULT:      -8.2      0.000      0.000
REMARK  5 active torsions:
REMARK  status: ('A' for Active; 'I' for Inactive)
REMARK    1  A    between atoms: N1_2  and  C3_4 
REMARK    2  A    between atoms: C3_4  and  C4_5 
REMARK    3  A    between atoms: C5_6  and  C6_7 
REMARK       I    between atoms: C6_7  and  N2_9 
REMARK    4  A    between atoms: C9_12  and  N3_13 
REMARK    5  A    between atoms: N3_13  and  C10_14 
ROOT
HETATM    1  C6  UNL     1      25.369   1.506  53.778  1.00  0.00     0.247 C 
HETATM    2  O1  UNL     1      26.255   2.363  53.939  1.00  0.00    -0.268 OA
HETATM    3  N2  UNL     1      24.165   1.990  53.146  1.00  0.00    -0.320 N 
HETATM    4  C7  UNL     1      24.079   3.363  52.767  1.00  0.00     0.110 A 
HETATM    5  C8  UNL     1      23.015   3.856  52.153  1.00  0.00     0.036 A 
HETATM    6  C9  UNL     1      22.887   5.171  51.766  1.00  0.00     0.069 A 
HETATM    7  C16 UNL     1      21.714   5.591  51.129  1.00  0.00     0.089 A 
HETATM    8  C17 UNL     1      21.556   6.958  50.717  1.00  0.00     0.103 C 
HETATM    9  N4  UNL     1      21.411   8.058  50.382  1.00  0.00    -0.191 NA
HETATM   10  C18 UNL     1      20.674   4.732  50.873  1.00  0.00     0.142 A 
HETATM   11  N5  UNL     1      20.781   3.429  51.248  1.00  0.00    -0.259 NA
HETATM   12  C19 UNL     1      21.924   3.065  51.857  1.00  0.00     0.068 A 
HETATM   13  C20 UNL     1      21.995   1.794  52.219  1.00  0.00     0.026 A 
HETATM   14  C21 UNL     1      23.073   1.043  52.911  1.00  0.00     0.161 A 
ENDROOT
BRANCH   6  15
HETATM   15  N3  UNL     1      23.945   6.081  52.028  1.00  0.00    -0.354 N 
HETATM   16  H12 UNL     1      24.199   6.586  52.906  1.00  0.00     0.166 HD
BRANCH  15  17
HETATM   17  C10 UNL     1      24.785   6.329  50.884  1.00  0.00     0.033 A 
HETATM   18  C11 UNL     1      25.230   5.302  50.074  1.00  0.00     0.029 A 
HETATM   19  C12 UNL     1      26.037   5.455  48.964  1.00  0.00     0.004 A 
HETATM   20  C13 UNL     1      26.416   6.745  48.660  1.00  0.00     0.019 A 
HETATM   21  C14 UNL     1      26.011   7.826  49.425  1.00  0.00     0.013 A 
HETATM   22 BR1  UNL     1      26.559   9.588  48.964  1.00  0.00    -0.051 Br
HETATM   23  C15 UNL     1      25.197   7.587  50.528  1.00  0.00     0.048 A 
ENDBRANCH  15  17
ENDBRANCH   6  15
BRANCH   1  24
HETATM   24  C5  UNL     1      25.470   0.107  54.169  1.00  0.00     0.072 C 
HETATM   25  C4  UNL     1      26.458  -0.681  53.834  1.00  0.00     0.008 C 
BRANCH  25  26
HETATM   26  C3  UNL     1      27.697  -0.586  53.062  1.00  0.00     0.299 C 
BRANCH  26  27
HETATM   27  N1  UNL     1      28.865  -0.515  53.901  1.00  0.00     0.083 N 
HETATM   28  C1  UNL     1      29.851  -1.468  53.508  1.00  0.00     0.309 C 
HETATM   29  C2  UNL     1      29.341   0.853  53.891  1.00  0.00     0.309 C 
ENDBRANCH  26  27
ENDBRANCH  25  26
ENDBRANCH   1  24
TORSDOF 5
ENDMDL
MODEL 2
REMARK VINA RESULT:      -8.1      3.780      7.134
REMARK  5 active torsions:
REMARK  status: ('A' for Active; 'I' for Inactive)
REMARK    1  A    between atoms: N1_2  and  C3_4 
REMARK    2  A    between atoms: C3_4  and  C4_5 
REMARK    3  A    between atoms: C5_6  and  C6_7 
REMARK       I    between atoms: C6_7  and  N2_9 
REMARK    4  A    between atoms: C9_12  and  N3_13 
REMARK    5  A    between atoms: N3_13  and  C10_14 
ROOT
HETATM    1  C6  UNL     1      27.515   5.433  48.569  1.00  0.00     0.247 C 
HETATM    2  O1  UNL     1      28.324   4.497  48.436  1.00  0.00    -0.268 OA
HETATM    3  N2  UNL     1      26.388   5.144  49.423  1.00  0.00    -0.320 N 
HETATM    4  C7  UNL     1      26.283   3.857  50.030  1.00  0.00     0.110 A 
HETATM    5  C8  UNL     1      25.291   3.547  50.849  1.00  0.00     0.036 A 
HETATM    6  C9  UNL     1      25.149   2.321  51.460  1.00  0.00     0.069 A 
HETATM    7  C16 UNL     1      24.057   2.094  52.304  1.00  0.00     0.089 A 
HETATM    8  C17 UNL     1      23.886   0.824  52.952  1.00  0.00     0.103 C 
HETATM    9  N4  UNL     1      23.730  -0.197  53.478  1.00  0.00    -0.191 NA
HETATM   10  C18 UNL     1      23.110   3.058  52.549  1.00  0.00     0.142 A 
HETATM   11  N5  UNL     1      23.233   4.275  51.955  1.00  0.00    -0.259 NA
HETATM   12  C19 UNL     1      24.297   4.454  51.151  1.00  0.00     0.068 A 
HETATM   13  C20 UNL     1      24.383   5.644  50.580  1.00  0.00     0.026 A 
HETATM   14  C21 UNL     1      25.392   6.196  49.639  1.00  0.00     0.161 A 
ENDROOT
BRANCH   6  15
HETATM   15  N3  UNL     1      26.110   1.304  51.215  1.00  0.00    -0.354 N 
HETATM   16  H12 UNL     1      26.171   0.604  50.443  1.00  0.00     0.166 HD
BRANCH  15  17
HETATM   17  C10 UNL     1      27.155   1.253  52.205  1.00  0.00     0.033 A 
HETATM   18  C11 UNL     1      27.527   2.371  52.928  1.00  0.00     0.029 A 
HETATM   19  C12 UNL     1      28.517   2.404  53.889  1.00  0.00     0.004 A 
HETATM   20  C13 UNL     1      29.173   1.217  54.130  1.00  0.00     0.019 A 
HETATM   21  C14 UNL     1      28.857   0.054  53.446  1.00  0.00     0.013 A 
HETATM   22 BR1  UNL     1      29.790  -1.562  53.816  1.00  0.00    -0.051 Br
HETATM   23  C15 UNL     1      27.845   0.103  52.492  1.00  0.00     0.048 A 
ENDBRANCH  15  17
ENDBRANCH   6  15
BRANCH   1  24
HETATM   24  C5  UNL     1      27.635   6.743  47.943  1.00  0.00     0.072 C 
HETATM   25  C4  UNL     1      28.771   7.297  47.611  1.00  0.00     0.008 C 
BRANCH  25  26
HETATM   26  C3  UNL     1      30.194   6.965  47.681  1.00  0.00     0.299 C 
BRANCH  26  27
HETATM   27  N1  UNL     1      30.726   7.098  49.012  1.00  0.00     0.083 N 
HETATM   28  C1  UNL     1      31.605   6.021  49.334  1.00  0.00     0.309 C 
HETATM   29  C2  UNL     1      31.341   8.404  49.121  1.00  0.00     0.309 C 
ENDBRANCH  26  27
ENDBRANCH  25  26
ENDBRANCH   1  24
TORSDOF 5
ENDMDL
MODEL 3
REMARK VINA RESULT:      -8.0      3.252      6.372
REMARK  5 active torsions:
REMARK  status: ('A' for Active; 'I' for Inactive)
REMARK    1  A    between atoms: N1_2  and  C3_4 
REMARK    2  A    between atoms: C3_4  and  C4_5 
REMARK    3  A    between atoms: C5_6  and  C6_7 
REMARK       I    between atoms: C6_7  and  N2_9 
REMARK    4  A    between atoms: C9_12  and  N3_13 
REMARK    5  A    between atoms: N3_13  and  C10_14 
ROOT
HETATM    1  C6  UNL     1      26.878   5.103  49.049  1.00  0.00     0.247 C 
HETATM    2  O1  UNL     1      27.381   3.970  48.943  1.00  0.00    -0.268 OA
HETATM    3  N2  UNL     1      25.615   5.143  49.746  1.00  0.00    -0.320 N 
HETATM    4  C7  UNL     1      25.054   3.930  50.245  1.00  0.00     0.110 A 
HETATM    5  C8  UNL     1      23.918   3.909  50.922  1.00  0.00     0.036 A 
HETATM    6  C9  UNL     1      23.339   2.765  51.425  1.00  0.00     0.069 A 
HETATM    7  C16 UNL     1      22.128   2.854  52.122  1.00  0.00     0.089 A 
HETATM    8  C17 UNL     1      21.505   1.675  52.654  1.00  0.00     0.103 C 
HETATM    9  N4  UNL     1      20.985   0.734  53.086  1.00  0.00    -0.191 NA
HETATM   10  C18 UNL     1      21.488   4.051  52.325  1.00  0.00     0.142 A 
HETATM   11  N5  UNL     1      22.044   5.193  51.836  1.00  0.00    -0.259 NA
HETATM   12  C19 UNL     1      23.208   5.066  51.172  1.00  0.00     0.068 A 
HETATM   13  C20 UNL     1      23.718   6.191  50.700  1.00  0.00     0.026 A 
HETATM   14  C21 UNL     1      24.959   6.440  49.921  1.00  0.00     0.161 A 
ENDROOT
BRANCH   6  15
HETATM   15  N3  UNL     1      23.977   1.513  51.220  1.00  0.00    -0.354 N 
HETATM   16  H12 UNL     1      23.895   0.835  50.430  1.00  0.00     0.166 HD
BRANCH  15  17
HETATM   17  C10 UNL     1      24.872   1.145  52.287  1.00  0.00     0.033 A 
HETATM   18  C11 UNL     1      24.546   0.163  53.202  1.00  0.00     0.029 A 
HETATM   19  C12 UNL     1      25.346  -0.245  54.251  1.00  0.00     0.004 A 
HETATM   20  C13 UNL     1      26.562   0.392  54.374  1.00  0.00     0.019 A 
HETATM   21  C14 UNL     1      26.959   1.386  53.494  1.00  0.00     0.013 A 
HETATM   22 BR1  UNL     1      28.649   2.234  53.704  1.00  0.00    -0.051 Br
HETATM   23  C15 UNL     1      26.095   1.739  52.462  1.00  0.00     0.048 A 
ENDBRANCH  15  17
ENDBRANCH   6  15
BRANCH   1  24
HETATM   24  C5  UNL     1      27.462   6.334  48.534  1.00  0.00     0.072 C 
HETATM   25  C4  UNL     1      28.705   6.451  48.145  1.00  0.00     0.008 C 
BRANCH  25  26
HETATM   26  C3  UNL     1      29.888   5.598  48.046  1.00  0.00     0.299 C 
BRANCH  26  27
HETATM   27  N1  UNL     1      30.940   6.008  48.940  1.00  0.00     0.083 N 
HETATM   28  C1  UNL     1      32.167   5.342  48.645  1.00  0.00     0.309 C 
HETATM   29  C2  UNL     1      31.034   7.451  48.888  1.00  0.00     0.309 C 
ENDBRANCH  26  27
ENDBRANCH  25  26
ENDBRANCH   1  24
TORSDOF 5
ENDMDL
MODEL 4
REMARK VINA RESULT:      -7.9      3.801      5.613
REMARK  5 active torsions:
REMARK  status: ('A' for Active; 'I' for Inactive)
REMARK    1  A    between atoms: N1_2  and  C3_4 
REMARK    2  A    between atoms: C3_4  and  C4_5 
REMARK    3  A    between atoms: C5_6  and  C6_7 
REMARK       I    between atoms: C6_7  and  N2_9 
REMARK    4  A    between atoms: C9_12  and  N3_13 
REMARK    5  A    between atoms: N3_13  and  C10_14 
ROOT
HETATM    1  C6  UNL     1      26.805   2.303  53.472  1.00  0.00     0.247 C 
HETATM    2  O1  UNL     1      26.168   2.215  54.537  1.00  0.00    -0.268 OA
HETATM    3  N2  UNL     1      25.992   2.485  52.293  1.00  0.00    -0.320 N 
HETATM    4  C7  UNL     1      24.572   2.548  52.427  1.00  0.00     0.110 A 
HETATM    5  C8  UNL     1      23.779   2.749  51.388  1.00  0.00     0.036 A 
HETATM    6  C9  UNL     1      22.405   2.820  51.467  1.00  0.00     0.069 A 
HETATM    7  C16 UNL     1      21.657   3.028  50.303  1.00  0.00     0.089 A 
HETATM    8  C17 UNL     1      20.225   3.105  50.360  1.00  0.00     0.103 C 
HETATM    9  N4  UNL     1      19.067   3.164  50.387  1.00  0.00    -0.191 NA
HETATM   10  C18 UNL     1      22.247   3.164  49.070  1.00  0.00     0.142 A 
HETATM   11  N5  UNL     1      23.602   3.097  48.971  1.00  0.00    -0.259 NA
HETATM   12  C19 UNL     1      24.285   2.896  50.113  1.00  0.00     0.068 A 
HETATM   13  C20 UNL     1      25.599   2.825  49.983  1.00  0.00     0.026 A 
HETATM   14  C21 UNL     1      26.663   2.605  50.997  1.00  0.00     0.161 A 
ENDROOT
BRANCH   6  15
HETATM   15  N3  UNL     1      21.771   2.673  52.729  1.00  0.00    -0.354 N 
HETATM   16  H12 UNL     1      21.508   3.391  53.440  1.00  0.00     0.166 HD
BRANCH  15  17
HETATM   17  C10 UNL     1      21.453   1.306  53.056  1.00  0.00     0.033 A 
HETATM   18  C11 UNL     1      22.420   0.419  53.490  1.00  0.00     0.029 A 
HETATM   19  C12 UNL     1      22.197  -0.903  53.818  1.00  0.00     0.004 A 
HETATM   20  C13 UNL     1      20.900  -1.351  53.697  1.00  0.00     0.019 A 
HETATM   21  C14 UNL     1      19.876  -0.521  53.269  1.00  0.00     0.013 A 
HETATM   22 BR1  UNL     1      18.100  -1.186  53.119  1.00  0.00    -0.051 Br
HETATM   23  C15 UNL     1      20.183   0.800  52.956  1.00  0.00     0.048 A 
ENDBRANCH  15  17
ENDBRANCH   6  15
BRANCH   1  24
HETATM   24  C5  UNL     1      28.255   2.237  53.350  1.00  0.00     0.072 C 
HETATM   25  C4  UNL     1      28.969   1.181  53.640  1.00  0.00     0.008 C 
BRANCH  25  26
HETATM   26  C3  UNL     1      28.735  -0.177  54.130  1.00  0.00     0.299 C 
BRANCH  26  27
HETATM   27  N1  UNL     1      28.482  -1.112  53.065  1.00  0.00     0.083 N 
HETATM   28  C1  UNL     1      29.188  -2.336  53.264  1.00  0.00     0.309 C 
HETATM   29  C2  UNL     1      27.049  -1.280  52.946  1.00  0.00     0.309 C 
ENDBRANCH  26  27
ENDBRANCH  25  26
ENDBRANCH   1  24
TORSDOF 5
ENDMDL
MODEL 5
REMARK VINA RESULT:      -7.9      3.004      4.680
REMARK  5 active torsions:
REMARK  status: ('A' for Active; 'I' for Inactive)
REMARK    1  A    between atoms: N1_2  and  C3_4 
REMARK    2  A    between atoms: C3_4  and  C4_5 
REMARK    3  A    between atoms: C5_6  and  C6_7 
REMARK       I    between atoms: C6_7  and  N2_9 
REMARK    4  A    between atoms: C9_12  and  N3_13 
REMARK    5  A    between atoms: N3_13  and  C10_14 
ROOT
HETATM    1  C6  UNL     1      25.255   0.287  52.685  1.00  0.00     0.247 C 
HETATM    2  O1  UNL     1      24.207   0.110  53.333  1.00  0.00    -0.268 OA
HETATM    3  N2  UNL     1      25.314   1.532  51.957  1.00  0.00    -0.320 N 
HETATM    4  C7  UNL     1      24.212   2.435  52.027  1.00  0.00     0.110 A 
HETATM    5  C8  UNL     1      24.224   3.605  51.409  1.00  0.00     0.036 A 
HETATM    6  C9  UNL     1      23.187   4.510  51.448  1.00  0.00     0.069 A 
HETATM    7  C16 UNL     1      23.299   5.718  50.752  1.00  0.00     0.089 A 
HETATM    8  C17 UNL     1      22.231   6.678  50.777  1.00  0.00     0.103 C 
HETATM    9  N4  UNL     1      21.376   7.460  50.783  1.00  0.00    -0.191 NA
HETATM   10  C18 UNL     1      24.416   6.040  50.021  1.00  0.00     0.142 A 
HETATM   11  N5  UNL     1      25.451   5.158  49.969  1.00  0.00    -0.259 NA
HETATM   12  C19 UNL     1      25.305   4.009  50.653  1.00  0.00     0.068 A 
HETATM   13  C20 UNL     1      26.323   3.168  50.575  1.00  0.00     0.026 A 
HETATM   14  C21 UNL     1      26.517   1.823  51.174  1.00  0.00     0.161 A 
ENDROOT
BRANCH   6  15
HETATM   15  N3  UNL     1      22.016   4.197  52.190  1.00  0.00    -0.354 N 
HETATM   16  H12 UNL     1      21.703   4.531  53.129  1.00  0.00     0.166 HD
BRANCH  15  17
HETATM   17  C10 UNL     1      21.142   3.270  51.518  1.00  0.00     0.033 A 
HETATM   18  C11 UNL     1      20.823   3.411  50.182  1.00  0.00     0.029 A 
HETATM   19  C12 UNL     1      19.994   2.570  49.468  1.00  0.00     0.004 A 
HETATM   20  C13 UNL     1      19.453   1.512  50.166  1.00  0.00     0.019 A 
HETATM   21  C14 UNL     1      19.726   1.304  51.508  1.00  0.00     0.013 A 
HETATM   22 BR1  UNL     1      18.957  -0.173  52.427  1.00  0.00    -0.051 Br
HETATM   23  C15 UNL     1      20.573   2.198  52.156  1.00  0.00     0.048 A 
ENDBRANCH  15  17
ENDBRANCH   6  15
BRANCH   1  24
HETATM   24  C5  UNL     1      26.373  -0.644  52.623  1.00  0.00     0.072 C 
HETATM   25  C4  UNL     1      27.384  -0.634  53.452  1.00  0.00     0.008 C 
BRANCH  25  26
HETATM   26  C3  UNL     1      27.819   0.143  54.612  1.00  0.00     0.299 C 
BRANCH  26  27
HETATM   27  N1  UNL     1      29.103   0.761  54.411  1.00  0.00     0.083 N 
HETATM   28  C1  UNL     1      29.945  -0.037  53.580  1.00  0.00     0.309 C 
HETATM   29  C2  UNL     1      28.882   2.098  53.902  1.00  0.00     0.309 C 
ENDBRANCH  26  27
ENDBRANCH  25  26
ENDBRANCH   1  24
TORSDOF 5
ENDMDL
MODEL 6
REMARK VINA RESULT:      -7.9      2.335      2.797
REMARK  5 active torsions:
REMARK  status: ('A' for Active; 'I' for Inactive)
REMARK    1  A    between atoms: N1_2  and  C3_4 
REMARK    2  A    between atoms: C3_4  and  C4_5 
REMARK    3  A    between atoms: C5_6  and  C6_7 
REMARK       I    between atoms: C6_7  and  N2_9 
REMARK    4  A    between atoms: C9_12  and  N3_13 
REMARK    5  A    between atoms: N3_13  and  C10_14 
ROOT
HETATM    1  C6  UNL     1      23.629   1.800  52.665  1.00  0.00     0.247 C 
HETATM    2  O1  UNL     1      24.378   2.638  53.198  1.00  0.00    -0.268 OA
HETATM    3  N2  UNL     1      23.120   2.178  51.368  1.00  0.00    -0.320 N 
HETATM    4  C7  UNL     1      23.497   3.437  50.811  1.00  0.00     0.110 A 
HETATM    5  C8  UNL     1      23.091   3.822  49.612  1.00  0.00     0.036 A 
HETATM    6  C9  UNL     1      23.429   5.024  49.031  1.00  0.00     0.069 A 
HETATM    7  C16 UNL     1      22.938   5.337  47.759  1.00  0.00     0.089 A 
HETATM    8  C17 UNL     1      23.276   6.584  47.133  1.00  0.00     0.103 C 
HETATM    9  N4  UNL     1      23.534   7.589  46.616  1.00  0.00    -0.191 NA
HETATM   10  C18 UNL     1      22.122   4.482  47.059  1.00  0.00     0.142 A 
HETATM   11  N5  UNL     1      21.777   3.290  47.616  1.00  0.00    -0.259 NA
HETATM   12  C19 UNL     1      22.269   3.026  48.840  1.00  0.00     0.068 A 
HETATM   13  C20 UNL     1      21.908   1.865  49.359  1.00  0.00     0.026 A 
HETATM   14  C21 UNL     1      22.237   1.244  50.668  1.00  0.00     0.161 A 
ENDROOT
BRANCH   6  15
HETATM   15  N3  UNL     1      24.264   5.929  49.738  1.00  0.00    -0.354 N 
HETATM   16  H12 UNL     1      24.043   6.573  50.530  1.00  0.00     0.166 HD
BRANCH  15  17
HETATM   17  C10 UNL     1      25.625   5.941  49.267  1.00  0.00     0.033 A 
HETATM   18  C11 UNL     1      26.349   4.775  49.109  1.00  0.00     0.029 A 
HETATM   19  C12 UNL     1      27.655   4.703  48.666  1.00  0.00     0.004 A 
HETATM   20  C13 UNL     1      28.263   5.902  48.363  1.00  0.00     0.019 A 
HETATM   21  C14 UNL     1      27.602   7.112  48.496  1.00  0.00     0.013 A 
HETATM   22 BR1  UNL     1      28.484   8.741  48.064  1.00  0.00    -0.051 Br
HETATM   23  C15 UNL     1      26.286   7.099  48.949  1.00  0.00     0.048 A 
ENDBRANCH  15  17
ENDBRANCH   6  15
BRANCH   1  24
HETATM   24  C5  UNL     1      23.253   0.518  53.246  1.00  0.00     0.072 C 
HETATM   25  C4  UNL     1      24.107  -0.362  53.700  1.00  0.00     0.008 C 
BRANCH  25  26
HETATM   26  C3  UNL     1      25.558  -0.488  53.829  1.00  0.00     0.299 C 
BRANCH  26  27
HETATM   27  N1  UNL     1      26.210  -0.678  52.560  1.00  0.00     0.083 N 
HETATM   28  C1  UNL     1      27.031   0.439  52.221  1.00  0.00     0.309 C 
HETATM   29  C2  UNL     1      26.929  -1.934  52.609  1.00  0.00     0.309 C 
ENDBRANCH  26  27
ENDBRANCH  25  26
ENDBRANCH   1  24
TORSDOF 5
ENDMDL
MODEL 7
REMARK VINA RESULT:      -7.8      2.650      4.074
REMARK  5 active torsions:
REMARK  status: ('A' for Active; 'I' for Inactive)
REMARK    1  A    between atoms: N1_2  and  C3_4 
REMARK    2  A    between atoms: C3_4  and  C4_5 
REMARK    3  A    between atoms: C5_6  and  C6_7 
REMARK       I    between atoms: C6_7  and  N2_9 
REMARK    4  A    between atoms: C9_12  and  N3_13 
REMARK    5  A    between atoms: N3_13  and  C10_14 
ROOT
HETATM    1  C6  UNL     1      26.589  -0.626  52.642  1.00  0.00     0.247 C 
HETATM    2  O1  UNL     1      26.717  -0.100  51.521  1.00  0.00    -0.268 OA
HETATM    3  N2  UNL     1      25.269  -0.518  53.215  1.00  0.00    -0.320 N 
HETATM    4  C7  UNL     1      24.244   0.157  52.487  1.00  0.00     0.110 A 
HETATM    5  C8  UNL     1      23.008   0.257  52.946  1.00  0.00     0.036 A 
HETATM    6  C9  UNL     1      21.985   0.895  52.279  1.00  0.00     0.069 A 
HETATM    7  C16 UNL     1      20.713   0.950  52.858  1.00  0.00     0.089 A 
HETATM    8  C17 UNL     1      19.631   1.610  52.183  1.00  0.00     0.103 C 
HETATM    9  N4  UNL     1      18.749   2.144  51.655  1.00  0.00    -0.191 NA
HETATM   10  C18 UNL     1      20.441   0.385  54.080  1.00  0.00     0.142 A 
HETATM   11  N5  UNL     1      21.438  -0.250  54.754  1.00  0.00    -0.259 NA
HETATM   12  C19 UNL     1      22.647  -0.281  54.164  1.00  0.00     0.068 A 
HETATM   13  C20 UNL     1      23.597  -0.896  54.848  1.00  0.00     0.026 A 
HETATM   14  C21 UNL     1      25.031  -1.117  54.530  1.00  0.00     0.161 A 
ENDROOT
BRANCH   6  15
HETATM   15  N3  UNL     1      22.243   1.494  51.018  1.00  0.00    -0.354 N 
HETATM   16  H12 UNL     1      22.042   1.149  50.053  1.00  0.00     0.166 HD
BRANCH  15  17
HETATM   17  C10 UNL     1      22.885   2.781  51.114  1.00  0.00     0.033 A 
HETATM   18  C11 UNL     1      22.449   3.745  52.002  1.00  0.00     0.029 A 
HETATM   19  C12 UNL     1      23.006   4.999  52.153  1.00  0.00     0.004 A 
HETATM   20  C13 UNL     1      24.083   5.289  51.343  1.00  0.00     0.019 A 
HETATM   21  C14 UNL     1      24.577   4.373  50.428  1.00  0.00     0.013 A 
HETATM   22 BR1  UNL     1      26.067   4.820  49.333  1.00  0.00    -0.051 Br
HETATM   23  C15 UNL     1      23.959   3.130  50.337  1.00  0.00     0.048 A 
ENDBRANCH  15  17
ENDBRANCH   6  15
BRANCH   1  24
HETATM   24  C5  UNL     1      27.645  -1.313  53.374  1.00  0.00     0.072 C 
HETATM   25  C4  UNL     1      28.808  -0.785  53.654  1.00  0.00     0.008 C 
BRANCH  25  26
HETATM   26  C3  UNL     1      29.499   0.484  53.425  1.00  0.00     0.299 C 
BRANCH  26  27
HETATM   27  N1  UNL     1      28.988   1.546  54.251  1.00  0.00     0.083 N 
HETATM   28  C1  UNL     1      30.030   2.185  54.986  1.00  0.00     0.309 C 
HETATM   29  C2  UNL     1      28.236   2.449  53.405  1.00  0.00     0.309 C 
ENDBRANCH  26  27
ENDBRANCH  25  26
ENDBRANCH   1  24
TORSDOF 5
ENDMDL
MODEL 8
REMARK VINA RESULT:      -7.8      3.868      7.559
REMARK  5 active torsions:
REMARK  status: ('A' for Active; 'I' for Inactive)
REMARK    1  A    between atoms: N1_2  and  C3_4 
REMARK    2  A    between atoms: C3_4  and  C4_5 
REMARK    3  A    between atoms: C5_6  and  C6_7 
REMARK       I    between atoms: C6_7  and  N2_9 
REMARK    4  A    between atoms: C9_12  and  N3_13 
REMARK    5  A    between atoms: N3_13  and  C10_14 
ROOT
HETATM    1  C6  UNL     1      19.671  -0.579  52.820  1.00  0.00     0.247 C 
HETATM    2  O1  UNL     1      19.596   0.146  51.812  1.00  0.00    -0.268 OA
HETATM    3  N2  UNL     1      20.993  -0.692  53.389  1.00  0.00    -0.320 N 
HETATM    4  C7  UNL     1      22.077   0.008  52.779  1.00  0.00     0.110 A 
HETATM    5  C8  UNL     1      23.303  -0.030  53.276  1.00  0.00     0.036 A 
HETATM    6  C9  UNL     1      24.380   0.630  52.726  1.00  0.00     0.069 A 
HETATM    7  C16 UNL     1      25.638   0.517  53.327  1.00  0.00     0.089 A 
HETATM    8  C17 UNL     1      26.776   1.195  52.772  1.00  0.00     0.103 C 
HETATM    9  N4  UNL     1      27.705   1.730  52.333  1.00  0.00    -0.191 NA
HETATM   10  C18 UNL     1      25.843  -0.234  54.457  1.00  0.00     0.142 A 
HETATM   11  N5  UNL     1      24.792  -0.893  55.016  1.00  0.00    -0.259 NA
HETATM   12  C19 UNL     1      23.599  -0.760  54.408  1.00  0.00     0.068 A 
HETATM   13  C20 UNL     1      22.599  -1.420  54.968  1.00  0.00     0.026 A 
HETATM   14  C21 UNL     1      21.168  -1.521  54.583  1.00  0.00     0.161 A 
ENDROOT
BRANCH   6  15
HETATM   15  N3  UNL     1      24.195   1.407  51.551  1.00  0.00    -0.354 N 
HETATM   16  H12 UNL     1      24.462   1.207  50.561  1.00  0.00     0.166 HD
BRANCH  15  17
HETATM   17  C10 UNL     1      23.533   2.663  51.792  1.00  0.00     0.033 A 
HETATM   18  C11 UNL     1      23.996   3.557  52.738  1.00  0.00     0.029 A 
HETATM   19  C12 UNL     1      23.418   4.777  53.030  1.00  0.00     0.004 A 
HETATM   20  C13 UNL     1      22.292   5.107  52.307  1.00  0.00     0.019 A 
HETATM   21  C14 UNL     1      21.769   4.262  51.342  1.00  0.00     0.013 A 
HETATM   22 BR1  UNL     1      20.213   4.763  50.369  1.00  0.00    -0.051 Br
HETATM   23  C15 UNL     1      22.411   3.050  51.107  1.00  0.00     0.048 A 
ENDBRANCH  15  17
ENDBRANCH   6  15
BRANCH   1  24
HETATM   24  C5  UNL     1      18.555  -1.288  53.432  1.00  0.00     0.072 C 
HETATM   25  C4  UNL     1      17.332  -1.269  52.972  1.00  0.00     0.008 C 
BRANCH  25  26
HETATM   26  C3  UNL     1      16.610  -0.661  51.855  1.00  0.00     0.299 C 
BRANCH  26  27
HETATM   27  N1  UNL     1      16.153   0.671  52.154  1.00  0.00     0.083 N 
HETATM   28  C1  UNL     1      16.239   1.523  51.013  1.00  0.00     0.309 C 
HETATM   29  C2  UNL     1      14.818   0.574  52.708  1.00  0.00     0.309 C 
ENDBRANCH  26  27
ENDBRANCH  25  26
ENDBRANCH   1  24
TORSDOF 5
ENDMDL
MODEL 9
REMARK VINA RESULT:      -7.7      3.135      4.618
REMARK  5 active torsions:
REMARK  status: ('A' for Active; 'I' for Inactive)
REMARK    1  A    between atoms: N1_2  and  C3_4 
REMARK    2  A    between atoms: C3_4  and  C4_5 
REMARK    3  A    between atoms: C5_6  and  C6_7 
REMARK       I    between atoms: C6_7  and  N2_9 
REMARK    4  A    between atoms: C9_12  and  N3_13 
REMARK    5  A    between atoms: N3_13  and  C10_14 
ROOT
HETATM    1  C6  UNL     1      24.492  -0.244  53.418  1.00  0.00     0.247 C 
HETATM    2  O1  UNL     1      24.941   0.268  52.377  1.00  0.00    -0.268 OA
HETATM    3  N2  UNL     1      23.054  -0.370  53.461  1.00  0.00    -0.320 N 
HETATM    4  C7  UNL     1      22.280   0.082  52.350  1.00  0.00     0.110 A 
HETATM    5  C8  UNL     1      20.963  -0.040  52.318  1.00  0.00     0.036 A 
HETATM    6  C9  UNL     1      20.174   0.378  51.270  1.00  0.00     0.069 A 
HETATM    7  C16 UNL     1      18.787   0.208  51.340  1.00  0.00     0.089 A 
HETATM    8  C17 UNL     1      17.944   0.637  50.260  1.00  0.00     0.103 C 
HETATM    9  N4  UNL     1      17.248   0.983  49.399  1.00  0.00    -0.191 NA
HETATM   10  C18 UNL     1      18.176  -0.365  52.427  1.00  0.00     0.142 A 
HETATM   11  N5  UNL     1      18.938  -0.785  53.473  1.00  0.00    -0.259 NA
HETATM   12  C19 UNL     1      20.267  -0.604  53.367  1.00  0.00     0.068 A 
HETATM   13  C20 UNL     1      20.980  -1.013  54.403  1.00  0.00     0.026 A 
HETATM   14  C21 UNL     1      22.444  -0.970  54.649  1.00  0.00     0.161 A 
ENDROOT
BRANCH   6  15
HETATM   15  N3  UNL     1      20.783   0.983  50.137  1.00  0.00    -0.354 N 
HETATM   16  H12 UNL     1      20.959   0.601  49.182  1.00  0.00     0.166 HD
BRANCH  15  17
HETATM   17  C10 UNL     1      21.216   2.336  50.374  1.00  0.00     0.033 A 
HETATM   18  C11 UNL     1      20.416   3.250  51.033  1.00  0.00     0.029 A 
HETATM   19  C12 UNL     1      20.756   4.562  51.295  1.00  0.00     0.004 A 
HETATM   20  C13 UNL     1      21.998   4.969  50.855  1.00  0.00     0.019 A 
HETATM   21  C14 UNL     1      22.855   4.111  50.187  1.00  0.00     0.013 A 
HETATM   22 BR1  UNL     1      24.560   4.720  49.601  1.00  0.00    -0.051 Br
HETATM   23  C15 UNL     1      22.438   2.803  49.962  1.00  0.00     0.048 A 
ENDBRANCH  15  17
ENDBRANCH   6  15
BRANCH   1  24
HETATM   24  C5  UNL     1      25.294  -0.701  54.544  1.00  0.00     0.072 C 
HETATM   25  C4  UNL     1      26.408  -0.136  54.931  1.00  0.00     0.008 C 
BRANCH  25  26
HETATM   26  C3  UNL     1      27.240   0.995  54.523  1.00  0.00     0.299 C 
BRANCH  26  27
HETATM   27  N1  UNL     1      28.647   0.721  54.658  1.00  0.00     0.083 N 
HETATM   28  C1  UNL     1      29.019  -0.467  53.961  1.00  0.00     0.309 C 
HETATM   29  C2  UNL     1      29.376   1.898  54.234  1.00  0.00     0.309 C 
ENDBRANCH  26  27
ENDBRANCH  25  26
ENDBRANCH   1  24
TORSDOF 5
ENDMDL
