MODEL 1
REMARK VINA RESULT:      -8.7      0.000      0.000
REMARK  4 active torsions:
REMARK  status: ('A' for Active; 'I' for Inactive)
REMARK    1  A    between atoms: O1_2  and  C2_3 
REMARK    2  A    between atoms: C6_9  and  C7_10 
REMARK    3  A    between atoms: C7_10  and  C8_11 
REMARK    4  A    between atoms: C13_17  and  O2_18 
ROOT
HETATM    1  C2  UNL     1      19.889  -0.565  53.147  1.00  0.00     0.076 A 
HETATM    2  C3  UNL     1      20.587  -1.083  54.218  1.00  0.00     0.069 A 
HETATM    3  C4  UNL     1      21.947  -0.965  54.366  1.00  0.00     0.073 A 
HETATM    4  N1  UNL     1      22.698  -1.452  55.356  1.00  0.00    -0.241 NA
HETATM    5  C5  UNL     1      24.029  -1.275  55.360  1.00  0.00     0.234 A 
HETATM    6  N2  UNL     1      24.685  -0.610  54.397  1.00  0.00    -0.245 NA
HETATM    7  C6  UNL     1      23.988  -0.087  53.361  1.00  0.00     0.052 A 
HETATM    8  C14 UNL     1      22.637  -0.290  53.387  1.00  0.00     0.018 A 
HETATM    9  C15 UNL     1      21.971   0.232  52.314  1.00  0.00     0.025 A 
HETATM   10  C16 UNL     1      20.611   0.105  52.181  1.00  0.00    -0.028 A 
HETATM   11  C17 UNL     1      19.864   0.669  51.029  1.00  0.00     0.051 C 
ENDROOT
BRANCH   7  12
HETATM   12  C7  UNL     1      24.885   0.669  52.486  1.00  0.00     0.101 C 
BRANCH  12  13
HETATM   13  C8  UNL     1      26.298   0.653  52.913  1.00  0.00    -0.018 A 
HETATM   14  C9  UNL     1      26.768   1.939  53.259  1.00  0.00     0.010 A 
HETATM   15  C10 UNL     1      28.041   2.279  53.661  1.00  0.00     0.002 A 
HETATM   16  C11 UNL     1      28.979   1.275  53.745  1.00  0.00     0.022 A 
HETATM   17  C12 UNL     1      28.592  -0.005  53.424  1.00  0.00     0.044 A 
HETATM   18 BR1  UNL     1      29.831  -1.441  53.519  1.00  0.00    -0.048 Br
HETATM   19  C13 UNL     1      27.305  -0.257  53.033  1.00  0.00     0.089 A 
BRANCH  19  20
HETATM   20  O2  UNL     1      26.983  -1.560  52.729  1.00  0.00    -0.359 OA
HETATM   21  H11 UNL     1      27.218  -2.285  53.423  1.00  0.00     0.217 HD
ENDBRANCH  19  20
ENDBRANCH  12  13
ENDBRANCH   7  12
BRANCH   1  22
HETATM   22  O1  UNL     1      18.518  -0.762  53.133  1.00  0.00    -0.355 OA
HETATM   23  C1  UNL     1      17.871  -1.947  53.491  1.00  0.00     0.210 C 
ENDBRANCH   1  22
TORSDOF 4
ENDMDL
MODEL 2
REMARK VINA RESULT:      -7.8      4.647      5.665
REMARK  4 active torsions:
REMARK  status: ('A' for Active; 'I' for Inactive)
REMARK    1  A    between atoms: O1_2  and  C2_3 
REMARK    2  A    between atoms: C6_9  and  C7_10 
REMARK    3  A    between atoms: C7_10  and  C8_11 
REMARK    4  A    between atoms: C13_17  and  O2_18 
ROOT
HETATM    1  C2  UNL     1      22.820   0.277  52.876  1.00  0.00     0.076 A 
HETATM    2  C3  UNL     1      24.120   0.400  53.325  1.00  0.00     0.069 A 
HETATM    3  C4  UNL     1      25.069   1.173  52.703  1.00  0.00     0.073 A 
HETATM    4  N1  UNL     1      26.345   1.328  53.059  1.00  0.00    -0.241 NA
HETATM    5  C5  UNL     1      27.168   2.107  52.339  1.00  0.00     0.234 A 
HETATM    6  N2  UNL     1      26.780   2.772  51.240  1.00  0.00    -0.245 NA
HETATM    7  C6  UNL     1      25.497   2.662  50.820  1.00  0.00     0.052 A 
HETATM    8  C14 UNL     1      24.688   1.859  51.574  1.00  0.00     0.018 A 
HETATM    9  C15 UNL     1      23.409   1.755  51.105  1.00  0.00     0.025 A 
HETATM   10  C16 UNL     1      22.473   0.977  51.739  1.00  0.00    -0.028 A 
HETATM   11  C17 UNL     1      21.075   0.853  51.254  1.00  0.00     0.051 C 
ENDROOT
BRANCH   7  12
HETATM   12  C7  UNL     1      25.272   3.537  49.669  1.00  0.00     0.101 C 
BRANCH  12  13
HETATM   13  C8  UNL     1      25.162   4.968  50.012  1.00  0.00    -0.018 A 
HETATM   14  C9  UNL     1      23.918   5.286  50.598  1.00  0.00     0.010 A 
HETATM   15  C10 UNL     1      23.479   6.530  50.999  1.00  0.00     0.002 A 
HETATM   16  C11 UNL     1      24.329   7.599  50.822  1.00  0.00     0.022 A 
HETATM   17  C12 UNL     1      25.560   7.364  50.258  1.00  0.00     0.044 A 
HETATM   18 BR1  UNL     1      26.785   8.790  49.986  1.00  0.00    -0.048 Br
HETATM   19  C13 UNL     1      25.917   6.096  49.887  1.00  0.00     0.089 A 
BRANCH  19  20
HETATM   20  O2  UNL     1      27.166   5.931  49.331  1.00  0.00    -0.359 OA
HETATM   21  H11 UNL     1      27.223   5.815  48.309  1.00  0.00     0.217 HD
ENDBRANCH  19  20
ENDBRANCH  12  13
ENDBRANCH   7  12
BRANCH   1  22
HETATM   22  O1  UNL     1      21.975  -0.539  53.608  1.00  0.00    -0.355 OA
HETATM   23  C1  UNL     1      22.334  -1.249  54.756  1.00  0.00     0.210 C 
ENDBRANCH   1  22
TORSDOF 4
ENDMDL
MODEL 3
REMARK VINA RESULT:      -7.8      3.558      7.309
REMARK  4 active torsions:
REMARK  status: ('A' for Active; 'I' for Inactive)
REMARK    1  A    between atoms: O1_2  and  C2_3 
REMARK    2  A    between atoms: C6_9  and  C7_10 
REMARK    3  A    between atoms: C7_10  and  C8_11 
REMARK    4  A    between atoms: C13_17  and  O2_18 
ROOT
HETATM    1  C2  UNL     1      26.511   1.063  53.814  1.00  0.00     0.076 A 
HETATM    2  C3  UNL     1      25.925   2.313  53.847  1.00  0.00     0.069 A 
HETATM    3  C4  UNL     1      24.780   2.633  53.160  1.00  0.00     0.073 A 
HETATM    4  N1  UNL     1      24.165   3.816  53.122  1.00  0.00    -0.241 NA
HETATM    5  C5  UNL     1      23.055   3.990  52.386  1.00  0.00     0.234 A 
HETATM    6  N2  UNL     1      22.495   3.012  51.657  1.00  0.00    -0.245 NA
HETATM    7  C6  UNL     1      23.065   1.784  51.648  1.00  0.00     0.052 A 
HETATM    8  C14 UNL     1      24.195   1.645  52.404  1.00  0.00     0.018 A 
HETATM    9  C15 UNL     1      24.753   0.399  52.352  1.00  0.00     0.025 A 
HETATM   10  C16 UNL     1      25.899   0.095  53.044  1.00  0.00    -0.028 A 
HETATM   11  C17 UNL     1      26.521  -1.252  53.009  1.00  0.00     0.051 C 
ENDROOT
BRANCH   7  12
HETATM   12  C7  UNL     1      22.244   0.858  50.869  1.00  0.00     0.101 C 
BRANCH  12  13
HETATM   13  C8  UNL     1      21.047   0.369  51.581  1.00  0.00    -0.018 A 
HETATM   14  C9  UNL     1      21.367  -0.244  52.812  1.00  0.00     0.010 A 
HETATM   15  C10 UNL     1      20.495  -0.834  53.701  1.00  0.00     0.002 A 
HETATM   16  C11 UNL     1      19.157  -0.842  53.378  1.00  0.00     0.022 A 
HETATM   17  C12 UNL     1      18.770  -0.262  52.194  1.00  0.00     0.044 A 
HETATM   18 BR1  UNL     1      16.940  -0.234  51.685  1.00  0.00    -0.048 Br
HETATM   19  C13 UNL     1      19.702   0.303  51.367  1.00  0.00     0.089 A 
BRANCH  19  20
HETATM   20  O2  UNL     1      19.246   0.870  50.198  1.00  0.00    -0.359 OA
HETATM   21  H11 UNL     1      19.930   1.021  49.442  1.00  0.00     0.217 HD
ENDBRANCH  19  20
ENDBRANCH  12  13
ENDBRANCH   7  12
BRANCH   1  22
HETATM   22  O1  UNL     1      27.665   0.888  54.559  1.00  0.00    -0.355 OA
HETATM   23  C1  UNL     1      28.936   1.336  54.192  1.00  0.00     0.210 C 
ENDBRANCH   1  22
TORSDOF 4
ENDMDL
MODEL 4
REMARK VINA RESULT:      -7.8      3.735      6.610
REMARK  4 active torsions:
REMARK  status: ('A' for Active; 'I' for Inactive)
REMARK    1  A    between atoms: O1_2  and  C2_3 
REMARK    2  A    between atoms: C6_9  and  C7_10 
REMARK    3  A    between atoms: C7_10  and  C8_11 
REMARK    4  A    between atoms: C13_17  and  O2_18 
ROOT
HETATM    1  C2  UNL     1      27.636   0.267  53.911  1.00  0.00     0.076 A 
HETATM    2  C3  UNL     1      26.505  -0.522  53.875  1.00  0.00     0.069 A 
HETATM    3  C4  UNL     1      25.248  -0.037  53.609  1.00  0.00     0.073 A 
HETATM    4  N1  UNL     1      24.106  -0.725  53.577  1.00  0.00    -0.241 NA
HETATM    5  C5  UNL     1      22.940  -0.110  53.320  1.00  0.00     0.234 A 
HETATM    6  N2  UNL     1      22.840   1.207  53.082  1.00  0.00    -0.245 NA
HETATM    7  C6  UNL     1      23.959   1.969  53.098  1.00  0.00     0.052 A 
HETATM    8  C14 UNL     1      25.126   1.311  53.366  1.00  0.00     0.018 A 
HETATM    9  C15 UNL     1      26.229   2.117  53.397  1.00  0.00     0.025 A 
HETATM   10  C16 UNL     1      27.478   1.615  53.664  1.00  0.00    -0.028 A 
HETATM   11  C17 UNL     1      28.693   2.469  53.697  1.00  0.00     0.051 C 
ENDROOT
BRANCH   7  12
HETATM   12  C7  UNL     1      23.632   3.345  52.723  1.00  0.00     0.101 C 
BRANCH  12  13
HETATM   13  C8  UNL     1      23.583   3.577  51.266  1.00  0.00    -0.018 A 
HETATM   14  C9  UNL     1      24.566   4.493  50.835  1.00  0.00     0.010 A 
HETATM   15  C10 UNL     1      24.769   4.954  49.552  1.00  0.00     0.002 A 
HETATM   16  C11 UNL     1      23.935   4.487  48.561  1.00  0.00     0.022 A 
HETATM   17  C12 UNL     1      22.954   3.589  48.908  1.00  0.00     0.044 A 
HETATM   18 BR1  UNL     1      21.768   2.900  47.594  1.00  0.00    -0.048 Br
HETATM   19  C13 UNL     1      22.820   3.182  50.207  1.00  0.00     0.089 A 
BRANCH  19  20
HETATM   20  O2  UNL     1      21.818   2.280  50.485  1.00  0.00    -0.359 OA
HETATM   21  H11 UNL     1      20.964   2.322  49.910  1.00  0.00     0.217 HD
ENDBRANCH  19  20
ENDBRANCH  12  13
ENDBRANCH   7  12
BRANCH   1  22
HETATM   22  O1  UNL     1      28.837  -0.364  54.192  1.00  0.00    -0.355 OA
HETATM   23  C1  UNL     1      29.479  -1.282  53.358  1.00  0.00     0.210 C 
ENDBRANCH   1  22
TORSDOF 4
ENDMDL
MODEL 5
REMARK VINA RESULT:      -7.7      5.367      7.836
REMARK  4 active torsions:
REMARK  status: ('A' for Active; 'I' for Inactive)
REMARK    1  A    between atoms: O1_2  and  C2_3 
REMARK    2  A    between atoms: C6_9  and  C7_10 
REMARK    3  A    between atoms: C7_10  and  C8_11 
REMARK    4  A    between atoms: C13_17  and  O2_18 
ROOT
HETATM    1  C2  UNL     1      26.709   7.422  49.227  1.00  0.00     0.076 A 
HETATM    2  C3  UNL     1      25.587   7.616  50.008  1.00  0.00     0.069 A 
HETATM    3  C4  UNL     1      24.797   6.592  50.470  1.00  0.00     0.073 A 
HETATM    4  N1  UNL     1      23.691   6.695  51.208  1.00  0.00    -0.241 NA
HETATM    5  C5  UNL     1      23.004   5.601  51.572  1.00  0.00     0.234 A 
HETATM    6  N2  UNL     1      23.370   4.355  51.233  1.00  0.00    -0.245 NA
HETATM    7  C6  UNL     1      24.484   4.174  50.485  1.00  0.00     0.052 A 
HETATM    8  C14 UNL     1      25.155   5.310  50.129  1.00  0.00     0.018 A 
HETATM    9  C15 UNL     1      26.260   5.088  49.355  1.00  0.00     0.025 A 
HETATM   10  C16 UNL     1      27.039   6.122  48.902  1.00  0.00    -0.028 A 
HETATM   11  C17 UNL     1      28.247   5.907  48.066  1.00  0.00     0.051 C 
ENDROOT
BRANCH   7  12
HETATM   12  C7  UNL     1      24.744   2.744  50.314  1.00  0.00     0.101 C 
BRANCH  12  13
HETATM   13  C8  UNL     1      25.420   2.113  51.465  1.00  0.00    -0.018 A 
HETATM   14  C9  UNL     1      24.581   1.208  52.150  1.00  0.00     0.010 A 
HETATM   15  C10 UNL     1      24.885   0.483  53.281  1.00  0.00     0.002 A 
HETATM   16  C11 UNL     1      26.141   0.639  53.826  1.00  0.00     0.022 A 
HETATM   17  C12 UNL     1      27.013   1.505  53.210  1.00  0.00     0.044 A 
HETATM   18 BR1  UNL     1      28.762   1.768  53.904  1.00  0.00    -0.048 Br
HETATM   19  C13 UNL     1      26.630   2.187  52.088  1.00  0.00     0.089 A 
BRANCH  19  20
HETATM   20  O2  UNL     1      27.553   3.036  51.521  1.00  0.00    -0.359 OA
HETATM   21  H11 UNL     1      28.504   2.671  51.362  1.00  0.00     0.217 HD
ENDBRANCH  19  20
ENDBRANCH  12  13
ENDBRANCH   7  12
BRANCH   1  22
HETATM   22  O1  UNL     1      27.408   8.551  48.837  1.00  0.00    -0.355 OA
HETATM   23  C1  UNL     1      28.275   9.284  49.651  1.00  0.00     0.210 C 
ENDBRANCH   1  22
TORSDOF 4
ENDMDL
MODEL 6
REMARK VINA RESULT:      -7.7      8.215     12.006
REMARK  4 active torsions:
REMARK  status: ('A' for Active; 'I' for Inactive)
REMARK    1  A    between atoms: O1_2  and  C2_3 
REMARK    2  A    between atoms: C6_9  and  C7_10 
REMARK    3  A    between atoms: C7_10  and  C8_11 
REMARK    4  A    between atoms: C13_17  and  O2_18 
ROOT
HETATM    1  C2  UNL     1      32.963   6.174  48.730  1.00  0.00     0.076 A 
HETATM    2  C3  UNL     1      32.583   7.394  49.251  1.00  0.00     0.069 A 
HETATM    3  C4  UNL     1      31.319   7.914  49.121  1.00  0.00     0.073 A 
HETATM    4  N1  UNL     1      30.878   9.089  49.573  1.00  0.00    -0.241 NA
HETATM    5  C5  UNL     1      29.612   9.479  49.353  1.00  0.00     0.234 A 
HETATM    6  N2  UNL     1      28.719   8.734  48.684  1.00  0.00    -0.245 NA
HETATM    7  C6  UNL     1      29.095   7.529  48.196  1.00  0.00     0.052 A 
HETATM    8  C14 UNL     1      30.392   7.167  48.434  1.00  0.00     0.018 A 
HETATM    9  C15 UNL     1      30.740   5.955  47.907  1.00  0.00     0.025 A 
HETATM   10  C16 UNL     1      32.009   5.450  48.046  1.00  0.00    -0.028 A 
HETATM   11  C17 UNL     1      32.410   4.134  47.488  1.00  0.00     0.051 C 
ENDROOT
BRANCH   7  12
HETATM   12  C7  UNL     1      27.948   6.855  47.589  1.00  0.00     0.101 C 
BRANCH  12  13
HETATM   13  C8  UNL     1      27.072   6.166  48.557  1.00  0.00    -0.018 A 
HETATM   14  C9  UNL     1      27.378   4.793  48.676  1.00  0.00     0.010 A 
HETATM   15  C10 UNL     1      26.733   3.861  49.460  1.00  0.00     0.002 A 
HETATM   16  C11 UNL     1      25.669   4.288  50.222  1.00  0.00     0.022 A 
HETATM   17  C12 UNL     1      25.314   5.615  50.158  1.00  0.00     0.044 A 
HETATM   18 BR1  UNL     1      23.858   6.276  51.183  1.00  0.00    -0.048 Br
HETATM   19  C13 UNL     1      26.009   6.475  49.352  1.00  0.00     0.089 A 
BRANCH  19  20
HETATM   20  O2  UNL     1      25.602   7.790  49.337  1.00  0.00    -0.359 OA
HETATM   21  H11 UNL     1      24.850   8.066  49.985  1.00  0.00     0.217 HD
ENDBRANCH  19  20
ENDBRANCH  12  13
ENDBRANCH   7  12
BRANCH   1  22
HETATM   22  O1  UNL     1      34.273   5.779  48.942  1.00  0.00    -0.355 OA
HETATM   23  C1  UNL     1      35.405   6.516  48.584  1.00  0.00     0.210 C 
ENDBRANCH   1  22
TORSDOF 4
ENDMDL
MODEL 7
REMARK VINA RESULT:      -7.5      5.282      7.681
REMARK  4 active torsions:
REMARK  status: ('A' for Active; 'I' for Inactive)
REMARK    1  A    between atoms: O1_2  and  C2_3 
REMARK    2  A    between atoms: C6_9  and  C7_10 
REMARK    3  A    between atoms: C7_10  and  C8_11 
REMARK    4  A    between atoms: C13_17  and  O2_18 
ROOT
HETATM    1  C2  UNL     1      26.015   6.659  49.719  1.00  0.00     0.076 A 
HETATM    2  C3  UNL     1      24.837   6.987  50.359  1.00  0.00     0.069 A 
HETATM    3  C4  UNL     1      23.851   6.077  50.649  1.00  0.00     0.073 A 
HETATM    4  N1  UNL     1      22.681   6.314  51.243  1.00  0.00    -0.241 NA
HETATM    5  C5  UNL     1      21.799   5.322  51.445  1.00  0.00     0.234 A 
HETATM    6  N2  UNL     1      22.024   4.051  51.078  1.00  0.00    -0.245 NA
HETATM    7  C6  UNL     1      23.192   3.736  50.470  1.00  0.00     0.052 A 
HETATM    8  C14 UNL     1      24.063   4.770  50.276  1.00  0.00     0.018 A 
HETATM    9  C15 UNL     1      25.220   4.417  49.640  1.00  0.00     0.025 A 
HETATM   10  C16 UNL     1      26.195   5.340  49.358  1.00  0.00    -0.028 A 
HETATM   11  C17 UNL     1      27.463   4.980  48.673  1.00  0.00     0.051 C 
ENDROOT
BRANCH   7  12
HETATM   12  C7  UNL     1      23.264   2.292  50.244  1.00  0.00     0.101 C 
BRANCH  12  13
HETATM   13  C8  UNL     1      23.364   1.493  51.481  1.00  0.00    -0.018 A 
HETATM   14  C9  UNL     1      24.702   1.220  51.837  1.00  0.00     0.010 A 
HETATM   15  C10 UNL     1      25.144   0.473  52.908  1.00  0.00     0.002 A 
HETATM   16  C11 UNL     1      24.196  -0.079  53.740  1.00  0.00     0.022 A 
HETATM   17  C12 UNL     1      22.870   0.146  53.456  1.00  0.00     0.044 A 
HETATM   18 BR1  UNL     1      21.508  -0.582  54.562  1.00  0.00    -0.048 Br
HETATM   19  C13 UNL     1      22.517   0.901  52.371  1.00  0.00     0.089 A 
BRANCH  19  20
HETATM   20  O2  UNL     1      21.173   1.089  52.145  1.00  0.00    -0.359 OA
HETATM   21  H11 UNL     1      20.869   2.016  51.812  1.00  0.00     0.217 HD
ENDBRANCH  19  20
ENDBRANCH  12  13
ENDBRANCH   7  12
BRANCH   1  22
HETATM   22  O1  UNL     1      26.918   7.685  49.495  1.00  0.00    -0.355 OA
HETATM   23  C1  UNL     1      26.642   8.862  48.793  1.00  0.00     0.210 C 
ENDBRANCH   1  22
TORSDOF 4
ENDMDL
MODEL 8
REMARK VINA RESULT:      -7.4      6.139      9.227
REMARK  4 active torsions:
REMARK  status: ('A' for Active; 'I' for Inactive)
REMARK    1  A    between atoms: O1_2  and  C2_3 
REMARK    2  A    between atoms: C6_9  and  C7_10 
REMARK    3  A    between atoms: C7_10  and  C8_11 
REMARK    4  A    between atoms: C13_17  and  O2_18 
ROOT
HETATM    1  C2  UNL     1      28.833   7.393  48.528  1.00  0.00     0.076 A 
HETATM    2  C3  UNL     1      27.700   8.014  49.013  1.00  0.00     0.069 A 
HETATM    3  C4  UNL     1      26.521   7.356  49.263  1.00  0.00     0.073 A 
HETATM    4  N1  UNL     1      25.381   7.884  49.710  1.00  0.00    -0.241 NA
HETATM    5  C5  UNL     1      24.294   7.116  49.891  1.00  0.00     0.234 A 
HETATM    6  N2  UNL     1      24.275   5.798  49.646  1.00  0.00    -0.245 NA
HETATM    7  C6  UNL     1      25.397   5.193  49.190  1.00  0.00     0.052 A 
HETATM    8  C14 UNL     1      26.483   6.005  49.014  1.00  0.00     0.018 A 
HETATM    9  C15 UNL     1      27.589   5.364  48.531  1.00  0.00     0.025 A 
HETATM   10  C16 UNL     1      28.760   6.036  48.286  1.00  0.00    -0.028 A 
HETATM   11  C17 UNL     1      29.977   5.361  47.769  1.00  0.00     0.051 C 
ENDROOT
BRANCH   7  12
HETATM   12  C7  UNL     1      25.179   3.751  49.081  1.00  0.00     0.101 C 
BRANCH  12  13
HETATM   13  C8  UNL     1      25.151   3.046  50.378  1.00  0.00    -0.018 A 
HETATM   14  C9  UNL     1      23.869   2.545  50.690  1.00  0.00     0.010 A 
HETATM   15  C10 UNL     1      23.491   1.875  51.833  1.00  0.00     0.002 A 
HETATM   16  C11 UNL     1      24.451   1.654  52.795  1.00  0.00     0.022 A 
HETATM   17  C12 UNL     1      25.725   2.113  52.559  1.00  0.00     0.044 A 
HETATM   18 BR1  UNL     1      27.102   1.843  53.841  1.00  0.00    -0.048 Br
HETATM   19  C13 UNL     1      26.016   2.771  51.395  1.00  0.00     0.089 A 
BRANCH  19  20
HETATM   20  O2  UNL     1      27.312   3.202  51.222  1.00  0.00    -0.359 OA
HETATM   21  H11 UNL     1      28.051   2.721  51.756  1.00  0.00     0.217 HD
ENDBRANCH  19  20
ENDBRANCH  12  13
ENDBRANCH   7  12
BRANCH   1  22
HETATM   22  O1  UNL     1      29.950   8.186  48.324  1.00  0.00    -0.355 OA
HETATM   23  C1  UNL     1      30.858   8.569  49.315  1.00  0.00     0.210 C 
ENDBRANCH   1  22
TORSDOF 4
ENDMDL
MODEL 9
REMARK VINA RESULT:      -7.4      6.192      8.725
REMARK  4 active torsions:
REMARK  status: ('A' for Active; 'I' for Inactive)
REMARK    1  A    between atoms: O1_2  and  C2_3 
REMARK    2  A    between atoms: C6_9  and  C7_10 
REMARK    3  A    between atoms: C7_10  and  C8_11 
REMARK    4  A    between atoms: C13_17  and  O2_18 
ROOT
HETATM    1  C2  UNL     1      27.412   8.031  49.141  1.00  0.00     0.076 A 
HETATM    2  C3  UNL     1      26.300   8.284  49.920  1.00  0.00     0.069 A 
HETATM    3  C4  UNL     1      25.328   7.350  50.180  1.00  0.00     0.073 A 
HETATM    4  N1  UNL     1      24.219   7.519  50.901  1.00  0.00    -0.241 NA
HETATM    5  C5  UNL     1      23.340   6.514  51.055  1.00  0.00     0.234 A 
HETATM    6  N2  UNL     1      23.510   5.299  50.513  1.00  0.00    -0.245 NA
HETATM    7  C6  UNL     1      24.614   5.055  49.769  1.00  0.00     0.052 A 
HETATM    8  C14 UNL     1      25.483   6.100  49.629  1.00  0.00     0.018 A 
HETATM    9  C15 UNL     1      26.573   5.823  48.853  1.00  0.00     0.025 A 
HETATM   10  C16 UNL     1      27.536   6.768  48.602  1.00  0.00    -0.028 A 
HETATM   11  C17 UNL     1      28.732   6.489  47.768  1.00  0.00     0.051 C 
ENDROOT
BRANCH   7  12
HETATM   12  C7  UNL     1      24.640   3.651  49.358  1.00  0.00     0.101 C 
BRANCH  12  13
HETATM   13  C8  UNL     1      24.848   2.702  50.470  1.00  0.00    -0.018 A 
HETATM   14  C9  UNL     1      26.216   2.459  50.719  1.00  0.00     0.010 A 
HETATM   15  C10 UNL     1      26.752   1.603  51.657  1.00  0.00     0.002 A 
HETATM   16  C11 UNL     1      25.881   0.893  52.452  1.00  0.00     0.022 A 
HETATM   17  C12 UNL     1      24.532   1.081  52.266  1.00  0.00     0.044 A 
HETATM   18 BR1  UNL     1      23.271   0.138  53.329  1.00  0.00    -0.048 Br
HETATM   19  C13 UNL     1      24.082   1.951  51.311  1.00  0.00     0.089 A 
BRANCH  19  20
HETATM   20  O2  UNL     1      22.719   2.093  51.180  1.00  0.00    -0.359 OA
HETATM   21  H11 UNL     1      22.367   2.971  50.770  1.00  0.00     0.217 HD
ENDBRANCH  19  20
ENDBRANCH  12  13
ENDBRANCH   7  12
BRANCH   1  22
HETATM   22  O1  UNL     1      28.309   9.072  48.967  1.00  0.00    -0.355 OA
HETATM   23  C1  UNL     1      28.049  10.253  48.267  1.00  0.00     0.210 C 
ENDBRANCH   1  22
TORSDOF 4
ENDMDL
