MODEL 1
REMARK VINA RESULT:      -8.4      0.000      0.000
REMARK  5 active torsions:
REMARK  status: ('A' for Active; 'I' for Inactive)
REMARK    1  A    between atoms: C3_3  and  C4_4 
REMARK       I    between atoms: C4_4  and  N1_6 
REMARK    2  A    between atoms: C7_9  and  N2_10 
REMARK    3  A    between atoms: N2_10  and  C8_11 
REMARK    4  A    between atoms: C8_11  and  C9_12 
REMARK    5  A    between atoms: C19_25  and  O2_26 
ROOT
HETATM    1  C1  UNL     1      21.127   3.203  47.126  1.00  0.00     0.112 C 
HETATM    2  C2  UNL     1      21.160   3.147  48.590  1.00  0.00    -0.101 C 
HETATM    3  C3  UNL     1      21.206   3.103  49.816  1.00  0.00    -0.006 C 
ENDROOT
BRANCH   3   4
HETATM    4  C4  UNL     1      21.253   3.072  51.250  1.00  0.00     0.299 C 
HETATM    5  O1  UNL     1      20.379   3.601  51.946  1.00  0.00    -0.258 OA
HETATM    6  N1  UNL     1      22.385   2.385  51.769  1.00  0.00    -0.332 N 
HETATM    7  C5  UNL     1      23.410   1.761  51.010  1.00  0.00     0.156 C 
HETATM    8  C21 UNL     1      23.000   1.960  53.019  1.00  0.00     0.194 C 
HETATM    9  C6  UNL     1      24.505   2.685  50.756  1.00  0.00     0.023 C 
HETATM   10  C7  UNL     1      25.695   2.505  51.296  1.00  0.00     0.045 C 
HETATM   11  C15 UNL     1      26.206   1.606  52.315  1.00  0.00     0.075 C 
HETATM   12  C16 UNL     1      27.595   1.615  52.689  1.00  0.00     0.099 C 
HETATM   13  C17 UNL     1      25.241   0.800  52.833  1.00  0.00     0.184 C 
HETATM   14  N3  UNL     1      28.717   1.605  53.000  1.00  0.00    -0.192 NA
HETATM   15  N4  UNL     1      24.643  -0.198  53.642  1.00  0.00    -0.272 NA
HETATM   16  C18 UNL     1      23.430  -0.436  53.400  1.00  0.00     0.113 C 
HETATM   17  C19 UNL     1      22.671   0.617  53.443  1.00  0.00     0.094 C 
BRANCH  10  18
HETATM   18  N2  UNL     1      26.668   3.508  50.922  1.00  0.00    -0.385 N 
HETATM   19  H7  UNL     1      27.177   4.051  51.630  1.00  0.00     0.160 HD
BRANCH  18  20
HETATM   20  C8  UNL     1      26.711   3.522  49.489  1.00  0.00     0.158 C 
BRANCH  20  21
HETATM   21  C9  UNL     1      27.055   4.830  48.896  1.00  0.00    -0.039 A 
HETATM   22  C10 UNL     1      28.346   5.138  48.505  1.00  0.00     0.009 A 
HETATM   23  C11 UNL     1      28.662   6.358  47.953  1.00  0.00     0.002 A 
HETATM   24  C12 UNL     1      27.690   7.333  47.768  1.00  0.00     0.019 A 
HETATM   25  C13 UNL     1      26.388   7.019  48.164  1.00  0.00     0.011 A 
HETATM   26 BR1  UNL     1      25.055   8.328  47.919  1.00  0.00    -0.051 Br
HETATM   27  C14 UNL     1      26.089   5.790  48.715  1.00  0.00     0.027 A 
ENDBRANCH  20  21
ENDBRANCH  18  20
ENDBRANCH  10  18
BRANCH  17  28
HETATM   28  O2  UNL     1      21.748  -0.260  53.976  1.00  0.00    -0.356 OA
HETATM   29  C20 UNL     1      20.458  -0.509  53.523  1.00  0.00     0.209 C 
ENDBRANCH  17  28
ENDBRANCH   3   4
TORSDOF 5
ENDMDL
MODEL 2
REMARK VINA RESULT:      -8.4      3.047      6.009
REMARK  5 active torsions:
REMARK  status: ('A' for Active; 'I' for Inactive)
REMARK    1  A    between atoms: C3_3  and  C4_4 
REMARK       I    between atoms: C4_4  and  N1_6 
REMARK    2  A    between atoms: C7_9  and  N2_10 
REMARK    3  A    between atoms: N2_10  and  C8_11 
REMARK    4  A    between atoms: C8_11  and  C9_12 
REMARK    5  A    between atoms: C19_25  and  O2_26 
ROOT
HETATM    1  C1  UNL     1      27.126   3.997  48.962  1.00  0.00     0.112 C 
HETATM    2  C2  UNL     1      25.951   4.311  49.779  1.00  0.00    -0.101 C 
HETATM    3  C3  UNL     1      24.975   4.565  50.480  1.00  0.00    -0.006 C 
ENDROOT
BRANCH   3   4
HETATM    4  C4  UNL     1      23.842   4.882  51.300  1.00  0.00     0.299 C 
HETATM    5  O1  UNL     1      23.598   6.039  51.663  1.00  0.00    -0.258 OA
HETATM    6  N1  UNL     1      23.049   3.752  51.642  1.00  0.00    -0.332 N 
HETATM    7  C5  UNL     1      23.288   2.409  51.247  1.00  0.00     0.156 C 
HETATM    8  C21 UNL     1      21.834   3.369  52.346  1.00  0.00     0.194 C 
HETATM    9  C6  UNL     1      24.106   1.715  52.230  1.00  0.00     0.023 C 
HETATM   10  C7  UNL     1      23.618   0.728  52.957  1.00  0.00     0.045 C 
HETATM   11  C15 UNL     1      22.280   0.200  53.157  1.00  0.00     0.075 C 
HETATM   12  C16 UNL     1      22.048  -0.936  54.008  1.00  0.00     0.099 C 
HETATM   13  C17 UNL     1      21.336   0.891  52.465  1.00  0.00     0.184 C 
HETATM   14  N3  UNL     1      21.842  -1.858  54.689  1.00  0.00    -0.192 NA
HETATM   15  N4  UNL     1      20.058   1.257  51.974  1.00  0.00    -0.272 NA
HETATM   16  C18 UNL     1      20.052   2.186  51.122  1.00  0.00     0.113 C 
HETATM   17  C19 UNL     1      20.650   3.267  51.521  1.00  0.00     0.094 C 
BRANCH  10  18
HETATM   18  N2  UNL     1      24.574   0.141  53.870  1.00  0.00    -0.385 N 
HETATM   19  H7  UNL     1      24.638   0.448  54.849  1.00  0.00     0.160 HD
BRANCH  18  20
HETATM   20  C8  UNL     1      25.298  -0.846  53.124  1.00  0.00     0.158 C 
BRANCH  20  21
HETATM   21  C9  UNL     1      26.767  -0.769  53.264  1.00  0.00    -0.039 A 
HETATM   22  C10 UNL     1      27.586  -1.846  52.978  1.00  0.00     0.009 A 
HETATM   23  C11 UNL     1      28.953  -1.769  53.109  1.00  0.00     0.002 A 
HETATM   24  C12 UNL     1      29.566  -0.599  53.539  1.00  0.00     0.019 A 
HETATM   25  C13 UNL     1      28.737   0.488  53.827  1.00  0.00     0.011 A 
HETATM   26 BR1  UNL     1      29.549   2.085  54.408  1.00  0.00    -0.051 Br
HETATM   27  C14 UNL     1      27.367   0.392  53.688  1.00  0.00     0.027 A 
ENDBRANCH  20  21
ENDBRANCH  18  20
ENDBRANCH  10  18
BRANCH  17  28
HETATM   28  O2  UNL     1      19.651   3.898  50.808  1.00  0.00    -0.356 OA
HETATM   29  C20 UNL     1      19.730   5.108  50.129  1.00  0.00     0.209 C 
ENDBRANCH  17  28
ENDBRANCH   3   4
TORSDOF 5
ENDMDL
MODEL 3
REMARK VINA RESULT:      -8.1      1.793      2.148
REMARK  5 active torsions:
REMARK  status: ('A' for Active; 'I' for Inactive)
REMARK    1  A    between atoms: C3_3  and  C4_4 
REMARK       I    between atoms: C4_4  and  N1_6 
REMARK    2  A    between atoms: C7_9  and  N2_10 
REMARK    3  A    between atoms: N2_10  and  C8_11 
REMARK    4  A    between atoms: C8_11  and  C9_12 
REMARK    5  A    between atoms: C19_25  and  O2_26 
ROOT
HETATM    1  C1  UNL     1      21.843   3.863  45.577  1.00  0.00     0.112 C 
HETATM    2  C2  UNL     1      21.627   3.911  47.025  1.00  0.00    -0.101 C 
HETATM    3  C3  UNL     1      21.465   3.957  48.241  1.00  0.00    -0.006 C 
ENDROOT
BRANCH   3   4
HETATM    4  C4  UNL     1      21.262   4.030  49.660  1.00  0.00     0.299 C 
HETATM    5  O1  UNL     1      20.322   4.662  50.156  1.00  0.00    -0.258 OA
HETATM    6  N1  UNL     1      22.233   3.314  50.413  1.00  0.00    -0.332 N 
HETATM    7  C5  UNL     1      23.324   2.573  49.887  1.00  0.00     0.156 C 
HETATM    8  C21 UNL     1      22.590   2.946  51.775  1.00  0.00     0.194 C 
HETATM    9  C6  UNL     1      24.512   3.407  49.775  1.00  0.00     0.023 C 
HETATM   10  C7  UNL     1      25.575   3.194  50.527  1.00  0.00     0.045 C 
HETATM   11  C15 UNL     1      25.834   2.343  51.674  1.00  0.00     0.075 C 
HETATM   12  C16 UNL     1      27.135   2.294  52.286  1.00  0.00     0.099 C 
HETATM   13  C17 UNL     1      24.737   1.639  52.061  1.00  0.00     0.184 C 
HETATM   14  N3  UNL     1      28.183   2.237  52.791  1.00  0.00    -0.192 NA
HETATM   15  N4  UNL     1      23.937   0.742  52.812  1.00  0.00    -0.272 NA
HETATM   16  C18 UNL     1      22.770   0.563  52.374  1.00  0.00     0.113 C 
HETATM   17  C19 UNL     1      22.095   1.661  52.217  1.00  0.00     0.094 C 
BRANCH  10  18
HETATM   18  N2  UNL     1      26.669   4.104  50.269  1.00  0.00    -0.385 N 
HETATM   19  H7  UNL     1      27.475   4.167  50.904  1.00  0.00     0.160 HD
BRANCH  18  20
HETATM   20  C8  UNL     1      26.351   4.791  49.051  1.00  0.00     0.158 C 
BRANCH  20  21
HETATM   21  C9  UNL     1      27.440   5.636  48.519  1.00  0.00    -0.039 A 
HETATM   22  C10 UNL     1      27.224   6.944  48.126  1.00  0.00     0.009 A 
HETATM   23  C11 UNL     1      28.241   7.727  47.632  1.00  0.00     0.002 A 
HETATM   24  C12 UNL     1      29.532   7.229  47.505  1.00  0.00     0.019 A 
HETATM   25  C13 UNL     1      29.747   5.907  47.903  1.00  0.00     0.011 A 
HETATM   26 BR1  UNL     1      31.491   5.213  47.741  1.00  0.00    -0.051 Br
HETATM   27  C14 UNL     1      28.714   5.137  48.397  1.00  0.00     0.027 A 
ENDBRANCH  20  21
ENDBRANCH  18  20
ENDBRANCH  10  18
BRANCH  17  28
HETATM   28  O2  UNL     1      21.032   0.885  52.632  1.00  0.00    -0.356 OA
HETATM   29  C20 UNL     1      20.739   0.472  53.927  1.00  0.00     0.209 C 
ENDBRANCH  17  28
ENDBRANCH   3   4
TORSDOF 5
ENDMDL
MODEL 4
REMARK VINA RESULT:      -8.0      3.970      7.117
REMARK  5 active torsions:
REMARK  status: ('A' for Active; 'I' for Inactive)
REMARK    1  A    between atoms: C3_3  and  C4_4 
REMARK       I    between atoms: C4_4  and  N1_6 
REMARK    2  A    between atoms: C7_9  and  N2_10 
REMARK    3  A    between atoms: N2_10  and  C8_11 
REMARK    4  A    between atoms: C8_11  and  C9_12 
REMARK    5  A    between atoms: C19_25  and  O2_26 
ROOT
HETATM    1  C1  UNL     1      24.012   6.213  50.656  1.00  0.00     0.112 C 
HETATM    2  C2  UNL     1      24.779   4.968  50.567  1.00  0.00    -0.101 C 
HETATM    3  C3  UNL     1      25.435   3.933  50.505  1.00  0.00    -0.006 C 
ENDROOT
BRANCH   3   4
HETATM    4  C4  UNL     1      26.186   2.711  50.446  1.00  0.00     0.299 C 
HETATM    5  O1  UNL     1      26.915   2.435  49.486  1.00  0.00    -0.258 OA
HETATM    6  N1  UNL     1      26.006   1.875  51.582  1.00  0.00    -0.332 N 
HETATM    7  C5  UNL     1      25.184   2.151  52.706  1.00  0.00     0.156 C 
HETATM    8  C21 UNL     1      26.452   0.619  52.168  1.00  0.00     0.194 C 
HETATM    9  C6  UNL     1      23.845   1.615  52.515  1.00  0.00     0.023 C 
HETATM   10  C7  UNL     1      23.393   0.617  53.250  1.00  0.00     0.045 C 
HETATM   11  C15 UNL     1      24.015  -0.286  54.203  1.00  0.00     0.075 C 
HETATM   12  C16 UNL     1      23.244  -1.285  54.893  1.00  0.00     0.099 C 
HETATM   13  C17 UNL     1      25.348  -0.063  54.340  1.00  0.00     0.184 C 
HETATM   14  N3  UNL     1      22.636  -2.096  55.466  1.00  0.00    -0.192 NA
HETATM   15  N4  UNL     1      26.675  -0.221  54.813  1.00  0.00    -0.272 NA
HETATM   16  C18 UNL     1      27.503   0.633  54.397  1.00  0.00     0.113 C 
HETATM   17  C19 UNL     1      27.550   0.730  53.103  1.00  0.00     0.094 C 
BRANCH  10  18
HETATM   18  N2  UNL     1      22.036   0.224  52.938  1.00  0.00    -0.385 N 
HETATM   19  H7  UNL     1      21.631  -0.644  53.309  1.00  0.00     0.160 HD
BRANCH  18  20
HETATM   20  C8  UNL     1      21.501   1.247  52.087  1.00  0.00     0.158 C 
BRANCH  20  21
HETATM   21  C9  UNL     1      20.184   0.928  51.496  1.00  0.00    -0.039 A 
HETATM   22  C10 UNL     1      19.805   1.410  50.256  1.00  0.00     0.009 A 
HETATM   23  C11 UNL     1      18.578   1.111  49.710  1.00  0.00     0.002 A 
HETATM   24  C12 UNL     1      17.668   0.310  50.388  1.00  0.00     0.019 A 
HETATM   25  C13 UNL     1      18.055  -0.175  51.640  1.00  0.00     0.011 A 
HETATM   26 BR1  UNL     1      16.836  -1.265  52.575  1.00  0.00    -0.051 Br
HETATM   27  C14 UNL     1      19.290   0.135  52.172  1.00  0.00     0.027 A 
ENDBRANCH  20  21
ENDBRANCH  18  20
ENDBRANCH  10  18
BRANCH  17  28
HETATM   28  O2  UNL     1      28.897   0.936  53.322  1.00  0.00    -0.356 OA
HETATM   29  C20 UNL     1      29.889  -0.028  53.462  1.00  0.00     0.209 C 
ENDBRANCH  17  28
ENDBRANCH   3   4
TORSDOF 5
ENDMDL
MODEL 5
REMARK VINA RESULT:      -7.9      3.160      6.307
REMARK  5 active torsions:
REMARK  status: ('A' for Active; 'I' for Inactive)
REMARK    1  A    between atoms: C3_3  and  C4_4 
REMARK       I    between atoms: C4_4  and  N1_6 
REMARK    2  A    between atoms: C7_9  and  N2_10 
REMARK    3  A    between atoms: N2_10  and  C8_11 
REMARK    4  A    between atoms: C8_11  and  C9_12 
REMARK    5  A    between atoms: C19_25  and  O2_26 
ROOT
HETATM    1  C1  UNL     1      24.101   6.481  50.906  1.00  0.00     0.112 C 
HETATM    2  C2  UNL     1      24.801   5.202  50.762  1.00  0.00    -0.101 C 
HETATM    3  C3  UNL     1      25.400   4.136  50.656  1.00  0.00    -0.006 C 
ENDROOT
BRANCH   3   4
HETATM    4  C4  UNL     1      26.081   2.878  50.541  1.00  0.00     0.299 C 
HETATM    5  O1  UNL     1      26.830   2.622  49.592  1.00  0.00    -0.258 OA
HETATM    6  N1  UNL     1      25.809   1.982  51.612  1.00  0.00    -0.332 N 
HETATM    7  C5  UNL     1      24.961   2.234  52.722  1.00  0.00     0.156 C 
HETATM    8  C21 UNL     1      26.159   0.666  52.128  1.00  0.00     0.194 C 
HETATM    9  C6  UNL     1      23.602   1.792  52.448  1.00  0.00     0.023 C 
HETATM   10  C7  UNL     1      23.064   0.777  53.098  1.00  0.00     0.045 C 
HETATM   11  C15 UNL     1      23.595  -0.221  54.009  1.00  0.00     0.075 C 
HETATM   12  C16 UNL     1      22.742  -1.215  54.604  1.00  0.00     0.099 C 
HETATM   13  C17 UNL     1      24.933  -0.087  54.209  1.00  0.00     0.184 C 
HETATM   14  N3  UNL     1      22.066  -2.023  55.099  1.00  0.00    -0.192 NA
HETATM   15  N4  UNL     1      26.229  -0.355  54.717  1.00  0.00    -0.272 NA
HETATM   16  C18 UNL     1      27.119   0.473  54.389  1.00  0.00     0.113 C 
HETATM   17  C19 UNL     1      27.223   0.651  53.107  1.00  0.00     0.094 C 
BRANCH  10  18
HETATM   18  N2  UNL     1      21.701   0.487  52.712  1.00  0.00    -0.385 N 
HETATM   19  H7  UNL     1      20.936   0.493  53.398  1.00  0.00     0.160 HD
BRANCH  18  20
HETATM   20  C8  UNL     1      21.722   0.230  51.301  1.00  0.00     0.158 C 
BRANCH  20  21
HETATM   21  C9  UNL     1      20.658   0.911  50.535  1.00  0.00    -0.039 A 
HETATM   22  C10 UNL     1      19.317   0.720  50.818  1.00  0.00     0.009 A 
HETATM   23  C11 UNL     1      18.330   1.357  50.102  1.00  0.00     0.002 A 
HETATM   24  C12 UNL     1      18.645   2.220  49.060  1.00  0.00     0.019 A 
HETATM   25  C13 UNL     1      20.000   2.412  48.777  1.00  0.00     0.011 A 
HETATM   26 BR1  UNL     1      20.447   3.581  47.370  1.00  0.00    -0.051 Br
HETATM   27  C14 UNL     1      20.976   1.765  49.507  1.00  0.00     0.027 A 
ENDBRANCH  20  21
ENDBRANCH  18  20
ENDBRANCH  10  18
BRANCH  17  28
HETATM   28  O2  UNL     1      28.570   0.761  53.387  1.00  0.00    -0.356 OA
HETATM   29  C20 UNL     1      29.476  -0.270  53.609  1.00  0.00     0.209 C 
ENDBRANCH  17  28
ENDBRANCH   3   4
TORSDOF 5
ENDMDL
MODEL 6
REMARK VINA RESULT:      -7.4      3.558      8.540
REMARK  5 active torsions:
REMARK  status: ('A' for Active; 'I' for Inactive)
REMARK    1  A    between atoms: C3_3  and  C4_4 
REMARK       I    between atoms: C4_4  and  N1_6 
REMARK    2  A    between atoms: C7_9  and  N2_10 
REMARK    3  A    between atoms: N2_10  and  C8_11 
REMARK    4  A    between atoms: C8_11  and  C9_12 
REMARK    5  A    between atoms: C19_25  and  O2_26 
ROOT
HETATM    1  C1  UNL     1      26.180  -2.026  52.652  1.00  0.00     0.112 C 
HETATM    2  C2  UNL     1      26.100  -0.571  52.805  1.00  0.00    -0.101 C 
HETATM    3  C3  UNL     1      26.020   0.648  52.921  1.00  0.00    -0.006 C 
ENDROOT
BRANCH   3   4
HETATM    4  C4  UNL     1      25.915   2.071  53.075  1.00  0.00     0.299 C 
HETATM    5  O1  UNL     1      26.754   2.727  53.702  1.00  0.00    -0.258 OA
HETATM    6  N1  UNL     1      24.769   2.631  52.445  1.00  0.00    -0.332 N 
HETATM    7  C5  UNL     1      23.781   1.918  51.714  1.00  0.00     0.156 C 
HETATM    8  C21 UNL     1      24.107   3.899  52.177  1.00  0.00     0.194 C 
HETATM    9  C6  UNL     1      22.689   1.504  52.582  1.00  0.00     0.023 C 
HETATM   10  C7  UNL     1      21.480   2.015  52.457  1.00  0.00     0.045 C 
HETATM   11  C15 UNL     1      20.935   3.122  51.689  1.00  0.00     0.075 C 
HETATM   12  C16 UNL     1      19.532   3.436  51.728  1.00  0.00     0.099 C 
HETATM   13  C17 UNL     1      21.886   3.777  50.971  1.00  0.00     0.184 C 
HETATM   14  N3  UNL     1      18.399   3.701  51.742  1.00  0.00    -0.192 NA
HETATM   15  N4  UNL     1      22.458   4.732  50.094  1.00  0.00    -0.272 NA
HETATM   16  C18 UNL     1      23.683   4.571  49.845  1.00  0.00     0.113 C 
HETATM   17  C19 UNL     1      24.429   4.507  50.904  1.00  0.00     0.094 C 
BRANCH  10  18
HETATM   18  N2  UNL     1      20.514   1.476  53.389  1.00  0.00    -0.385 N 
HETATM   19  H7  UNL     1      19.892   2.089  53.931  1.00  0.00     0.160 HD
BRANCH  18  20
HETATM   20  C8  UNL     1      20.655   0.050  53.344  1.00  0.00     0.158 C 
BRANCH  20  21
HETATM   21  C9  UNL     1      19.385  -0.689  53.182  1.00  0.00    -0.039 A 
HETATM   22  C10 UNL     1      19.149  -1.887  53.831  1.00  0.00     0.009 A 
HETATM   23  C11 UNL     1      17.966  -2.571  53.677  1.00  0.00     0.002 A 
HETATM   24  C12 UNL     1      16.957  -2.081  52.857  1.00  0.00     0.019 A 
HETATM   25  C13 UNL     1      17.198  -0.870  52.203  1.00  0.00     0.011 A 
HETATM   26 BR1  UNL     1      15.841  -0.188  51.089  1.00  0.00    -0.051 Br
HETATM   27  C14 UNL     1      18.391  -0.198  52.370  1.00  0.00     0.027 A 
ENDBRANCH  20  21
ENDBRANCH  18  20
ENDBRANCH  10  18
BRANCH  17  28
HETATM   28  O2  UNL     1      25.337   5.185  50.117  1.00  0.00    -0.356 OA
HETATM   29  C20 UNL     1      26.434   4.659  49.444  1.00  0.00     0.209 C 
ENDBRANCH  17  28
ENDBRANCH   3   4
TORSDOF 5
ENDMDL
MODEL 7
REMARK VINA RESULT:      -7.3      3.165      6.180
REMARK  5 active torsions:
REMARK  status: ('A' for Active; 'I' for Inactive)
REMARK    1  A    between atoms: C3_3  and  C4_4 
REMARK       I    between atoms: C4_4  and  N1_6 
REMARK    2  A    between atoms: C7_9  and  N2_10 
REMARK    3  A    between atoms: N2_10  and  C8_11 
REMARK    4  A    between atoms: C8_11  and  C9_12 
REMARK    5  A    between atoms: C19_25  and  O2_26 
ROOT
HETATM    1  C1  UNL     1      23.933   7.215  49.116  1.00  0.00     0.112 C 
HETATM    2  C2  UNL     1      24.836   6.072  49.274  1.00  0.00    -0.101 C 
HETATM    3  C3  UNL     1      25.601   5.124  49.420  1.00  0.00    -0.006 C 
ENDROOT
BRANCH   3   4
HETATM    4  C4  UNL     1      26.480   4.003  49.601  1.00  0.00     0.299 C 
HETATM    5  O1  UNL     1      27.485   3.838  48.901  1.00  0.00    -0.258 OA
HETATM    6  N1  UNL     1      26.078   3.126  50.646  1.00  0.00    -0.332 N 
HETATM    7  C5  UNL     1      24.936   3.277  51.475  1.00  0.00     0.156 C 
HETATM    8  C21 UNL     1      26.482   1.920  51.355  1.00  0.00     0.194 C 
HETATM    9  C6  UNL     1      23.787   2.587  50.908  1.00  0.00     0.023 C 
HETATM   10  C7  UNL     1      23.263   1.526  51.491  1.00  0.00     0.045 C 
HETATM   11  C15 UNL     1      23.684   0.684  52.597  1.00  0.00     0.075 C 
HETATM   12  C16 UNL     1      22.872  -0.416  53.046  1.00  0.00     0.099 C 
HETATM   13  C17 UNL     1      24.881   1.063  53.117  1.00  0.00     0.184 C 
HETATM   14  N3  UNL     1      22.226  -1.306  53.426  1.00  0.00    -0.192 NA
HETATM   15  N4  UNL     1      26.021   1.054  53.960  1.00  0.00    -0.272 NA
HETATM   16  C18 UNL     1      26.823   2.011  53.793  1.00  0.00     0.113 C 
HETATM   17  C19 UNL     1      27.235   2.142  52.569  1.00  0.00     0.094 C 
BRANCH  10  18
HETATM   18  N2  UNL     1      22.116   0.980  50.800  1.00  0.00    -0.385 N 
HETATM   19  H7  UNL     1      21.521   0.263  51.233  1.00  0.00     0.160 HD
BRANCH  18  20
HETATM   20  C8  UNL     1      22.058   1.635  49.526  1.00  0.00     0.158 C 
BRANCH  20  21
HETATM   21  C9  UNL     1      20.755   2.260  49.214  1.00  0.00    -0.039 A 
HETATM   22  C10 UNL     1      20.384   2.565  47.917  1.00  0.00     0.009 A 
HETATM   23  C11 UNL     1      19.171   3.146  47.631  1.00  0.00     0.002 A 
HETATM   24  C12 UNL     1      18.268   3.452  48.642  1.00  0.00     0.019 A 
HETATM   25  C13 UNL     1      18.646   3.142  49.951  1.00  0.00     0.011 A 
HETATM   26 BR1  UNL     1      17.434   3.548  51.335  1.00  0.00    -0.051 Br
HETATM   27  C14 UNL     1      19.867   2.559  50.218  1.00  0.00     0.027 A 
ENDBRANCH  20  21
ENDBRANCH  18  20
ENDBRANCH  10  18
BRANCH  17  28
HETATM   28  O2  UNL     1      28.424   2.503  53.171  1.00  0.00    -0.356 OA
HETATM   29  C20 UNL     1      29.263   1.702  53.936  1.00  0.00     0.209 C 
ENDBRANCH  17  28
ENDBRANCH   3   4
TORSDOF 5
ENDMDL
MODEL 8
REMARK VINA RESULT:      -7.2      3.298      6.702
REMARK  5 active torsions:
REMARK  status: ('A' for Active; 'I' for Inactive)
REMARK    1  A    between atoms: C3_3  and  C4_4 
REMARK       I    between atoms: C4_4  and  N1_6 
REMARK    2  A    between atoms: C7_9  and  N2_10 
REMARK    3  A    between atoms: N2_10  and  C8_11 
REMARK    4  A    between atoms: C8_11  and  C9_12 
REMARK    5  A    between atoms: C19_25  and  O2_26 
ROOT
HETATM    1  C1  UNL     1      27.572   5.116  48.541  1.00  0.00     0.112 C 
HETATM    2  C2  UNL     1      26.363   5.597  49.214  1.00  0.00    -0.101 C 
HETATM    3  C3  UNL     1      25.355   6.018  49.773  1.00  0.00    -0.006 C 
ENDROOT
BRANCH   3   4
HETATM    4  C4  UNL     1      24.163   6.502  50.410  1.00  0.00     0.299 C 
HETATM    5  O1  UNL     1      24.136   7.577  51.021  1.00  0.00    -0.258 OA
HETATM    6  N1  UNL     1      23.046   5.635  50.266  1.00  0.00    -0.332 N 
HETATM    7  C5  UNL     1      23.029   4.395  49.573  1.00  0.00     0.156 C 
HETATM    8  C21 UNL     1      21.630   5.519  50.584  1.00  0.00     0.194 C 
HETATM    9  C6  UNL     1      23.346   3.294  50.469  1.00  0.00     0.023 C 
HETATM   10  C7  UNL     1      22.444   2.384  50.787  1.00  0.00     0.045 C 
HETATM   11  C15 UNL     1      21.013   2.276  50.567  1.00  0.00     0.075 C 
HETATM   12  C16 UNL     1      20.277   1.122  51.011  1.00  0.00     0.099 C 
HETATM   13  C17 UNL     1      20.500   3.355  49.919  1.00  0.00     0.184 C 
HETATM   14  N3  UNL     1      19.667   0.194  51.359  1.00  0.00    -0.192 NA
HETATM   15  N4  UNL     1      19.539   4.198  49.306  1.00  0.00    -0.272 NA
HETATM   16  C18 UNL     1      20.001   5.234  48.758  1.00  0.00     0.113 C 
HETATM   17  C19 UNL     1      20.726   5.966  49.548  1.00  0.00     0.094 C 
BRANCH  10  18
HETATM   18  N2  UNL     1      22.936   1.353  51.673  1.00  0.00    -0.385 N 
HETATM   19  H7  UNL     1      22.643   0.374  51.571  1.00  0.00     0.160 HD
BRANCH  18  20
HETATM   20  C8  UNL     1      23.822   1.998  52.598  1.00  0.00     0.158 C 
BRANCH  20  21
HETATM   21  C9  UNL     1      25.081   1.268  52.856  1.00  0.00    -0.039 A 
HETATM   22  C10 UNL     1      25.152  -0.112  52.789  1.00  0.00     0.009 A 
HETATM   23  C11 UNL     1      26.326  -0.787  53.029  1.00  0.00     0.002 A 
HETATM   24  C12 UNL     1      27.491  -0.104  53.352  1.00  0.00     0.019 A 
HETATM   25  C13 UNL     1      27.417   1.290  53.418  1.00  0.00     0.011 A 
HETATM   26 BR1  UNL     1      28.988   2.235  53.852  1.00  0.00    -0.051 Br
HETATM   27  C14 UNL     1      26.230   1.950  53.174  1.00  0.00     0.027 A 
ENDBRANCH  20  21
ENDBRANCH  18  20
ENDBRANCH  10  18
BRANCH  17  28
HETATM   28  O2  UNL     1      20.152   7.011  48.853  1.00  0.00    -0.356 OA
HETATM   29  C20 UNL     1      19.621   8.185  49.375  1.00  0.00     0.209 C 
ENDBRANCH  17  28
ENDBRANCH   3   4
TORSDOF 5
ENDMDL
MODEL 9
REMARK VINA RESULT:      -7.2      4.775      8.745
REMARK  5 active torsions:
REMARK  status: ('A' for Active; 'I' for Inactive)
REMARK    1  A    between atoms: C3_3  and  C4_4 
REMARK       I    between atoms: C4_4  and  N1_6 
REMARK    2  A    between atoms: C7_9  and  N2_10 
REMARK    3  A    between atoms: N2_10  and  C8_11 
REMARK    4  A    between atoms: C8_11  and  C9_12 
REMARK    5  A    between atoms: C19_25  and  O2_26 
ROOT
HETATM    1  C1  UNL     1      21.585   5.632  51.556  1.00  0.00     0.112 C 
HETATM    2  C2  UNL     1      22.127   4.271  51.528  1.00  0.00    -0.101 C 
HETATM    3  C3  UNL     1      22.592   3.136  51.490  1.00  0.00    -0.006 C 
ENDROOT
BRANCH   3   4
HETATM    4  C4  UNL     1      23.148   1.813  51.464  1.00  0.00     0.299 C 
HETATM    5  O1  UNL     1      24.176   1.546  50.831  1.00  0.00    -0.258 OA
HETATM    6  N1  UNL     1      22.408   0.867  52.225  1.00  0.00    -0.332 N 
HETATM    7  C5  UNL     1      21.227   1.128  52.969  1.00  0.00     0.156 C 
HETATM    8  C21 UNL     1      22.413  -0.526  52.649  1.00  0.00     0.194 C 
HETATM    9  C6  UNL     1      20.041   0.902  52.156  1.00  0.00     0.023 C 
HETATM   10  C7  UNL     1      19.206  -0.085  52.417  1.00  0.00     0.045 C 
HETATM   11  C15 UNL     1      19.256  -1.226  53.314  1.00  0.00     0.075 C 
HETATM   12  C16 UNL     1      18.154  -2.146  53.410  1.00  0.00     0.099 C 
HETATM   13  C17 UNL     1      20.422  -1.295  54.008  1.00  0.00     0.184 C 
HETATM   14  N3  UNL     1      17.269  -2.897  53.506  1.00  0.00    -0.192 NA
HETATM   15  N4  UNL     1      21.396  -1.782  54.915  1.00  0.00    -0.272 NA
HETATM   16  C18 UNL     1      22.416  -1.056  55.055  1.00  0.00     0.113 C 
HETATM   17  C19 UNL     1      23.017  -0.776  53.939  1.00  0.00     0.094 C 
BRANCH  10  18
HETATM   18  N2  UNL     1      18.073  -0.150  51.520  1.00  0.00    -0.385 N 
HETATM   19  H7  UNL     1      17.832  -1.016  51.023  1.00  0.00     0.160 HD
BRANCH  18  20
HETATM   20  C8  UNL     1      17.472   1.152  51.526  1.00  0.00     0.158 C 
BRANCH  20  21
HETATM   21  C9  UNL     1      16.106   1.197  52.087  1.00  0.00    -0.039 A 
HETATM   22  C10 UNL     1      15.367   0.048  52.304  1.00  0.00     0.009 A 
HETATM   23  C11 UNL     1      14.096   0.094  52.826  1.00  0.00     0.002 A 
HETATM   24  C12 UNL     1      13.501   1.305  53.157  1.00  0.00     0.019 A 
HETATM   25  C13 UNL     1      14.250   2.464  52.937  1.00  0.00     0.011 A 
HETATM   26 BR1  UNL     1      13.462   4.116  53.381  1.00  0.00    -0.051 Br
HETATM   27  C14 UNL     1      15.524   2.398  52.413  1.00  0.00     0.027 A 
ENDBRANCH  20  21
ENDBRANCH  18  20
ENDBRANCH  10  18
BRANCH  17  28
HETATM   28  O2  UNL     1      24.159  -0.877  54.707  1.00  0.00    -0.356 OA
HETATM   29  C20 UNL     1      25.458  -0.541  54.342  1.00  0.00     0.209 C 
ENDBRANCH  17  28
ENDBRANCH   3   4
TORSDOF 5
ENDMDL
