MODEL 1
REMARK VINA RESULT:      -8.6      0.000      0.000
REMARK  5 active torsions:
REMARK  status: ('A' for Active; 'I' for Inactive)
REMARK    1  A    between atoms: C2_2  and  C3_3 
REMARK    2  A    between atoms: C2_2  and  C5_7 
REMARK    3  A    between atoms: C3_3  and  N1_4 
REMARK    4  A    between atoms: N1_4  and  O1_6 
REMARK    5  A    between atoms: C5_7  and  C7_9 
ROOT
HETATM    1  C7  UNL     1      25.804   0.479  52.425  1.00  0.00    -0.069 C 
HETATM    2  C8  UNL     1      24.613   0.214  52.935  1.00  0.00     0.015 C 
HETATM    3  C9  UNL     1      23.283   0.063  53.457  1.00  0.00    -0.028 A 
HETATM    4  C10 UNL     1      22.936  -0.880  54.401  1.00  0.00     0.012 A 
HETATM    5  C11 UNL     1      21.648  -1.011  54.865  1.00  0.00     0.001 A 
HETATM    6  C12 UNL     1      20.760  -0.134  54.311  1.00  0.00     0.001 A 
HETATM    7  C13 UNL     1      20.945   0.846  53.377  1.00  0.00     0.010 A 
HETATM    8  C14 UNL     1      22.240   0.883  52.999  1.00  0.00    -0.021 A 
HETATM    9  C15 UNL     1      22.755   1.916  52.020  1.00  0.00     0.249 C 
HETATM   10  O2  UNL     1      23.788   1.380  51.311  1.00  0.00    -0.236 OA
HETATM   11  O3  UNL     1      24.362   2.293  50.582  1.00  0.00    -0.240 OA
HETATM   12  C16 UNL     1      25.328   2.817  51.519  1.00  0.00     0.214 C 
HETATM   13  C17 UNL     1      26.314   1.706  51.732  1.00  0.00     0.064 C 
ENDROOT
BRANCH   1  14
HETATM   14  C5  UNL     1      27.034  -0.412  52.290  1.00  0.00     0.040 C 
HETATM   15  C6  UNL     1      26.600  -1.862  52.426  1.00  0.00     0.019 C 
BRANCH  14  16
HETATM   16  C2  UNL     1      27.915  -0.170  53.478  1.00  0.00    -0.066 C 
HETATM   17  C1  UNL     1      28.620  -1.285  53.190  1.00  0.00     0.016 C 
BRANCH  16  18
HETATM   18  C3  UNL     1      28.393   0.538  54.680  1.00  0.00     0.154 C 
BRANCH  18  19
HETATM   19  N1  UNL     1      29.350   1.588  54.411  1.00  0.00    -0.200 NA
HETATM   20  C4  UNL     1      28.788   2.615  53.564  1.00  0.00     0.143 C 
BRANCH  19  21
HETATM   21  O1  UNL     1      29.696   2.219  55.574  1.00  0.00    -0.313 OA
HETATM   22  H8  UNL     1      29.147   1.779  56.293  1.00  0.00     0.237 HD
ENDBRANCH  19  21
ENDBRANCH  18  19
ENDBRANCH  16  18
ENDBRANCH  14  16
ENDBRANCH   1  14
TORSDOF 5
ENDMDL
MODEL 2
REMARK VINA RESULT:      -8.1      2.325      3.875
REMARK  5 active torsions:
REMARK  status: ('A' for Active; 'I' for Inactive)
REMARK    1  A    between atoms: C2_2  and  C3_3 
REMARK    2  A    between atoms: C2_2  and  C5_7 
REMARK    3  A    between atoms: C3_3  and  N1_4 
REMARK    4  A    between atoms: N1_4  and  O1_6 
REMARK    5  A    between atoms: C5_7  and  C7_9 
ROOT
HETATM    1  C7  UNL     1      23.721   0.292  53.230  1.00  0.00    -0.069 C 
HETATM    2  C8  UNL     1      22.760   0.520  52.351  1.00  0.00     0.015 C 
HETATM    3  C9  UNL     1      21.639   0.663  51.463  1.00  0.00    -0.028 A 
HETATM    4  C10 UNL     1      21.736   1.181  50.189  1.00  0.00     0.012 A 
HETATM    5  C11 UNL     1      20.639   1.324  49.372  1.00  0.00     0.001 A 
HETATM    6  C12 UNL     1      19.465   0.911  49.932  1.00  0.00     0.001 A 
HETATM    7  C13 UNL     1      19.206   0.382  51.165  1.00  0.00     0.010 A 
HETATM    8  C14 UNL     1      20.351   0.288  51.874  1.00  0.00    -0.021 A 
HETATM    9  C15 UNL     1      20.382  -0.325  53.258  1.00  0.00     0.249 C 
HETATM   10  O2  UNL     1      21.366   0.274  53.987  1.00  0.00    -0.236 OA
HETATM   11  O3  UNL     1      21.532  -0.343  55.120  1.00  0.00    -0.240 OA
HETATM   12  C16 UNL     1      22.487  -1.357  54.738  1.00  0.00     0.214 C 
HETATM   13  C17 UNL     1      23.751  -0.610  54.426  1.00  0.00     0.064 C 
ENDROOT
BRANCH   1  14
HETATM   14  C5  UNL     1      25.092   0.942  53.375  1.00  0.00     0.040 C 
HETATM   15  C6  UNL     1      25.142   2.173  52.485  1.00  0.00     0.019 C 
BRANCH  14  16
HETATM   16  C2  UNL     1      26.111   0.013  52.789  1.00  0.00    -0.066 C 
HETATM   17  C1  UNL     1      26.349   0.893  51.793  1.00  0.00     0.016 C 
BRANCH  16  18
HETATM   18  C3  UNL     1      26.918  -1.217  52.697  1.00  0.00     0.154 C 
BRANCH  18  19
HETATM   19  N1  UNL     1      27.897  -1.368  53.751  1.00  0.00    -0.200 NA
HETATM   20  C4  UNL     1      29.217  -0.980  53.309  1.00  0.00     0.143 C 
BRANCH  19  21
HETATM   21  O1  UNL     1      27.598  -0.534  54.793  1.00  0.00    -0.313 OA
HETATM   22  H8  UNL     1      26.780  -0.026  54.506  1.00  0.00     0.237 HD
ENDBRANCH  19  21
ENDBRANCH  18  19
ENDBRANCH  16  18
ENDBRANCH  14  16
ENDBRANCH   1  14
TORSDOF 5
ENDMDL
MODEL 3
REMARK VINA RESULT:      -8.1      1.674      2.383
REMARK  5 active torsions:
REMARK  status: ('A' for Active; 'I' for Inactive)
REMARK    1  A    between atoms: C2_2  and  C3_3 
REMARK    2  A    between atoms: C2_2  and  C5_7 
REMARK    3  A    between atoms: C3_3  and  N1_4 
REMARK    4  A    between atoms: N1_4  and  O1_6 
REMARK    5  A    between atoms: C5_7  and  C7_9 
ROOT
HETATM    1  C7  UNL     1      24.398   2.164  52.763  1.00  0.00    -0.069 C 
HETATM    2  C8  UNL     1      23.565   1.204  53.126  1.00  0.00     0.015 C 
HETATM    3  C9  UNL     1      22.553   0.259  53.510  1.00  0.00    -0.028 A 
HETATM    4  C10 UNL     1      22.809  -0.876  54.248  1.00  0.00     0.012 A 
HETATM    5  C11 UNL     1      21.820  -1.772  54.582  1.00  0.00     0.001 A 
HETATM    6  C12 UNL     1      20.580  -1.436  54.118  1.00  0.00     0.001 A 
HETATM    7  C13 UNL     1      20.168  -0.360  53.384  1.00  0.00     0.010 A 
HETATM    8  C14 UNL     1      21.218   0.446  53.120  1.00  0.00    -0.021 A 
HETATM    9  C15 UNL     1      21.050   1.753  52.375  1.00  0.00     0.249 C 
HETATM   10  O2  UNL     1      22.186   2.010  51.666  1.00  0.00    -0.236 OA
HETATM   11  O3  UNL     1      22.143   3.204  51.152  1.00  0.00    -0.240 OA
HETATM   12  C16 UNL     1      22.689   3.985  52.237  1.00  0.00     0.214 C 
HETATM   13  C17 UNL     1      24.129   3.574  52.333  1.00  0.00     0.064 C 
ENDROOT
BRANCH   1  14
HETATM   14  C5  UNL     1      25.911   2.131  52.573  1.00  0.00     0.040 C 
HETATM   15  C6  UNL     1      26.224   2.442  51.119  1.00  0.00     0.019 C 
BRANCH  14  16
HETATM   16  C2  UNL     1      26.371   0.718  52.764  1.00  0.00    -0.066 C 
HETATM   17  C1  UNL     1      26.746   0.660  51.467  1.00  0.00     0.016 C 
BRANCH  16  18
HETATM   18  C3  UNL     1      26.615  -0.532  53.506  1.00  0.00     0.154 C 
BRANCH  18  19
HETATM   19  N1  UNL     1      27.222  -0.344  54.805  1.00  0.00    -0.200 NA
HETATM   20  C4  UNL     1      28.589   0.109  54.692  1.00  0.00     0.143 C 
BRANCH  19  21
HETATM   21  O1  UNL     1      26.566   0.637  55.494  1.00  0.00    -0.313 OA
HETATM   22  H8  UNL     1      27.247   1.361  55.647  1.00  0.00     0.237 HD
ENDBRANCH  19  21
ENDBRANCH  18  19
ENDBRANCH  16  18
ENDBRANCH  14  16
ENDBRANCH   1  14
TORSDOF 5
ENDMDL
MODEL 4
REMARK VINA RESULT:      -7.9      2.516      4.448
REMARK  5 active torsions:
REMARK  status: ('A' for Active; 'I' for Inactive)
REMARK    1  A    between atoms: C2_2  and  C3_3 
REMARK    2  A    between atoms: C2_2  and  C5_7 
REMARK    3  A    between atoms: C3_3  and  N1_4 
REMARK    4  A    between atoms: N1_4  and  O1_6 
REMARK    5  A    between atoms: C5_7  and  C7_9 
ROOT
HETATM    1  C7  UNL     1      25.529   0.810  52.117  1.00  0.00    -0.069 C 
HETATM    2  C8  UNL     1      24.373   0.422  52.629  1.00  0.00     0.015 C 
HETATM    3  C9  UNL     1      23.191  -0.111  53.248  1.00  0.00    -0.028 A 
HETATM    4  C10 UNL     1      21.915   0.120  52.780  1.00  0.00     0.012 A 
HETATM    5  C11 UNL     1      20.802  -0.388  53.409  1.00  0.00     0.001 A 
HETATM    6  C12 UNL     1      21.076  -1.129  54.522  1.00  0.00     0.001 A 
HETATM    7  C13 UNL     1      22.269  -1.445  55.107  1.00  0.00     0.010 A 
HETATM    8  C14 UNL     1      23.284  -0.898  54.406  1.00  0.00    -0.021 A 
HETATM    9  C15 UNL     1      24.731  -1.135  54.783  1.00  0.00     0.249 C 
HETATM   10  O2  UNL     1      25.465  -0.039  54.439  1.00  0.00    -0.236 OA
HETATM   11  O3  UNL     1      26.736  -0.275  54.593  1.00  0.00    -0.240 OA
HETATM   12  C16 UNL     1      27.061  -0.848  53.308  1.00  0.00     0.214 C 
HETATM   13  C17 UNL     1      26.914   0.278  52.325  1.00  0.00     0.064 C 
ENDROOT
BRANCH   1  14
HETATM   14  C5  UNL     1      25.852   1.992  51.209  1.00  0.00     0.040 C 
HETATM   15  C6  UNL     1      27.135   2.643  51.699  1.00  0.00     0.019 C 
BRANCH  14  16
HETATM   16  C2  UNL     1      24.797   3.036  51.413  1.00  0.00    -0.066 C 
HETATM   17  C1  UNL     1      24.747   3.255  50.081  1.00  0.00     0.016 C 
BRANCH  16  18
HETATM   18  C3  UNL     1      23.873   3.886  52.187  1.00  0.00     0.154 C 
BRANCH  18  19
HETATM   19  N1  UNL     1      23.600   5.172  51.583  1.00  0.00    -0.200 NA
HETATM   20  C4  UNL     1      22.182   5.445  51.537  1.00  0.00     0.143 C 
BRANCH  19  21
HETATM   21  O1  UNL     1      24.143   6.172  52.340  1.00  0.00    -0.313 OA
HETATM   22  H8  UNL     1      24.943   5.764  52.793  1.00  0.00     0.237 HD
ENDBRANCH  19  21
ENDBRANCH  18  19
ENDBRANCH  16  18
ENDBRANCH  14  16
ENDBRANCH   1  14
TORSDOF 5
ENDMDL
MODEL 5
REMARK VINA RESULT:      -7.7      2.493      5.202
REMARK  5 active torsions:
REMARK  status: ('A' for Active; 'I' for Inactive)
REMARK    1  A    between atoms: C2_2  and  C3_3 
REMARK    2  A    between atoms: C2_2  and  C5_7 
REMARK    3  A    between atoms: C3_3  and  N1_4 
REMARK    4  A    between atoms: N1_4  and  O1_6 
REMARK    5  A    between atoms: C5_7  and  C7_9 
ROOT
HETATM    1  C7  UNL     1      24.204   2.213  51.404  1.00  0.00    -0.069 C 
HETATM    2  C8  UNL     1      24.982   3.060  50.752  1.00  0.00     0.015 C 
HETATM    3  C9  UNL     1      25.710   4.067  50.030  1.00  0.00    -0.028 A 
HETATM    4  C10 UNL     1      26.863   3.812  49.318  1.00  0.00     0.012 A 
HETATM    5  C11 UNL     1      27.548   4.804  48.655  1.00  0.00     0.001 A 
HETATM    6  C12 UNL     1      26.988   6.043  48.768  1.00  0.00     0.001 A 
HETATM    7  C13 UNL     1      25.864   6.454  49.427  1.00  0.00     0.010 A 
HETATM    8  C14 UNL     1      25.278   5.402  50.035  1.00  0.00    -0.021 A 
HETATM    9  C15 UNL     1      23.973   5.545  50.791  1.00  0.00     0.249 C 
HETATM   10  O2  UNL     1      23.949   4.640  51.810  1.00  0.00    -0.236 OA
HETATM   11  O3  UNL     1      22.776   4.619  52.372  1.00  0.00    -0.240 OA
HETATM   12  C16 UNL     1      22.098   3.648  51.546  1.00  0.00     0.214 C 
HETATM   13  C17 UNL     1      22.775   2.340  51.837  1.00  0.00     0.064 C 
ENDROOT
BRANCH   1  14
HETATM   14  C5  UNL     1      24.528   0.854  52.014  1.00  0.00     0.040 C 
HETATM   15  C6  UNL     1      23.673   0.665  53.257  1.00  0.00     0.019 C 
BRANCH  14  16
HETATM   16  C2  UNL     1      25.934   0.900  52.528  1.00  0.00    -0.066 C 
HETATM   17  C1  UNL     1      25.479   0.813  53.797  1.00  0.00     0.016 C 
BRANCH  16  18
HETATM   18  C3  UNL     1      27.403   0.986  52.432  1.00  0.00     0.154 C 
BRANCH  18  19
HETATM   19  N1  UNL     1      28.017   1.829  53.434  1.00  0.00    -0.200 NA
HETATM   20  C4  UNL     1      29.140   1.172  54.063  1.00  0.00     0.143 C 
BRANCH  19  21
HETATM   21  O1  UNL     1      28.529   2.955  52.853  1.00  0.00    -0.313 OA
HETATM   22  H8  UNL     1      29.493   2.992  53.138  1.00  0.00     0.237 HD
ENDBRANCH  19  21
ENDBRANCH  18  19
ENDBRANCH  16  18
ENDBRANCH  14  16
ENDBRANCH   1  14
TORSDOF 5
ENDMDL
MODEL 6
REMARK VINA RESULT:      -7.6      2.939      5.823
REMARK  5 active torsions:
REMARK  status: ('A' for Active; 'I' for Inactive)
REMARK    1  A    between atoms: C2_2  and  C3_3 
REMARK    2  A    between atoms: C2_2  and  C5_7 
REMARK    3  A    between atoms: C3_3  and  N1_4 
REMARK    4  A    between atoms: N1_4  and  O1_6 
REMARK    5  A    between atoms: C5_7  and  C7_9 
ROOT
HETATM    1  C7  UNL     1      25.095   2.661  51.095  1.00  0.00    -0.069 C 
HETATM    2  C8  UNL     1      26.022   2.234  51.936  1.00  0.00     0.015 C 
HETATM    3  C9  UNL     1      26.920   1.731  52.939  1.00  0.00    -0.028 A 
HETATM    4  C10 UNL     1      28.233   2.135  53.059  1.00  0.00     0.012 A 
HETATM    5  C11 UNL     1      29.073   1.618  54.018  1.00  0.00     0.001 A 
HETATM    6  C12 UNL     1      28.493   0.682  54.825  1.00  0.00     0.001 A 
HETATM    7  C13 UNL     1      27.222   0.181  54.834  1.00  0.00     0.010 A 
HETATM    8  C14 UNL     1      26.493   0.760  53.857  1.00  0.00    -0.021 A 
HETATM    9  C15 UNL     1      25.024   0.448  53.669  1.00  0.00     0.249 C 
HETATM   10  O2  UNL     1      24.711   0.563  52.347  1.00  0.00    -0.236 OA
HETATM   11  O3  UNL     1      23.425   0.468  52.173  1.00  0.00    -0.240 OA
HETATM   12  C16 UNL     1      23.027   1.845  52.348  1.00  0.00     0.214 C 
HETATM   13  C17 UNL     1      23.602   2.574  51.168  1.00  0.00     0.064 C 
ENDROOT
BRANCH   1  14
HETATM   14  C5  UNL     1      25.239   3.309  49.723  1.00  0.00     0.040 C 
HETATM   15  C6  UNL     1      26.715   3.350  49.359  1.00  0.00     0.019 C 
BRANCH  14  16
HETATM   16  C2  UNL     1      24.842   4.748  49.844  1.00  0.00    -0.066 C 
HETATM   17  C1  UNL     1      25.996   5.123  49.251  1.00  0.00     0.016 C 
BRANCH  16  18
HETATM   18  C3  UNL     1      23.976   5.880  50.222  1.00  0.00     0.154 C 
BRANCH  18  19
HETATM   19  N1  UNL     1      24.658   6.939  50.935  1.00  0.00    -0.200 NA
HETATM   20  C4  UNL     1      24.185   8.242  50.528  1.00  0.00     0.143 C 
BRANCH  19  21
HETATM   21  O1  UNL     1      24.392   6.852  52.273  1.00  0.00    -0.313 OA
HETATM   22  H8  UNL     1      23.926   5.970  52.399  1.00  0.00     0.237 HD
ENDBRANCH  19  21
ENDBRANCH  18  19
ENDBRANCH  16  18
ENDBRANCH  14  16
ENDBRANCH   1  14
TORSDOF 5
ENDMDL
MODEL 7
REMARK VINA RESULT:      -7.5      2.785      5.299
REMARK  5 active torsions:
REMARK  status: ('A' for Active; 'I' for Inactive)
REMARK    1  A    between atoms: C2_2  and  C3_3 
REMARK    2  A    between atoms: C2_2  and  C5_7 
REMARK    3  A    between atoms: C3_3  and  N1_4 
REMARK    4  A    between atoms: N1_4  and  O1_6 
REMARK    5  A    between atoms: C5_7  and  C7_9 
ROOT
HETATM    1  C7  UNL     1      24.763   1.964  51.728  1.00  0.00    -0.069 C 
HETATM    2  C8  UNL     1      23.838   1.318  52.418  1.00  0.00     0.015 C 
HETATM    3  C9  UNL     1      22.930   0.508  53.182  1.00  0.00    -0.028 A 
HETATM    4  C10 UNL     1      21.559   0.635  53.123  1.00  0.00     0.012 A 
HETATM    5  C11 UNL     1      20.718  -0.143  53.884  1.00  0.00     0.001 A 
HETATM    6  C12 UNL     1      21.360  -1.037  54.692  1.00  0.00     0.001 A 
HETATM    7  C13 UNL     1      22.692  -1.282  54.863  1.00  0.00     0.010 A 
HETATM    8  C14 UNL     1      23.416  -0.466  54.068  1.00  0.00    -0.021 A 
HETATM    9  C15 UNL     1      24.926  -0.556  53.998  1.00  0.00     0.249 C 
HETATM   10  O2  UNL     1      25.433   0.681  53.735  1.00  0.00    -0.236 OA
HETATM   11  O3  UNL     1      26.710   0.609  53.499  1.00  0.00    -0.240 OA
HETATM   12  C16 UNL     1      26.709   0.350  52.079  1.00  0.00     0.214 C 
HETATM   13  C17 UNL     1      26.192   1.611  51.448  1.00  0.00     0.064 C 
ENDROOT
BRANCH   1  14
HETATM   14  C5  UNL     1      24.711   3.333  51.060  1.00  0.00     0.040 C 
HETATM   15  C6  UNL     1      23.816   4.243  51.887  1.00  0.00     0.019 C 
BRANCH  14  16
HETATM   16  C2  UNL     1      23.991   3.185  49.754  1.00  0.00    -0.066 C 
HETATM   17  C1  UNL     1      24.458   4.388  49.354  1.00  0.00     0.016 C 
BRANCH  16  18
HETATM   18  C3  UNL     1      23.132   2.523  48.756  1.00  0.00     0.154 C 
BRANCH  18  19
HETATM   19  N1  UNL     1      22.104   1.678  49.322  1.00  0.00    -0.200 NA
HETATM   20  C4  UNL     1      21.021   2.458  49.877  1.00  0.00     0.143 C 
BRANCH  19  21
HETATM   21  O1  UNL     1      21.538   0.906  48.346  1.00  0.00    -0.313 OA
HETATM   22  H8  UNL     1      20.601   0.718  48.661  1.00  0.00     0.237 HD
ENDBRANCH  19  21
ENDBRANCH  18  19
ENDBRANCH  16  18
ENDBRANCH  14  16
ENDBRANCH   1  14
TORSDOF 5
ENDMDL
MODEL 8
REMARK VINA RESULT:      -7.5      2.775      5.958
REMARK  5 active torsions:
REMARK  status: ('A' for Active; 'I' for Inactive)
REMARK    1  A    between atoms: C2_2  and  C3_3 
REMARK    2  A    between atoms: C2_2  and  C5_7 
REMARK    3  A    between atoms: C3_3  and  N1_4 
REMARK    4  A    between atoms: N1_4  and  O1_6 
REMARK    5  A    between atoms: C5_7  and  C7_9 
ROOT
HETATM    1  C7  UNL     1      21.761   1.410  52.576  1.00  0.00    -0.069 C 
HETATM    2  C8  UNL     1      23.047   1.116  52.496  1.00  0.00     0.015 C 
HETATM    3  C9  UNL     1      24.430   0.726  52.537  1.00  0.00    -0.028 A 
HETATM    4  C10 UNL     1      25.431   1.396  51.867  1.00  0.00     0.012 A 
HETATM    5  C11 UNL     1      26.743   0.984  51.910  1.00  0.00     0.001 A 
HETATM    6  C12 UNL     1      26.955  -0.133  52.666  1.00  0.00     0.001 A 
HETATM    7  C13 UNL     1      26.081  -0.901  53.382  1.00  0.00     0.010 A 
HETATM    8  C14 UNL     1      24.832  -0.402  53.268  1.00  0.00    -0.021 A 
HETATM    9  C15 UNL     1      23.661  -1.011  54.010  1.00  0.00     0.249 C 
HETATM   10  O2  UNL     1      22.528  -0.836  53.272  1.00  0.00    -0.236 OA
HETATM   11  O3  UNL     1      21.480  -1.195  53.954  1.00  0.00    -0.240 OA
HETATM   12  C16 UNL     1      21.174   0.036  54.645  1.00  0.00     0.214 C 
HETATM   13  C17 UNL     1      20.727   0.988  53.575  1.00  0.00     0.064 C 
ENDROOT
BRANCH   1  14
HETATM   14  C5  UNL     1      20.876   2.208  51.625  1.00  0.00     0.040 C 
HETATM   15  C6  UNL     1      21.346   1.957  50.201  1.00  0.00     0.019 C 
BRANCH  14  16
HETATM   16  C2  UNL     1      21.140   3.664  51.857  1.00  0.00    -0.066 C 
HETATM   17  C1  UNL     1      19.891   3.963  51.437  1.00  0.00     0.016 C 
BRANCH  16  18
HETATM   18  C3  UNL     1      21.931   4.846  52.245  1.00  0.00     0.154 C 
BRANCH  18  19
HETATM   19  N1  UNL     1      23.352   4.600  52.358  1.00  0.00    -0.200 NA
HETATM   20  C4  UNL     1      24.021   4.764  51.088  1.00  0.00     0.143 C 
BRANCH  19  21
HETATM   21  O1  UNL     1      23.924   5.517  53.195  1.00  0.00    -0.313 OA
HETATM   22  H8  UNL     1      23.582   5.293  54.114  1.00  0.00     0.237 HD
ENDBRANCH  19  21
ENDBRANCH  18  19
ENDBRANCH  16  18
ENDBRANCH  14  16
ENDBRANCH   1  14
TORSDOF 5
ENDMDL
MODEL 9
REMARK VINA RESULT:      -7.3      3.257      5.310
REMARK  5 active torsions:
REMARK  status: ('A' for Active; 'I' for Inactive)
REMARK    1  A    between atoms: C2_2  and  C3_3 
REMARK    2  A    between atoms: C2_2  and  C5_7 
REMARK    3  A    between atoms: C3_3  and  N1_4 
REMARK    4  A    between atoms: N1_4  and  O1_6 
REMARK    5  A    between atoms: C5_7  and  C7_9 
ROOT
HETATM    1  C7  UNL     1      25.009   2.596  50.589  1.00  0.00    -0.069 C 
HETATM    2  C8  UNL     1      24.034   1.901  51.148  1.00  0.00     0.015 C 
HETATM    3  C9  UNL     1      23.078   1.074  51.831  1.00  0.00    -0.028 A 
HETATM    4  C10 UNL     1      21.815   0.807  51.345  1.00  0.00     0.012 A 
HETATM    5  C11 UNL     1      20.915   0.028  52.034  1.00  0.00     0.001 A 
HETATM    6  C12 UNL     1      21.383  -0.448  53.225  1.00  0.00     0.001 A 
HETATM    7  C13 UNL     1      22.592  -0.276  53.838  1.00  0.00     0.010 A 
HETATM    8  C14 UNL     1      23.388   0.500  53.073  1.00  0.00    -0.021 A 
HETATM    9  C15 UNL     1      24.817   0.808  53.468  1.00  0.00     0.249 C 
HETATM   10  O2  UNL     1      25.152   2.042  52.995  1.00  0.00    -0.236 OA
HETATM   11  O3  UNL     1      26.422   2.267  53.169  1.00  0.00    -0.240 OA
HETATM   12  C16 UNL     1      26.965   1.697  51.959  1.00  0.00     0.214 C 
HETATM   13  C17 UNL     1      26.484   2.589  50.852  1.00  0.00     0.064 C 
ENDROOT
BRANCH   1  14
HETATM   14  C5  UNL     1      24.949   3.708  49.546  1.00  0.00     0.040 C 
HETATM   15  C6  UNL     1      26.270   4.460  49.563  1.00  0.00     0.019 C 
BRANCH  14  16
HETATM   16  C2  UNL     1      23.937   4.715  50.000  1.00  0.00    -0.066 C 
HETATM   17  C1  UNL     1      23.382   4.720  48.768  1.00  0.00     0.016 C 
BRANCH  16  18
HETATM   18  C3  UNL     1      23.273   5.625  50.951  1.00  0.00     0.154 C 
BRANCH  18  19
HETATM   19  N1  UNL     1      23.398   7.027  50.619  1.00  0.00    -0.200 NA
HETATM   20  C4  UNL     1      22.108   7.674  50.553  1.00  0.00     0.143 C 
BRANCH  19  21
HETATM   21  O1  UNL     1      24.088   7.684  51.600  1.00  0.00    -0.313 OA
HETATM   22  H8  UNL     1      24.771   8.245  51.121  1.00  0.00     0.237 HD
ENDBRANCH  19  21
ENDBRANCH  18  19
ENDBRANCH  16  18
ENDBRANCH  14  16
ENDBRANCH   1  14
TORSDOF 5
ENDMDL
