MODEL 1
REMARK VINA RESULT:      -8.5      0.000      0.000
REMARK  8 active torsions:
REMARK  status: ('A' for Active; 'I' for Inactive)
REMARK    1  A    between atoms: C2_2  and  C3_3 
REMARK    2  A    between atoms: C4_4  and  C5_5 
REMARK    3  A    between atoms: C4_4  and  N1_11 
REMARK    4  A    between atoms: C6_6  and  C7_7 
REMARK       I    between atoms: N1_11  and  C8_12 
REMARK       I    between atoms: C8_12  and  N2_14 
REMARK    5  A    between atoms: N2_14  and  C9_15 
REMARK    6  A    between atoms: C10_16  and  C11_17 
REMARK    7  A    between atoms: C12_18  and  O2_19 
REMARK    8  A    between atoms: O2_19  and  C13_20 
ROOT
HETATM    1  N1  UNL     1      25.697   1.727  52.974  1.00  0.00    -0.309 N 
HETATM    2  C8  UNL     1      25.129   2.377  51.850  1.00  0.00     0.324 C 
HETATM    3  O1  UNL     1      24.528   1.922  50.820  1.00  0.00    -0.247 OA
HETATM    4  N2  UNL     1      25.181   3.793  51.751  1.00  0.00    -0.319 N 
HETATM    5  H7  UNL     1      26.134   2.326  53.693  1.00  0.00     0.170 HD
HETATM    6  H8  UNL     1      25.632   4.417  52.481  1.00  0.00     0.170 HD
ENDROOT
BRANCH   4   7
HETATM    7  C9  UNL     1      24.632   4.517  50.659  1.00  0.00     0.093 C 
HETATM    8  C10 UNL     1      25.172   4.729  49.475  1.00  0.00     0.019 C 
BRANCH   8   9
HETATM    9  C11 UNL     1      26.482   4.188  49.182  1.00  0.00     0.026 C 
HETATM   10  C12 UNL     1      27.492   4.862  48.694  1.00  0.00     0.144 C 
BRANCH  10  11
HETATM   11  O2  UNL     1      28.199   5.936  48.208  1.00  0.00    -0.302 OA
BRANCH  11  12
HETATM   12  C13 UNL     1      29.567   5.985  48.199  1.00  0.00     0.200 A 
HETATM   13  N3  UNL     1      30.454   5.047  47.899  1.00  0.00    -0.215 NA
HETATM   14  C14 UNL     1      31.784   5.234  47.933  1.00  0.00     0.236 A 
HETATM   15  N4  UNL     1      32.312   6.429  48.285  1.00  0.00    -0.240 NA
HETATM   16  C15 UNL     1      31.453   7.441  48.605  1.00  0.00     0.090 A 
HETATM   17  C16 UNL     1      31.738   8.734  48.991  1.00  0.00     0.051 A 
HETATM   18  C19 UNL     1      30.071   7.231  48.567  1.00  0.00     0.117 A 
HETATM   19  C17 UNL     1      30.483   9.274  49.177  1.00  0.00     0.093 A 
HETATM   20  N5  UNL     1      29.495   8.394  48.928  1.00  0.00    -0.356 N 
HETATM   21  C18 UNL     1      28.067   8.660  49.034  1.00  0.00     0.156 C 
ENDBRANCH  11  12
ENDBRANCH  10  11
ENDBRANCH   8   9
ENDBRANCH   4   7
BRANCH   1  22
HETATM   22  C4  UNL     1      25.700   0.319  53.167  1.00  0.00     0.036 C 
HETATM   23  C3  UNL     1      26.593  -0.401  52.508  1.00  0.00     0.025 C 
BRANCH  23  24
HETATM   24  C2  UNL     1      26.701  -1.850  52.616  1.00  0.00    -0.024 C 
HETATM   25  C1  UNL     1      27.780  -2.603  52.752  1.00  0.00     0.031 C 
ENDBRANCH  23  24
BRANCH  22  26
HETATM   26  C5  UNL     1      24.755  -0.329  54.059  1.00  0.00     0.034 C 
HETATM   27  C6  UNL     1      23.454  -0.441  53.764  1.00  0.00     0.091 C 
BRANCH  27  28
HETATM   28  C7  UNL     1      22.466  -1.090  54.640  1.00  0.00     0.408 C 
HETATM   29  F1  UNL     1      21.728  -2.021  53.918  1.00  0.00    -0.167 F 
HETATM   30  F2  UNL     1      21.587  -0.158  55.167  1.00  0.00    -0.167 F 
HETATM   31  F3  UNL     1      23.078  -1.696  55.727  1.00  0.00    -0.167 F 
ENDBRANCH  27  28
ENDBRANCH  22  26
ENDBRANCH   1  22
TORSDOF 8
ENDMDL
MODEL 2
REMARK VINA RESULT:      -8.4      4.274      6.639
REMARK  8 active torsions:
REMARK  status: ('A' for Active; 'I' for Inactive)
REMARK    1  A    between atoms: C2_2  and  C3_3 
REMARK    2  A    between atoms: C4_4  and  C5_5 
REMARK    3  A    between atoms: C4_4  and  N1_11 
REMARK    4  A    between atoms: C6_6  and  C7_7 
REMARK       I    between atoms: N1_11  and  C8_12 
REMARK       I    between atoms: C8_12  and  N2_14 
REMARK    5  A    between atoms: N2_14  and  C9_15 
REMARK    6  A    between atoms: C10_16  and  C11_17 
REMARK    7  A    between atoms: C12_18  and  O2_19 
REMARK    8  A    between atoms: O2_19  and  C13_20 
ROOT
HETATM    1  N1  UNL     1      21.899   1.388  49.972  1.00  0.00    -0.309 N 
HETATM    2  C8  UNL     1      22.608   2.553  50.362  1.00  0.00     0.324 C 
HETATM    3  O1  UNL     1      22.573   3.251  51.428  1.00  0.00    -0.247 OA
HETATM    4  N2  UNL     1      23.556   3.131  49.476  1.00  0.00    -0.319 N 
HETATM    5  H7  UNL     1      22.109   0.999  49.039  1.00  0.00     0.170 HD
HETATM    6  H8  UNL     1      23.776   2.742  48.514  1.00  0.00     0.170 HD
ENDROOT
BRANCH   4   7
HETATM    7  C9  UNL     1      24.308   4.294  49.793  1.00  0.00     0.093 C 
HETATM    8  C10 UNL     1      25.605   4.386  50.012  1.00  0.00     0.019 C 
BRANCH   8   9
HETATM    9  C11 UNL     1      26.426   3.196  49.938  1.00  0.00     0.026 C 
HETATM   10  C12 UNL     1      26.562   2.304  50.887  1.00  0.00     0.144 C 
BRANCH  10  11
HETATM   11  O2  UNL     1      26.383   1.696  52.106  1.00  0.00    -0.302 OA
BRANCH  11  12
HETATM   12  C13 UNL     1      26.731   0.394  52.346  1.00  0.00     0.200 A 
HETATM   13  N3  UNL     1      26.114  -0.731  52.013  1.00  0.00    -0.215 NA
HETATM   14  C14 UNL     1      26.574  -1.956  52.318  1.00  0.00     0.236 A 
HETATM   15  N4  UNL     1      27.729  -2.118  53.004  1.00  0.00    -0.240 NA
HETATM   16  C15 UNL     1      28.415  -0.999  53.377  1.00  0.00     0.090 A 
HETATM   17  C16 UNL     1      29.601  -0.899  54.074  1.00  0.00     0.051 A 
HETATM   18  C19 UNL     1      27.925   0.270  53.054  1.00  0.00     0.117 A 
HETATM   19  C17 UNL     1      29.790   0.465  54.149  1.00  0.00     0.093 A 
HETATM   20  N5  UNL     1      28.806   1.160  53.549  1.00  0.00    -0.356 N 
HETATM   21  C18 UNL     1      28.719   2.612  53.457  1.00  0.00     0.156 C 
ENDBRANCH  11  12
ENDBRANCH  10  11
ENDBRANCH   8   9
ENDBRANCH   4   7
BRANCH   1  22
HETATM   22  C4  UNL     1      20.930   0.735  50.781  1.00  0.00     0.036 C 
HETATM   23  C3  UNL     1      19.652   0.992  50.557  1.00  0.00     0.025 C 
BRANCH  23  24
HETATM   24  C2  UNL     1      18.562   0.391  51.315  1.00  0.00    -0.024 C 
HETATM   25  C1  UNL     1      17.472  -0.216  50.878  1.00  0.00     0.031 C 
ENDBRANCH  23  24
BRANCH  22  26
HETATM   26  C5  UNL     1      21.315  -0.193  51.829  1.00  0.00     0.034 C 
HETATM   27  C6  UNL     1      21.894   0.211  52.967  1.00  0.00     0.091 C 
BRANCH  27  28
HETATM   28  C7  UNL     1      22.298  -0.697  54.051  1.00  0.00     0.408 C 
HETATM   29  F1  UNL     1      23.678  -0.653  54.220  1.00  0.00    -0.167 F 
HETATM   30  F2  UNL     1      21.941  -2.003  53.761  1.00  0.00    -0.167 F 
HETATM   31  F3  UNL     1      21.657  -0.378  55.239  1.00  0.00    -0.167 F 
ENDBRANCH  27  28
ENDBRANCH  22  26
ENDBRANCH   1  22
TORSDOF 8
ENDMDL
MODEL 3
REMARK VINA RESULT:      -8.3      3.418      6.175
REMARK  8 active torsions:
REMARK  status: ('A' for Active; 'I' for Inactive)
REMARK    1  A    between atoms: C2_2  and  C3_3 
REMARK    2  A    between atoms: C4_4  and  C5_5 
REMARK    3  A    between atoms: C4_4  and  N1_11 
REMARK    4  A    between atoms: C6_6  and  C7_7 
REMARK       I    between atoms: N1_11  and  C8_12 
REMARK       I    between atoms: C8_12  and  N2_14 
REMARK    5  A    between atoms: N2_14  and  C9_15 
REMARK    6  A    between atoms: C10_16  and  C11_17 
REMARK    7  A    between atoms: C12_18  and  O2_19 
REMARK    8  A    between atoms: O2_19  and  C13_20 
ROOT
HETATM    1  N1  UNL     1      26.331   2.498  52.448  1.00  0.00    -0.309 N 
HETATM    2  C8  UNL     1      26.435   2.895  51.091  1.00  0.00     0.324 C 
HETATM    3  O1  UNL     1      26.796   2.260  50.045  1.00  0.00    -0.247 OA
HETATM    4  N2  UNL     1      26.101   4.224  50.717  1.00  0.00    -0.319 N 
HETATM    5  H7  UNL     1      26.006   3.208  53.123  1.00  0.00     0.170 HD
HETATM    6  H8  UNL     1      25.771   4.963  51.403  1.00  0.00     0.170 HD
ENDROOT
BRANCH   4   7
HETATM    7  C9  UNL     1      26.176   4.698  49.380  1.00  0.00     0.093 C 
HETATM    8  C10 UNL     1      26.084   5.943  48.956  1.00  0.00     0.019 C 
BRANCH   8   9
HETATM    9  C11 UNL     1      25.880   7.010  49.913  1.00  0.00     0.026 C 
HETATM   10  C12 UNL     1      24.763   7.257  50.550  1.00  0.00     0.144 C 
BRANCH  10  11
HETATM   11  O2  UNL     1      23.453   7.113  50.940  1.00  0.00    -0.302 OA
BRANCH  11  12
HETATM   12  C13 UNL     1      22.905   5.906  51.278  1.00  0.00     0.200 A 
HETATM   13  N3  UNL     1      23.405   4.910  51.996  1.00  0.00    -0.215 NA
HETATM   14  C14 UNL     1      22.748   3.768  52.253  1.00  0.00     0.236 A 
HETATM   15  N4  UNL     1      21.498   3.559  51.779  1.00  0.00    -0.240 NA
HETATM   16  C15 UNL     1      20.922   4.546  51.032  1.00  0.00     0.090 A 
HETATM   17  C16 UNL     1      19.675   4.575  50.443  1.00  0.00     0.051 A 
HETATM   18  C19 UNL     1      21.618   5.730  50.772  1.00  0.00     0.117 A 
HETATM   19  C17 UNL     1      19.662   5.811  49.832  1.00  0.00     0.093 A 
HETATM   20  N5  UNL     1      20.804   6.498  50.022  1.00  0.00    -0.356 N 
HETATM   21  C18 UNL     1      21.097   7.828  49.506  1.00  0.00     0.156 C 
ENDBRANCH  11  12
ENDBRANCH  10  11
ENDBRANCH   8   9
ENDBRANCH   4   7
BRANCH   1  22
HETATM   22  C4  UNL     1      26.643   1.196  52.926  1.00  0.00     0.036 C 
HETATM   23  C3  UNL     1      27.908   0.812  52.914  1.00  0.00     0.025 C 
BRANCH  23  24
HETATM   24  C2  UNL     1      28.360  -0.494  53.374  1.00  0.00    -0.024 C 
HETATM   25  C1  UNL     1      29.589  -0.923  53.608  1.00  0.00     0.031 C 
ENDBRANCH  23  24
BRANCH  22  26
HETATM   26  C5  UNL     1      25.612   0.299  53.416  1.00  0.00     0.034 C 
HETATM   27  C6  UNL     1      24.307   0.562  53.277  1.00  0.00     0.091 C 
BRANCH  27  28
HETATM   28  C7  UNL     1      23.233  -0.320  53.760  1.00  0.00     0.408 C 
HETATM   29  F1  UNL     1      22.114   0.432  54.097  1.00  0.00    -0.167 F 
HETATM   30  F2  UNL     1      23.638  -1.020  54.885  1.00  0.00    -0.167 F 
HETATM   31  F3  UNL     1      22.904  -1.277  52.811  1.00  0.00    -0.167 F 
ENDBRANCH  27  28
ENDBRANCH  22  26
ENDBRANCH   1  22
TORSDOF 8
ENDMDL
MODEL 4
REMARK VINA RESULT:      -8.3      2.119      3.072
REMARK  8 active torsions:
REMARK  status: ('A' for Active; 'I' for Inactive)
REMARK    1  A    between atoms: C2_2  and  C3_3 
REMARK    2  A    between atoms: C4_4  and  C5_5 
REMARK    3  A    between atoms: C4_4  and  N1_11 
REMARK    4  A    between atoms: C6_6  and  C7_7 
REMARK       I    between atoms: N1_11  and  C8_12 
REMARK       I    between atoms: C8_12  and  N2_14 
REMARK    5  A    between atoms: N2_14  and  C9_15 
REMARK    6  A    between atoms: C10_16  and  C11_17 
REMARK    7  A    between atoms: C12_18  and  O2_19 
REMARK    8  A    between atoms: O2_19  and  C13_20 
ROOT
HETATM    1  N1  UNL     1      23.933   1.434  51.244  1.00  0.00    -0.309 N 
HETATM    2  C8  UNL     1      24.170   2.829  51.153  1.00  0.00     0.324 C 
HETATM    3  O1  UNL     1      24.448   3.702  52.040  1.00  0.00    -0.247 OA
HETATM    4  N2  UNL     1      24.112   3.474  49.889  1.00  0.00    -0.319 N 
HETATM    5  H7  UNL     1      23.727   0.933  50.365  1.00  0.00     0.170 HD
HETATM    6  H8  UNL     1      23.896   2.969  48.981  1.00  0.00     0.170 HD
ENDROOT
BRANCH   4   7
HETATM    7  C9  UNL     1      24.340   4.865  49.714  1.00  0.00     0.093 C 
HETATM    8  C10 UNL     1      25.448   5.462  49.323  1.00  0.00     0.019 C 
BRANCH   8   9
HETATM    9  C11 UNL     1      26.617   4.664  49.016  1.00  0.00     0.026 C 
HETATM   10  C12 UNL     1      27.757   5.126  48.569  1.00  0.00     0.144 C 
BRANCH  10  11
HETATM   11  O2  UNL     1      28.687   6.042  48.139  1.00  0.00    -0.302 OA
BRANCH  11  12
HETATM   12  C13 UNL     1      30.030   5.782  48.108  1.00  0.00     0.200 A 
HETATM   13  N3  UNL     1      30.679   4.670  47.793  1.00  0.00    -0.215 NA
HETATM   14  C14 UNL     1      32.017   4.554  47.805  1.00  0.00     0.236 A 
HETATM   15  N4  UNL     1      32.806   5.597  48.149  1.00  0.00    -0.240 NA
HETATM   16  C15 UNL     1      32.201   6.775  48.484  1.00  0.00     0.090 A 
HETATM   17  C16 UNL     1      32.776   7.969  48.867  1.00  0.00     0.051 A 
HETATM   18  C19 UNL     1      30.807   6.882  48.468  1.00  0.00     0.117 A 
HETATM   19  C17 UNL     1      31.677   8.776  49.073  1.00  0.00     0.093 A 
HETATM   20  N5  UNL     1      30.513   8.143  48.840  1.00  0.00    -0.356 N 
HETATM   21  C18 UNL     1      29.183   8.723  48.968  1.00  0.00     0.156 C 
ENDBRANCH  11  12
ENDBRANCH  10  11
ENDBRANCH   8   9
ENDBRANCH   4   7
BRANCH   1  22
HETATM   22  C4  UNL     1      23.965   0.695  52.458  1.00  0.00     0.036 C 
HETATM   23  C3  UNL     1      22.831   0.185  52.909  1.00  0.00     0.025 C 
BRANCH  23  24
HETATM   24  C2  UNL     1      22.727  -0.590  54.138  1.00  0.00    -0.024 C 
HETATM   25  C1  UNL     1      21.677  -0.791  54.917  1.00  0.00     0.031 C 
ENDBRANCH  23  24
BRANCH  22  26
HETATM   26  C5  UNL     1      25.199   0.497  53.196  1.00  0.00     0.034 C 
HETATM   27  C6  UNL     1      26.268  -0.103  52.657  1.00  0.00     0.091 C 
BRANCH  27  28
HETATM   28  C7  UNL     1      27.535  -0.323  53.372  1.00  0.00     0.408 C 
HETATM   29  F1  UNL     1      28.479   0.614  52.965  1.00  0.00    -0.167 F 
HETATM   30  F2  UNL     1      28.039  -1.586  53.106  1.00  0.00    -0.167 F 
HETATM   31  F3  UNL     1      27.355  -0.262  54.745  1.00  0.00    -0.167 F 
ENDBRANCH  27  28
ENDBRANCH  22  26
ENDBRANCH   1  22
TORSDOF 8
ENDMDL
MODEL 5
REMARK VINA RESULT:      -8.3      3.062      4.527
REMARK  8 active torsions:
REMARK  status: ('A' for Active; 'I' for Inactive)
REMARK    1  A    between atoms: C2_2  and  C3_3 
REMARK    2  A    between atoms: C4_4  and  C5_5 
REMARK    3  A    between atoms: C4_4  and  N1_11 
REMARK    4  A    between atoms: C6_6  and  C7_7 
REMARK       I    between atoms: N1_11  and  C8_12 
REMARK       I    between atoms: C8_12  and  N2_14 
REMARK    5  A    between atoms: N2_14  and  C9_15 
REMARK    6  A    between atoms: C10_16  and  C11_17 
REMARK    7  A    between atoms: C12_18  and  O2_19 
REMARK    8  A    between atoms: O2_19  and  C13_20 
ROOT
HETATM    1  N1  UNL     1      25.635   3.199  52.102  1.00  0.00    -0.309 N 
HETATM    2  C8  UNL     1      26.262   3.385  50.844  1.00  0.00     0.324 C 
HETATM    3  O1  UNL     1      26.895   2.581  50.084  1.00  0.00    -0.247 OA
HETATM    4  N2  UNL     1      26.240   4.665  50.227  1.00  0.00    -0.319 N 
HETATM    5  H7  UNL     1      25.175   4.021  52.525  1.00  0.00     0.170 HD
HETATM    6  H8  UNL     1      25.776   5.517  50.656  1.00  0.00     0.170 HD
ENDROOT
BRANCH   4   7
HETATM    7  C9  UNL     1      26.843   4.931  48.968  1.00  0.00     0.093 C 
HETATM    8  C10 UNL     1      26.966   6.094  48.359  1.00  0.00     0.019 C 
BRANCH   8   9
HETATM    9  C11 UNL     1      26.446   7.288  48.991  1.00  0.00     0.026 C 
HETATM   10  C12 UNL     1      27.164   8.283  49.446  1.00  0.00     0.144 C 
BRANCH  10  11
HETATM   11  O2  UNL     1      28.284   9.020  49.747  1.00  0.00    -0.302 OA
BRANCH  11  12
HETATM   12  C13 UNL     1      28.532  10.253  49.208  1.00  0.00     0.200 A 
HETATM   13  N3  UNL     1      27.769  11.336  49.163  1.00  0.00    -0.215 NA
HETATM   14  C14 UNL     1      28.143  12.494  48.595  1.00  0.00     0.236 A 
HETATM   15  N4  UNL     1      29.359  12.628  48.017  1.00  0.00    -0.240 NA
HETATM   16  C15 UNL     1      30.196  11.549  48.029  1.00  0.00     0.090 A 
HETATM   17  C16 UNL     1      31.470  11.433  47.513  1.00  0.00     0.051 A 
HETATM   18  C19 UNL     1      29.794  10.350  48.623  1.00  0.00     0.117 A 
HETATM   19  C17 UNL     1      31.800  10.131  47.824  1.00  0.00     0.093 A 
HETATM   20  N5  UNL     1      30.817   9.486  48.479  1.00  0.00    -0.356 N 
HETATM   21  C18 UNL     1      30.861   8.106  48.942  1.00  0.00     0.156 C 
ENDBRANCH  11  12
ENDBRANCH  10  11
ENDBRANCH   8   9
ENDBRANCH   4   7
BRANCH   1  22
HETATM   22  C4  UNL     1      25.602   1.964  52.804  1.00  0.00     0.036 C 
HETATM   23  C3  UNL     1      24.560   1.169  52.622  1.00  0.00     0.025 C 
BRANCH  23  24
HETATM   24  C2  UNL     1      24.404  -0.121  53.282  1.00  0.00    -0.024 C 
HETATM   25  C1  UNL     1      23.297  -0.773  53.598  1.00  0.00     0.031 C 
ENDBRANCH  23  24
BRANCH  22  26
HETATM   26  C5  UNL     1      26.673   1.569  53.700  1.00  0.00     0.034 C 
HETATM   27  C6  UNL     1      27.863   1.149  53.253  1.00  0.00     0.091 C 
BRANCH  27  28
HETATM   28  C7  UNL     1      28.973   0.740  54.128  1.00  0.00     0.408 C 
HETATM   29  F1  UNL     1      29.917   0.027  53.398  1.00  0.00    -0.167 F 
HETATM   30  F2  UNL     1      28.519  -0.071  55.155  1.00  0.00    -0.167 F 
HETATM   31  F3  UNL     1      29.563   1.837  54.738  1.00  0.00    -0.167 F 
ENDBRANCH  27  28
ENDBRANCH  22  26
ENDBRANCH   1  22
TORSDOF 8
ENDMDL
MODEL 6
REMARK VINA RESULT:      -8.3      2.907      3.894
REMARK  8 active torsions:
REMARK  status: ('A' for Active; 'I' for Inactive)
REMARK    1  A    between atoms: C2_2  and  C3_3 
REMARK    2  A    between atoms: C4_4  and  C5_5 
REMARK    3  A    between atoms: C4_4  and  N1_11 
REMARK    4  A    between atoms: C6_6  and  C7_7 
REMARK       I    between atoms: N1_11  and  C8_12 
REMARK       I    between atoms: C8_12  and  N2_14 
REMARK    5  A    between atoms: N2_14  and  C9_15 
REMARK    6  A    between atoms: C10_16  and  C11_17 
REMARK    7  A    between atoms: C12_18  and  O2_19 
REMARK    8  A    between atoms: O2_19  and  C13_20 
ROOT
HETATM    1  N1  UNL     1      25.497   3.179  52.088  1.00  0.00    -0.309 N 
HETATM    2  C8  UNL     1      26.185   3.400  50.869  1.00  0.00     0.324 C 
HETATM    3  O1  UNL     1      26.935   2.643  50.168  1.00  0.00    -0.247 OA
HETATM    4  N2  UNL     1      26.091   4.662  50.223  1.00  0.00    -0.319 N 
HETATM    5  H7  UNL     1      24.940   3.964  52.464  1.00  0.00     0.170 HD
HETATM    6  H8  UNL     1      25.526   5.476  50.603  1.00  0.00     0.170 HD
ENDROOT
BRANCH   4   7
HETATM    7  C9  UNL     1      26.747   4.960  49.000  1.00  0.00     0.093 C 
HETATM    8  C10 UNL     1      27.002   6.147  48.486  1.00  0.00     0.019 C 
BRANCH   8   9
HETATM    9  C11 UNL     1      26.590   7.337  49.201  1.00  0.00     0.026 C 
HETATM   10  C12 UNL     1      27.346   8.377  49.447  1.00  0.00     0.144 C 
BRANCH  10  11
HETATM   11  O2  UNL     1      28.467   9.172  49.451  1.00  0.00    -0.302 OA
BRANCH  11  12
HETATM   12  C13 UNL     1      29.667   8.770  48.929  1.00  0.00     0.200 A 
HETATM   13  N3  UNL     1      30.203   7.561  48.848  1.00  0.00    -0.215 NA
HETATM   14  C14 UNL     1      31.404   7.308  48.304  1.00  0.00     0.236 A 
HETATM   15  N4  UNL     1      32.161   8.304  47.789  1.00  0.00    -0.240 NA
HETATM   16  C15 UNL     1      31.667   9.576  47.839  1.00  0.00     0.090 A 
HETATM   17  C16 UNL     1      32.238  10.748  47.389  1.00  0.00     0.051 A 
HETATM   18  C19 UNL     1      30.416   9.825  48.410  1.00  0.00     0.117 A 
HETATM   19  C17 UNL     1      31.283  11.689  47.713  1.00  0.00     0.093 A 
HETATM   20  N5  UNL     1      30.206  11.152  48.314  1.00  0.00    -0.356 N 
HETATM   21  C18 UNL     1      29.032  11.881  48.775  1.00  0.00     0.156 C 
ENDBRANCH  11  12
ENDBRANCH  10  11
ENDBRANCH   8   9
ENDBRANCH   4   7
BRANCH   1  22
HETATM   22  C4  UNL     1      25.527   1.958  52.814  1.00  0.00     0.036 C 
HETATM   23  C3  UNL     1      24.533   1.102  52.641  1.00  0.00     0.025 C 
BRANCH  23  24
HETATM   24  C2  UNL     1      24.444  -0.182  53.324  1.00  0.00    -0.024 C 
HETATM   25  C1  UNL     1      23.425  -0.717  53.975  1.00  0.00     0.031 C 
ENDBRANCH  23  24
BRANCH  22  26
HETATM   26  C5  UNL     1      26.612   1.641  53.726  1.00  0.00     0.034 C 
HETATM   27  C6  UNL     1      27.831   1.295  53.295  1.00  0.00     0.091 C 
BRANCH  27  28
HETATM   28  C7  UNL     1      28.955   0.967  54.186  1.00  0.00     0.408 C 
HETATM   29  F1  UNL     1      29.515   2.134  54.696  1.00  0.00    -0.167 F 
HETATM   30  F2  UNL     1      29.943   0.279  53.501  1.00  0.00    -0.167 F 
HETATM   31  F3  UNL     1      28.552   0.134  55.219  1.00  0.00    -0.167 F 
ENDBRANCH  27  28
ENDBRANCH  22  26
ENDBRANCH   1  22
TORSDOF 8
ENDMDL
MODEL 7
REMARK VINA RESULT:      -8.2      5.522      8.578
REMARK  8 active torsions:
REMARK  status: ('A' for Active; 'I' for Inactive)
REMARK    1  A    between atoms: C2_2  and  C3_3 
REMARK    2  A    between atoms: C4_4  and  C5_5 
REMARK    3  A    between atoms: C4_4  and  N1_11 
REMARK    4  A    between atoms: C6_6  and  C7_7 
REMARK       I    between atoms: N1_11  and  C8_12 
REMARK       I    between atoms: C8_12  and  N2_14 
REMARK    5  A    between atoms: N2_14  and  C9_15 
REMARK    6  A    between atoms: C10_16  and  C11_17 
REMARK    7  A    between atoms: C12_18  and  O2_19 
REMARK    8  A    between atoms: O2_19  and  C13_20 
ROOT
HETATM    1  N1  UNL     1      23.864   1.943  51.632  1.00  0.00    -0.309 N 
HETATM    2  C8  UNL     1      23.636   3.280  52.045  1.00  0.00     0.324 C 
HETATM    3  O1  UNL     1      23.977   3.913  53.099  1.00  0.00    -0.247 OA
HETATM    4  N2  UNL     1      22.904   4.163  51.207  1.00  0.00    -0.319 N 
HETATM    5  H7  UNL     1      23.481   1.662  50.715  1.00  0.00     0.170 HD
HETATM    6  H8  UNL     1      22.502   3.883  50.266  1.00  0.00     0.170 HD
ENDROOT
BRANCH   4   7
HETATM    7  C9  UNL     1      22.637   5.516  51.549  1.00  0.00     0.093 C 
HETATM    8  C10 UNL     1      21.735   6.321  51.021  1.00  0.00     0.019 C 
BRANCH   8   9
HETATM    9  C11 UNL     1      20.879   5.835  49.960  1.00  0.00     0.026 C 
HETATM   10  C12 UNL     1      19.845   5.047  50.117  1.00  0.00     0.144 C 
BRANCH  10  11
HETATM   11  O2  UNL     1      18.917   4.268  50.764  1.00  0.00    -0.302 OA
BRANCH  11  12
HETATM   12  C13 UNL     1      19.249   3.140  51.464  1.00  0.00     0.200 A 
HETATM   13  N3  UNL     1      20.116   2.972  52.453  1.00  0.00    -0.215 NA
HETATM   14  C14 UNL     1      20.344   1.794  53.057  1.00  0.00     0.236 A 
HETATM   15  N4  UNL     1      19.683   0.676  52.680  1.00  0.00    -0.240 NA
HETATM   16  C15 UNL     1      18.774   0.780  51.666  1.00  0.00     0.090 A 
HETATM   17  C16 UNL     1      17.981  -0.201  51.106  1.00  0.00     0.051 A 
HETATM   18  C19 UNL     1      18.546   2.011  51.046  1.00  0.00     0.117 A 
HETATM   19  C17 UNL     1      17.284   0.495  50.141  1.00  0.00     0.093 A 
HETATM   20  N5  UNL     1      17.611   1.799  50.100  1.00  0.00    -0.356 N 
HETATM   21  C18 UNL     1      17.051   2.793  49.194  1.00  0.00     0.156 C 
ENDBRANCH  11  12
ENDBRANCH  10  11
ENDBRANCH   8   9
ENDBRANCH   4   7
BRANCH   1  22
HETATM   22  C4  UNL     1      24.580   0.981  52.395  1.00  0.00     0.036 C 
HETATM   23  C3  UNL     1      25.804   0.662  52.009  1.00  0.00     0.025 C 
BRANCH  23  24
HETATM   24  C2  UNL     1      26.641  -0.309  52.701  1.00  0.00    -0.024 C 
HETATM   25  C1  UNL     1      26.779  -1.606  52.483  1.00  0.00     0.031 C 
ENDBRANCH  23  24
BRANCH  22  26
HETATM   26  C5  UNL     1      23.998   0.355  53.568  1.00  0.00     0.034 C 
HETATM   27  C6  UNL     1      23.026  -0.561  53.484  1.00  0.00     0.091 C 
BRANCH  27  28
HETATM   28  C7  UNL     1      22.411  -1.218  54.648  1.00  0.00     0.408 C 
HETATM   29  F1  UNL     1      21.660  -2.313  54.235  1.00  0.00    -0.167 F 
HETATM   30  F2  UNL     1      21.568  -0.346  55.318  1.00  0.00    -0.167 F 
HETATM   31  F3  UNL     1      23.370  -1.610  55.569  1.00  0.00    -0.167 F 
ENDBRANCH  27  28
ENDBRANCH  22  26
ENDBRANCH   1  22
TORSDOF 8
ENDMDL
MODEL 8
REMARK VINA RESULT:      -8.2      3.964      7.015
REMARK  8 active torsions:
REMARK  status: ('A' for Active; 'I' for Inactive)
REMARK    1  A    between atoms: C2_2  and  C3_3 
REMARK    2  A    between atoms: C4_4  and  C5_5 
REMARK    3  A    between atoms: C4_4  and  N1_11 
REMARK    4  A    between atoms: C6_6  and  C7_7 
REMARK       I    between atoms: N1_11  and  C8_12 
REMARK       I    between atoms: C8_12  and  N2_14 
REMARK    5  A    between atoms: N2_14  and  C9_15 
REMARK    6  A    between atoms: C10_16  and  C11_17 
REMARK    7  A    between atoms: C12_18  and  O2_19 
REMARK    8  A    between atoms: O2_19  and  C13_20 
ROOT
HETATM    1  N1  UNL     1      25.491   2.747  52.438  1.00  0.00    -0.309 N 
HETATM    2  C8  UNL     1      26.186   2.972  51.223  1.00  0.00     0.324 C 
HETATM    3  O1  UNL     1      26.850   2.187  50.467  1.00  0.00    -0.247 OA
HETATM    4  N2  UNL     1      26.212   4.273  50.654  1.00  0.00    -0.319 N 
HETATM    5  H7  UNL     1      25.018   3.559  52.867  1.00  0.00     0.170 HD
HETATM    6  H8  UNL     1      25.734   5.115  51.089  1.00  0.00     0.170 HD
ENDROOT
BRANCH   4   7
HETATM    7  C9  UNL     1      26.883   4.578  49.440  1.00  0.00     0.093 C 
HETATM    8  C10 UNL     1      26.527   5.446  48.514  1.00  0.00     0.019 C 
BRANCH   8   9
HETATM    9  C11 UNL     1      25.315   6.218  48.688  1.00  0.00     0.026 C 
HETATM   10  C12 UNL     1      24.106   5.725  48.789  1.00  0.00     0.144 C 
BRANCH  10  11
HETATM   11  O2  UNL     1      23.110   4.780  48.841  1.00  0.00    -0.302 OA
BRANCH  11  12
HETATM   12  C13 UNL     1      22.621   4.278  50.017  1.00  0.00     0.200 A 
HETATM   13  N3  UNL     1      22.540   4.834  51.217  1.00  0.00    -0.215 NA
HETATM   14  C14 UNL     1      22.030   4.218  52.296  1.00  0.00     0.236 A 
HETATM   15  N4  UNL     1      21.553   2.954  52.219  1.00  0.00    -0.240 NA
HETATM   16  C15 UNL     1      21.605   2.322  51.009  1.00  0.00     0.090 A 
HETATM   17  C16 UNL     1      21.189   1.051  50.675  1.00  0.00     0.051 A 
HETATM   18  C19 UNL     1      22.139   2.975  49.895  1.00  0.00     0.117 A 
HETATM   19  C17 UNL     1      21.495   0.979  49.332  1.00  0.00     0.093 A 
HETATM   20  N5  UNL     1      22.055   2.110  48.865  1.00  0.00    -0.356 N 
HETATM   21  C18 UNL     1      22.489   2.347  47.495  1.00  0.00     0.156 C 
ENDBRANCH  11  12
ENDBRANCH  10  11
ENDBRANCH   8   9
ENDBRANCH   4   7
BRANCH   1  22
HETATM   22  C4  UNL     1      25.406   1.487  53.090  1.00  0.00     0.036 C 
HETATM   23  C3  UNL     1      24.251   0.843  53.060  1.00  0.00     0.025 C 
BRANCH  23  24
HETATM   24  C2  UNL     1      24.032  -0.452  53.689  1.00  0.00    -0.024 C 
HETATM   25  C1  UNL     1      22.915  -0.975  54.168  1.00  0.00     0.031 C 
ENDBRANCH  23  24
BRANCH  22  26
HETATM   26  C5  UNL     1      26.547   0.908  53.776  1.00  0.00     0.034 C 
HETATM   27  C6  UNL     1      27.511   0.244  53.128  1.00  0.00     0.091 C 
BRANCH  27  28
HETATM   28  C7  UNL     1      28.682  -0.358  53.786  1.00  0.00     0.408 C 
HETATM   29  F1  UNL     1      28.593  -0.186  55.164  1.00  0.00    -0.167 F 
HETATM   30  F2  UNL     1      29.853   0.240  53.352  1.00  0.00    -0.167 F 
HETATM   31  F3  UNL     1      28.798  -1.704  53.474  1.00  0.00    -0.167 F 
ENDBRANCH  27  28
ENDBRANCH  22  26
ENDBRANCH   1  22
TORSDOF 8
ENDMDL
MODEL 9
REMARK VINA RESULT:      -8.2      3.674      6.524
REMARK  8 active torsions:
REMARK  status: ('A' for Active; 'I' for Inactive)
REMARK    1  A    between atoms: C2_2  and  C3_3 
REMARK    2  A    between atoms: C4_4  and  C5_5 
REMARK    3  A    between atoms: C4_4  and  N1_11 
REMARK    4  A    between atoms: C6_6  and  C7_7 
REMARK       I    between atoms: N1_11  and  C8_12 
REMARK       I    between atoms: C8_12  and  N2_14 
REMARK    5  A    between atoms: N2_14  and  C9_15 
REMARK    6  A    between atoms: C10_16  and  C11_17 
REMARK    7  A    between atoms: C12_18  and  O2_19 
REMARK    8  A    between atoms: O2_19  and  C13_20 
ROOT
HETATM    1  N1  UNL     1      26.271   2.448  52.506  1.00  0.00    -0.309 N 
HETATM    2  C8  UNL     1      26.380   2.851  51.151  1.00  0.00     0.324 C 
HETATM    3  O1  UNL     1      26.787   2.235  50.111  1.00  0.00    -0.247 OA
HETATM    4  N2  UNL     1      25.991   4.164  50.772  1.00  0.00    -0.319 N 
HETATM    5  H7  UNL     1      25.903   3.142  53.176  1.00  0.00     0.170 HD
HETATM    6  H8  UNL     1      25.616   4.886  51.453  1.00  0.00     0.170 HD
ENDROOT
BRANCH   4   7
HETATM    7  C9  UNL     1      26.067   4.643  49.437  1.00  0.00     0.093 C 
HETATM    8  C10 UNL     1      25.351   5.598  48.877  1.00  0.00     0.019 C 
BRANCH   8   9
HETATM    9  C11 UNL     1      24.345   6.286  49.658  1.00  0.00     0.026 C 
HETATM   10  C12 UNL     1      23.132   5.851  49.891  1.00  0.00     0.144 C 
BRANCH  10  11
HETATM   11  O2  UNL     1      22.043   5.014  49.849  1.00  0.00    -0.302 OA
BRANCH  11  12
HETATM   12  C13 UNL     1      22.049   3.817  49.186  1.00  0.00     0.200 A 
HETATM   13  N3  UNL     1      22.377   3.535  47.933  1.00  0.00    -0.215 NA
HETATM   14  C14 UNL     1      22.335   2.299  47.407  1.00  0.00     0.236 A 
HETATM   15  N4  UNL     1      21.943   1.238  48.148  1.00  0.00    -0.240 NA
HETATM   16  C15 UNL     1      21.591   1.458  49.449  1.00  0.00     0.090 A 
HETATM   17  C16 UNL     1      21.163   0.555  50.398  1.00  0.00     0.051 A 
HETATM   18  C19 UNL     1      21.639   2.749  49.983  1.00  0.00     0.117 A 
HETATM   19  C17 UNL     1      20.962   1.355  51.503  1.00  0.00     0.093 A 
HETATM   20  N5  UNL     1      21.241   2.650  51.266  1.00  0.00    -0.356 N 
HETATM   21  C18 UNL     1      21.130   3.738  52.228  1.00  0.00     0.156 C 
ENDBRANCH  11  12
ENDBRANCH  10  11
ENDBRANCH   8   9
ENDBRANCH   4   7
BRANCH   1  22
HETATM   22  C4  UNL     1      26.635   1.161  52.988  1.00  0.00     0.036 C 
HETATM   23  C3  UNL     1      27.921   0.874  53.097  1.00  0.00     0.025 C 
BRANCH  23  24
HETATM   24  C2  UNL     1      28.425  -0.406  53.575  1.00  0.00    -0.024 C 
HETATM   25  C1  UNL     1      29.651  -0.901  53.515  1.00  0.00     0.031 C 
ENDBRANCH  23  24
BRANCH  22  26
HETATM   26  C5  UNL     1      25.634   0.176  53.355  1.00  0.00     0.034 C 
HETATM   27  C6  UNL     1      24.342   0.491  53.513  1.00  0.00     0.091 C 
BRANCH  27  28
HETATM   28  C7  UNL     1      23.299  -0.477  53.884  1.00  0.00     0.408 C 
HETATM   29  F1  UNL     1      22.981  -1.278  52.792  1.00  0.00    -0.167 F 
HETATM   30  F2  UNL     1      22.145   0.172  54.292  1.00  0.00    -0.167 F 
HETATM   31  F3  UNL     1      23.698  -1.261  54.956  1.00  0.00    -0.167 F 
ENDBRANCH  27  28
ENDBRANCH  22  26
ENDBRANCH   1  22
TORSDOF 8
ENDMDL
