MODEL 1
REMARK VINA RESULT:      -8.8      0.000      0.000
REMARK  0 active torsions:
REMARK  status: ('A' for Active; 'I' for Inactive)
ROOT
HETATM    1  C1  UNL     1      21.928   6.496  50.734  1.00  0.00     0.068 C 
HETATM    2  C2  UNL     1      23.259   5.923  50.344  1.00  0.00     0.010 C 
HETATM    3  C3  UNL     1      24.175   6.212  49.363  1.00  0.00     0.026 C 
HETATM    4  C4  UNL     1      25.524   5.675  48.956  1.00  0.00     0.026 C 
HETATM    5  C5  UNL     1      26.020   4.701  49.657  1.00  0.00     0.034 C 
HETATM    6 CL1  UNL     1      27.529   4.638  48.680  1.00  0.00    -0.084 Cl
HETATM    7  C6  UNL     1      26.306   3.564  50.470  1.00  0.00     0.034 C 
HETATM    8  C7  UNL     1      25.215   2.872  50.629  1.00  0.00    -0.016 C 
HETATM    9  C8  UNL     1      25.648   1.899  51.439  1.00  0.00    -0.038 A 
HETATM   10  C9  UNL     1      24.819   2.256  52.548  1.00  0.00    -0.026 A 
HETATM   11  C10 UNL     1      23.847   3.250  52.782  1.00  0.00     0.060 C 
HETATM   12  C11 UNL     1      22.721   3.871  52.123  1.00  0.00     0.105 C 
HETATM   13  N1  UNL     1      22.988   4.831  51.260  1.00  0.00    -0.329 N 
HETATM   14  C12 UNL     1      23.021   4.157  50.071  1.00  0.00     0.135 A 
HETATM   15  C13 UNL     1      23.762   3.426  49.211  1.00  0.00     0.059 A 
HETATM   16  C14 UNL     1      23.913   2.626  50.314  1.00  0.00     0.116 A 
HETATM   17  N2  UNL     1      23.277   1.800  50.993  1.00  0.00    -0.238 NA
HETATM   18  S1  UNL     1      21.625   1.254  50.908  1.00  0.00    -0.014 SA
HETATM   19  C15 UNL     1      20.574   2.739  51.300  1.00  0.00     0.220 C 
HETATM   20  N3  UNL     1      21.321   3.486  52.355  1.00  0.00    -0.366 N 
HETATM   21  C16 UNL     1      24.967   1.405  53.721  1.00  0.00     0.008 A 
HETATM   22  C17 UNL     1      25.843   0.416  53.603  1.00  0.00    -0.026 A 
HETATM   23  C18 UNL     1      26.736  -0.029  52.499  1.00  0.00     0.032 A 
HETATM   24  C19 UNL     1      26.643   0.872  51.283  1.00  0.00     0.043 A 
HETATM   25  H12 UNL     1      21.309   3.920  53.300  1.00  0.00     0.162 HD
ENDROOT
TORSDOF 0
ENDMDL
MODEL 2
REMARK VINA RESULT:      -8.6      3.369      5.873
REMARK  0 active torsions:
REMARK  status: ('A' for Active; 'I' for Inactive)
ROOT
HETATM    1  C1  UNL     1      18.164  -1.281  53.088  1.00  0.00     0.068 C 
HETATM    2  C2  UNL     1      19.631  -1.002  53.233  1.00  0.00     0.010 C 
HETATM    3  C3  UNL     1      20.564  -1.266  54.205  1.00  0.00     0.026 C 
HETATM    4  C4  UNL     1      22.042  -1.021  54.374  1.00  0.00     0.026 C 
HETATM    5  C5  UNL     1      22.668  -0.423  53.407  1.00  0.00     0.034 C 
HETATM    6 CL1  UNL     1      24.256  -0.517  54.245  1.00  0.00    -0.084 Cl
HETATM    7  C6  UNL     1      23.117   0.355  52.298  1.00  0.00     0.034 C 
HETATM    8  C7  UNL     1      22.213   1.247  52.013  1.00  0.00    -0.016 C 
HETATM    9  C8  UNL     1      22.764   1.834  50.944  1.00  0.00    -0.038 A 
HETATM   10  C9  UNL     1      21.744   1.442  50.022  1.00  0.00    -0.026 A 
HETATM   11  C10 UNL     1      20.540   0.715  50.124  1.00  0.00     0.060 C 
HETATM   12  C11 UNL     1      19.388   0.601  50.989  1.00  0.00     0.105 C 
HETATM   13  N1  UNL     1      19.520  -0.145  52.067  1.00  0.00    -0.329 N 
HETATM   14  C12 UNL     1      19.861   0.773  53.021  1.00  0.00     0.135 A 
HETATM   15  C13 UNL     1      20.856   1.475  53.605  1.00  0.00     0.059 A 
HETATM   16  C14 UNL     1      21.058   1.901  52.318  1.00  0.00     0.116 A 
HETATM   17  N2  UNL     1      20.561   2.667  51.473  1.00  0.00    -0.238 NA
HETATM   18  S1  UNL     1      19.112   3.634  51.493  1.00  0.00    -0.014 SA
HETATM   19  C15 UNL     1      17.694   2.432  51.583  1.00  0.00     0.220 C 
HETATM   20  N3  UNL     1      18.104   1.272  50.736  1.00  0.00    -0.366 N 
HETATM   21  C16 UNL     1      21.947   1.899  48.654  1.00  0.00     0.008 A 
HETATM   22  C17 UNL     1      23.043   2.617  48.448  1.00  0.00    -0.026 A 
HETATM   23  C18 UNL     1      24.145   3.072  49.336  1.00  0.00     0.032 A 
HETATM   24  C19 UNL     1      23.988   2.566  50.757  1.00  0.00     0.043 A 
HETATM   25  H12 UNL     1      17.871   0.633  49.949  1.00  0.00     0.162 HD
ENDROOT
TORSDOF 0
ENDMDL
MODEL 3
REMARK VINA RESULT:      -8.5      2.794      4.552
REMARK  0 active torsions:
REMARK  status: ('A' for Active; 'I' for Inactive)
ROOT
HETATM    1  C1  UNL     1      20.424   1.645  49.268  1.00  0.00     0.068 C 
HETATM    2  C2  UNL     1      21.022   1.033  50.500  1.00  0.00     0.010 C 
HETATM    3  C3  UNL     1      20.535   0.236  51.506  1.00  0.00     0.026 C 
HETATM    4  C4  UNL     1      21.108  -0.412  52.741  1.00  0.00     0.026 C 
HETATM    5  C5  UNL     1      22.368  -0.225  52.989  1.00  0.00     0.034 C 
HETATM    6 CL1  UNL     1      22.329  -1.248  54.467  1.00  0.00    -0.084 Cl
HETATM    7  C6  UNL     1      23.717   0.218  53.134  1.00  0.00     0.034 C 
HETATM    8  C7  UNL     1      23.785   1.479  52.820  1.00  0.00    -0.016 C 
HETATM    9  C8  UNL     1      25.097   1.704  52.958  1.00  0.00    -0.038 A 
HETATM   10  C9  UNL     1      25.337   2.010  51.582  1.00  0.00    -0.026 A 
HETATM   11  C10 UNL     1      24.531   2.091  50.428  1.00  0.00     0.060 C 
HETATM   12  C11 UNL     1      23.247   2.606  50.011  1.00  0.00     0.105 C 
HETATM   13  N1  UNL     1      22.191   1.862  50.269  1.00  0.00    -0.329 N 
HETATM   14  C12 UNL     1      21.754   2.372  51.460  1.00  0.00     0.135 A 
HETATM   15  C13 UNL     1      21.871   2.352  52.805  1.00  0.00     0.059 A 
HETATM   16  C14 UNL     1      23.175   2.655  52.509  1.00  0.00     0.116 A 
HETATM   17  N2  UNL     1      23.873   3.611  52.127  1.00  0.00    -0.238 NA
HETATM   18  S1  UNL     1      23.456   5.228  51.628  1.00  0.00    -0.014 SA
HETATM   19  C15 UNL     1      22.446   5.041  50.077  1.00  0.00     0.220 C 
HETATM   20  N3  UNL     1      23.063   3.900  49.337  1.00  0.00    -0.366 N 
HETATM   21  C16 UNL     1      26.718   2.342  51.261  1.00  0.00     0.008 A 
HETATM   22  C17 UNL     1      27.564   2.320  52.283  1.00  0.00    -0.026 A 
HETATM   23  C18 UNL     1      27.405   2.021  53.731  1.00  0.00     0.032 A 
HETATM   24  C19 UNL     1      25.986   1.620  54.086  1.00  0.00     0.043 A 
HETATM   25  H12 UNL     1      23.475   3.548  48.448  1.00  0.00     0.162 HD
ENDROOT
TORSDOF 0
ENDMDL
MODEL 4
REMARK VINA RESULT:      -8.4      3.113      5.167
REMARK  0 active torsions:
REMARK  status: ('A' for Active; 'I' for Inactive)
ROOT
HETATM    1  C1  UNL     1      18.283   0.968  50.055  1.00  0.00     0.068 C 
HETATM    2  C2  UNL     1      19.240   0.534  51.126  1.00  0.00     0.010 C 
HETATM    3  C3  UNL     1      19.117  -0.201  52.279  1.00  0.00     0.026 C 
HETATM    4  C4  UNL     1      20.054  -0.672  53.362  1.00  0.00     0.026 C 
HETATM    5  C5  UNL     1      21.307  -0.351  53.255  1.00  0.00     0.034 C 
HETATM    6 CL1  UNL     1      21.761  -1.225  54.759  1.00  0.00    -0.084 Cl
HETATM    7  C6  UNL     1      22.592   0.221  53.007  1.00  0.00     0.034 C 
HETATM    8  C7  UNL     1      22.437   1.446  52.597  1.00  0.00    -0.016 C 
HETATM    9  C8  UNL     1      23.707   1.798  52.368  1.00  0.00    -0.038 A 
HETATM   10  C9  UNL     1      23.553   1.989  50.960  1.00  0.00    -0.026 A 
HETATM   11  C10 UNL     1      22.475   1.886  50.056  1.00  0.00     0.060 C 
HETATM   12  C11 UNL     1      21.078   2.243  49.957  1.00  0.00     0.105 C 
HETATM   13  N1  UNL     1      20.212   1.436  50.537  1.00  0.00    -0.329 N 
HETATM   14  C12 UNL     1      20.040   2.020  51.761  1.00  0.00     0.135 A 
HETATM   15  C13 UNL     1      20.498   2.142  53.026  1.00  0.00     0.059 A 
HETATM   16  C14 UNL     1      21.641   2.528  52.376  1.00  0.00     0.116 A 
HETATM   17  N2  UNL     1      22.109   3.501  51.756  1.00  0.00    -0.238 NA
HETATM   18  S1  UNL     1      21.402   5.017  51.271  1.00  0.00    -0.014 SA
HETATM   19  C15 UNL     1      20.056   4.591  50.058  1.00  0.00     0.220 C 
HETATM   20  N3  UNL     1      20.586   3.443  49.265  1.00  0.00    -0.366 N 
HETATM   21  C16 UNL     1      24.761   2.409  50.263  1.00  0.00     0.008 A 
HETATM   22  C17 UNL     1      25.836   2.562  51.024  1.00  0.00    -0.026 A 
HETATM   23  C18 UNL     1      26.086   2.392  52.481  1.00  0.00     0.032 A 
HETATM   24  C19 UNL     1      24.859   1.904  53.224  1.00  0.00     0.043 A 
HETATM   25  H12 UNL     1      20.794   3.044  48.327  1.00  0.00     0.162 HD
ENDROOT
TORSDOF 0
ENDMDL
MODEL 5
REMARK VINA RESULT:      -8.3      2.410      3.114
REMARK  0 active torsions:
REMARK  status: ('A' for Active; 'I' for Inactive)
ROOT
HETATM    1  C1  UNL     1      21.580   5.734  50.094  1.00  0.00     0.068 C 
HETATM    2  C2  UNL     1      22.605   4.699  50.453  1.00  0.00     0.010 C 
HETATM    3  C3  UNL     1      23.912   4.481  50.093  1.00  0.00     0.026 C 
HETATM    4  C4  UNL     1      24.973   3.470  50.448  1.00  0.00     0.026 C 
HETATM    5  C5  UNL     1      24.659   2.543  51.301  1.00  0.00     0.034 C 
HETATM    6 CL1  UNL     1      26.300   1.808  51.253  1.00  0.00    -0.084 Cl
HETATM    7  C6  UNL     1      24.064   1.554  52.140  1.00  0.00     0.034 C 
HETATM    8  C7  UNL     1      22.864   1.296  51.705  1.00  0.00    -0.016 C 
HETATM    9  C8  UNL     1      22.449   0.412  52.619  1.00  0.00    -0.038 A 
HETATM   10  C9  UNL     1      21.391   1.224  53.135  1.00  0.00    -0.026 A 
HETATM   11  C10 UNL     1      20.884   2.505  52.832  1.00  0.00     0.060 C 
HETATM   12  C11 UNL     1      20.547   3.316  51.684  1.00  0.00     0.105 C 
HETATM   13  N1  UNL     1      21.537   3.952  51.090  1.00  0.00    -0.329 N 
HETATM   14  C12 UNL     1      21.885   3.086  50.090  1.00  0.00     0.135 A 
HETATM   15  C13 UNL     1      22.611   2.004  49.740  1.00  0.00     0.059 A 
HETATM   16  C14 UNL     1      21.896   1.427  50.757  1.00  0.00     0.116 A 
HETATM   17  N2  UNL     1      20.754   0.998  51.003  1.00  0.00    -0.238 NA
HETATM   18  S1  UNL     1      19.284   1.009  50.068  1.00  0.00    -0.014 SA
HETATM   19  C15 UNL     1      18.823   2.800  49.859  1.00  0.00     0.220 C 
HETATM   20  N3  UNL     1      19.184   3.455  51.151  1.00  0.00    -0.366 N 
HETATM   21  C16 UNL     1      20.621   0.615  54.210  1.00  0.00     0.008 A 
HETATM   22  C17 UNL     1      20.998  -0.607  54.563  1.00  0.00    -0.026 A 
HETATM   23  C18 UNL     1      22.070  -1.520  54.085  1.00  0.00     0.032 A 
HETATM   24  C19 UNL     1      22.924  -0.891  53.001  1.00  0.00     0.043 A 
HETATM   25  H12 UNL     1      18.881   4.045  51.953  1.00  0.00     0.162 HD
ENDROOT
TORSDOF 0
ENDMDL
MODEL 6
REMARK VINA RESULT:      -8.3      1.966      4.643
REMARK  0 active torsions:
REMARK  status: ('A' for Active; 'I' for Inactive)
ROOT
HETATM    1  C1  UNL     1      24.020  -0.089  53.232  1.00  0.00     0.068 C 
HETATM    2  C2  UNL     1      24.589   0.936  52.296  1.00  0.00     0.010 C 
HETATM    3  C3  UNL     1      25.772   1.631  52.242  1.00  0.00     0.026 C 
HETATM    4  C4  UNL     1      26.384   2.646  51.310  1.00  0.00     0.026 C 
HETATM    5  C5  UNL     1      25.691   3.006  50.273  1.00  0.00     0.034 C 
HETATM    6 CL1  UNL     1      26.979   4.108  49.673  1.00  0.00    -0.084 Cl
HETATM    7  C6  UNL     1      24.714   3.349  49.291  1.00  0.00     0.034 C 
HETATM    8  C7  UNL     1      23.548   3.429  49.863  1.00  0.00    -0.016 C 
HETATM    9  C8  UNL     1      22.767   3.698  48.811  1.00  0.00    -0.038 A 
HETATM   10  C9  UNL     1      22.005   2.491  48.883  1.00  0.00    -0.026 A 
HETATM   11  C10 UNL     1      21.997   1.371  49.741  1.00  0.00     0.060 C 
HETATM   12  C11 UNL     1      22.072   1.058  51.149  1.00  0.00     0.105 C 
HETATM   13  N1  UNL     1      23.273   1.026  51.692  1.00  0.00    -0.329 N 
HETATM   14  C12 UNL     1      23.402   2.289  52.199  1.00  0.00     0.135 A 
HETATM   15  C13 UNL     1      23.746   3.571  51.953  1.00  0.00     0.059 A 
HETATM   16  C14 UNL     1      22.781   3.450  50.988  1.00  0.00     0.116 A 
HETATM   17  N2  UNL     1      21.543   3.408  50.871  1.00  0.00    -0.238 NA
HETATM   18  S1  UNL     1      20.264   3.391  52.055  1.00  0.00    -0.014 SA
HETATM   19  C15 UNL     1      20.464   1.802  53.002  1.00  0.00     0.220 C 
HETATM   20  N3  UNL     1      20.898   0.791  51.993  1.00  0.00    -0.366 N 
HETATM   21  C16 UNL     1      20.970   2.358  47.867  1.00  0.00     0.008 A 
HETATM   22  C17 UNL     1      20.871   3.371  47.016  1.00  0.00    -0.026 A 
HETATM   23  C18 UNL     1      21.609   4.654  46.869  1.00  0.00     0.032 A 
HETATM   24  C19 UNL     1      22.729   4.796  47.882  1.00  0.00     0.043 A 
HETATM   25  H12 UNL     1      20.736  -0.139  51.554  1.00  0.00     0.162 HD
ENDROOT
TORSDOF 0
ENDMDL
MODEL 7
REMARK VINA RESULT:      -8.1      2.378      5.056
REMARK  0 active torsions:
REMARK  status: ('A' for Active; 'I' for Inactive)
ROOT
HETATM    1  C1  UNL     1      21.905  -1.564  53.624  1.00  0.00     0.068 C 
HETATM    2  C2  UNL     1      22.973  -0.619  53.159  1.00  0.00     0.010 C 
HETATM    3  C3  UNL     1      24.201  -0.247  53.648  1.00  0.00     0.026 C 
HETATM    4  C4  UNL     1      25.305   0.678  53.200  1.00  0.00     0.026 C 
HETATM    5  C5  UNL     1      25.137   1.317  52.082  1.00  0.00     0.034 C 
HETATM    6 CL1  UNL     1      26.745   2.115  52.185  1.00  0.00    -0.084 Cl
HETATM    7  C6  UNL     1      24.689   2.007  50.915  1.00  0.00     0.034 C 
HETATM    8  C7  UNL     1      23.432   2.315  51.062  1.00  0.00    -0.016 C 
HETATM    9  C8  UNL     1      23.174   2.892  49.883  1.00  0.00    -0.038 A 
HETATM   10  C9  UNL     1      22.220   1.918  49.452  1.00  0.00    -0.026 A 
HETATM   11  C10 UNL     1      21.671   0.748  50.017  1.00  0.00     0.060 C 
HETATM   12  C11 UNL     1      21.148   0.269  51.276  1.00  0.00     0.105 C 
HETATM   13  N1  UNL     1      22.026  -0.130  52.175  1.00  0.00    -0.329 N 
HETATM   14  C12 UNL     1      22.199   0.994  52.935  1.00  0.00     0.135 A 
HETATM   15  C13 UNL     1      22.855   2.166  53.081  1.00  0.00     0.059 A 
HETATM   16  C14 UNL     1      22.319   2.404  51.841  1.00  0.00     0.116 A 
HETATM   17  N2  UNL     1      21.234   2.692  51.306  1.00  0.00    -0.238 NA
HETATM   18  S1  UNL     1      19.628   2.868  51.958  1.00  0.00    -0.014 SA
HETATM   19  C15 UNL     1      19.141   1.184  52.582  1.00  0.00     0.220 C 
HETATM   20  N3  UNL     1      19.716   0.216  51.601  1.00  0.00    -0.366 N 
HETATM   21  C16 UNL     1      21.639   2.169  48.141  1.00  0.00     0.008 A 
HETATM   22  C17 UNL     1      22.068   3.263  47.525  1.00  0.00    -0.026 A 
HETATM   23  C18 UNL     1      23.043   4.324  47.894  1.00  0.00     0.032 A 
HETATM   24  C19 UNL     1      23.704   4.061  49.233  1.00  0.00     0.043 A 
HETATM   25  H12 UNL     1      19.552  -0.586  50.958  1.00  0.00     0.162 HD
ENDROOT
TORSDOF 0
ENDMDL
MODEL 8
REMARK VINA RESULT:      -7.9      2.999      4.697
REMARK  0 active torsions:
REMARK  status: ('A' for Active; 'I' for Inactive)
ROOT
HETATM    1  C1  UNL     1      20.359   4.293  48.285  1.00  0.00     0.068 C 
HETATM    2  C2  UNL     1      20.087   3.133  49.197  1.00  0.00     0.010 C 
HETATM    3  C3  UNL     1      18.953   2.455  49.571  1.00  0.00     0.026 C 
HETATM    4  C4  UNL     1      18.646   1.279  50.464  1.00  0.00     0.026 C 
HETATM    5  C5  UNL     1      19.643   0.701  51.061  1.00  0.00     0.034 C 
HETATM    6 CL1  UNL     1      18.589  -0.529  51.842  1.00  0.00    -0.084 Cl
HETATM    7  C6  UNL     1      20.853   0.311  51.711  1.00  0.00     0.034 C 
HETATM    8  C7  UNL     1      21.519   1.380  52.041  1.00  0.00    -0.016 C 
HETATM    9  C8  UNL     1      22.619   0.837  52.575  1.00  0.00    -0.038 A 
HETATM   10  C9  UNL     1      23.525   1.357  51.599  1.00  0.00    -0.026 A 
HETATM   11  C10 UNL     1      23.393   2.176  50.458  1.00  0.00     0.060 C 
HETATM   12  C11 UNL     1      22.714   3.379  50.035  1.00  0.00     0.105 C 
HETATM   13  N1  UNL     1      21.456   3.256  49.660  1.00  0.00    -0.329 N 
HETATM   14  C12 UNL     1      20.776   3.549  50.810  1.00  0.00     0.135 A 
HETATM   15  C13 UNL     1      20.284   3.083  51.978  1.00  0.00     0.059 A 
HETATM   16  C14 UNL     1      21.595   2.733  52.175  1.00  0.00     0.116 A 
HETATM   17  N2  UNL     1      22.692   3.247  52.456  1.00  0.00    -0.238 NA
HETATM   18  S1  UNL     1      23.173   4.907  52.678  1.00  0.00    -0.014 SA
HETATM   19  C15 UNL     1      22.944   5.732  51.026  1.00  0.00     0.220 C 
HETATM   20  N3  UNL     1      23.340   4.709  50.013  1.00  0.00    -0.366 N 
HETATM   21  C16 UNL     1      24.921   0.997  51.806  1.00  0.00     0.008 A 
HETATM   22  C17 UNL     1      25.165   0.243  52.870  1.00  0.00    -0.026 A 
HETATM   23  C18 UNL     1      24.297  -0.334  53.931  1.00  0.00     0.032 A 
HETATM   24  C19 UNL     1      22.830  -0.020  53.711  1.00  0.00     0.043 A 
HETATM   25  H12 UNL     1      23.929   4.470  49.190  1.00  0.00     0.162 HD
ENDROOT
TORSDOF 0
ENDMDL
MODEL 9
REMARK VINA RESULT:      -7.8      8.572     10.533
REMARK  0 active torsions:
REMARK  status: ('A' for Active; 'I' for Inactive)
ROOT
HETATM    1  C1  UNL     1      32.203  10.325  47.084  1.00  0.00     0.068 C 
HETATM    2  C2  UNL     1      31.474   9.046  47.373  1.00  0.00     0.010 C 
HETATM    3  C3  UNL     1      30.282   8.740  47.982  1.00  0.00     0.026 C 
HETATM    4  C4  UNL     1      29.512   7.476  48.270  1.00  0.00     0.026 C 
HETATM    5  C5  UNL     1      30.030   6.353  47.873  1.00  0.00     0.034 C 
HETATM    6 CL1  UNL     1      28.641   5.386  48.482  1.00  0.00    -0.084 Cl
HETATM    7  C6  UNL     1      30.836   5.245  47.475  1.00  0.00     0.034 C 
HETATM    8  C7  UNL     1      32.075   5.486  47.794  1.00  0.00    -0.016 C 
HETATM    9  C8  UNL     1      32.677   4.394  47.310  1.00  0.00    -0.038 A 
HETATM   10  C9  UNL     1      33.468   5.084  46.339  1.00  0.00    -0.026 A 
HETATM   11  C10 UNL     1      33.631   6.435  45.970  1.00  0.00     0.060 C 
HETATM   12  C11 UNL     1      33.781   7.736  46.581  1.00  0.00     0.105 C 
HETATM   13  N1  UNL     1      32.679   8.342  46.976  1.00  0.00    -0.329 N 
HETATM   14  C12 UNL     1      32.603   7.985  48.294  1.00  0.00     0.135 A 
HETATM   15  C13 UNL     1      32.197   7.057  49.188  1.00  0.00     0.059 A 
HETATM   16  C14 UNL     1      33.005   6.247  48.432  1.00  0.00     0.116 A 
HETATM   17  N2  UNL     1      34.211   6.014  48.232  1.00  0.00    -0.238 NA
HETATM   18  S1  UNL     1      35.657   6.776  48.837  1.00  0.00    -0.014 SA
HETATM   19  C15 UNL     1      35.639   8.512  48.167  1.00  0.00     0.220 C 
HETATM   20  N3  UNL     1      35.076   8.400  46.789  1.00  0.00    -0.366 N 
HETATM   21  C16 UNL     1      34.335   4.231  45.538  1.00  0.00     0.008 A 
HETATM   22  C17 UNL     1      34.280   2.936  45.818  1.00  0.00    -0.026 A 
HETATM   23  C18 UNL     1      33.501   2.138  46.802  1.00  0.00     0.032 A 
HETATM   24  C19 UNL     1      32.548   2.994  47.614  1.00  0.00     0.043 A 
HETATM   25  H12 UNL     1      35.189   8.602  45.774  1.00  0.00     0.162 HD
ENDROOT
TORSDOF 0
ENDMDL
