MODEL 1
REMARK VINA RESULT:      -8.8      0.000      0.000
REMARK  4 active torsions:
REMARK  status: ('A' for Active; 'I' for Inactive)
REMARK    1  A    between atoms: C3_3  and  O1_4 
REMARK    2  A    between atoms: O1_4  and  C4_5 
REMARK    3  A    between atoms: C13_17  and  N4_18 
REMARK    4  A    between atoms: N4_18  and  C14_19 
ROOT
HETATM    1  C1  UNL     1      20.670   1.025  49.777  1.00  0.00     0.050 C 
HETATM    2  C2  UNL     1      21.965   1.775  49.870  1.00  0.00    -0.030 A 
HETATM    3  C3  UNL     1      22.985   1.584  50.736  1.00  0.00     0.070 A 
HETATM    4  C9  UNL     1      23.945   2.574  50.355  1.00  0.00     0.164 A 
HETATM    5  C10 UNL     1      23.361   3.365  49.277  1.00  0.00     0.054 A 
HETATM    6  C11 UNL     1      22.184   2.911  48.939  1.00  0.00     0.037 A 
HETATM    7  N2  UNL     1      23.989   4.596  48.835  1.00  0.00    -0.245 NA
HETATM    8  C12 UNL     1      24.941   5.057  49.634  1.00  0.00     0.235 C 
HETATM    9  N3  UNL     1      25.348   4.381  50.795  1.00  0.00    -0.227 NA
HETATM   10  C13 UNL     1      24.901   3.217  51.207  1.00  0.00     0.122 C 
ENDROOT
BRANCH  10  11
HETATM   11  N4  UNL     1      25.490   2.848  52.436  1.00  0.00    -0.343 N 
HETATM   12  H17 UNL     1      25.248   3.484  53.226  1.00  0.00     0.167 HD
BRANCH  11  13
HETATM   13  C14 UNL     1      26.344   1.721  52.636  1.00  0.00     0.035 A 
HETATM   14  C15 UNL     1      27.555   2.132  53.213  1.00  0.00     0.032 A 
HETATM   15  C16 UNL     1      28.525   1.196  53.487  1.00  0.00     0.046 A 
HETATM   16  C17 UNL     1      28.377  -0.149  53.222  1.00  0.00     0.138 A 
HETATM   17  F1  UNL     1      29.321  -1.084  53.480  1.00  0.00    -0.204 F 
HETATM   18  C18 UNL     1      27.171  -0.517  52.655  1.00  0.00     0.074 A 
HETATM   19 CL1  UNL     1      26.822  -2.203  52.252  1.00  0.00    -0.081 Cl
HETATM   20  C19 UNL     1      26.170   0.380  52.363  1.00  0.00     0.056 A 
ENDBRANCH  11  13
ENDBRANCH  10  11
BRANCH   3  21
HETATM   21  O1  UNL     1      22.512   0.516  51.512  1.00  0.00    -0.348 OA
BRANCH  21  22
HETATM   22  C4  UNL     1      22.518   0.510  52.925  1.00  0.00     0.132 C 
HETATM   23  C5  UNL     1      22.817  -0.887  53.463  1.00  0.00     0.062 C 
HETATM   24  C6  UNL     1      22.319  -0.916  54.893  1.00  0.00     0.272 C 
HETATM   25  N1  UNL     1      20.883  -1.117  54.860  1.00  0.00     0.083 N 
HETATM   26  C7  UNL     1      20.385  -0.507  53.632  1.00  0.00     0.272 C 
HETATM   27  H9  UNL     1      20.727  -2.151  54.874  1.00  0.00     0.315 HD
HETATM   28  C8  UNL     1      21.112   0.830  53.449  1.00  0.00     0.062 C 
ENDBRANCH  21  22
ENDBRANCH   3  21
TORSDOF 4
ENDMDL
MODEL 2
REMARK VINA RESULT:      -8.7      1.639      4.855
REMARK  4 active torsions:
REMARK  status: ('A' for Active; 'I' for Inactive)
REMARK    1  A    between atoms: C3_3  and  O1_4 
REMARK    2  A    between atoms: O1_4  and  C4_5 
REMARK    3  A    between atoms: C13_17  and  N4_18 
REMARK    4  A    between atoms: N4_18  and  C14_19 
ROOT
HETATM    1  C1  UNL     1      22.373   2.284  47.657  1.00  0.00     0.050 C 
HETATM    2  C2  UNL     1      22.327   1.974  49.122  1.00  0.00    -0.030 A 
HETATM    3  C3  UNL     1      23.155   2.408  50.099  1.00  0.00     0.070 A 
HETATM    4  C9  UNL     1      22.631   1.803  51.284  1.00  0.00     0.164 A 
HETATM    5  C10 UNL     1      21.513   0.953  50.890  1.00  0.00     0.054 A 
HETATM    6  C11 UNL     1      21.281   1.038  49.608  1.00  0.00     0.037 A 
HETATM    7  N2  UNL     1      20.922   0.019  51.830  1.00  0.00    -0.245 NA
HETATM    8  C12 UNL     1      21.623  -0.179  52.937  1.00  0.00     0.235 C 
HETATM    9  N3  UNL     1      22.822   0.500  53.206  1.00  0.00    -0.227 NA
HETATM   10  C13 UNL     1      23.367   1.429  52.456  1.00  0.00     0.122 C 
ENDROOT
BRANCH  10  11
HETATM   11  N4  UNL     1      24.595   1.869  52.997  1.00  0.00    -0.343 N 
HETATM   12  H17 UNL     1      24.573   2.849  53.351  1.00  0.00     0.167 HD
BRANCH  11  13
HETATM   13  C14 UNL     1      25.788   1.087  53.075  1.00  0.00     0.035 A 
HETATM   14  C15 UNL     1      26.858   1.887  53.505  1.00  0.00     0.032 A 
HETATM   15  C16 UNL     1      28.107   1.326  53.645  1.00  0.00     0.046 A 
HETATM   16  C17 UNL     1      28.375  -0.001  53.383  1.00  0.00     0.138 A 
HETATM   17  F1  UNL     1      29.597  -0.570  53.511  1.00  0.00    -0.204 F 
HETATM   18  C18 UNL     1      27.297  -0.757  52.963  1.00  0.00     0.074 A 
HETATM   19 CL1  UNL     1      27.472  -2.475  52.583  1.00  0.00    -0.081 Cl
HETATM   20  C19 UNL     1      26.031  -0.244  52.807  1.00  0.00     0.056 A 
ENDBRANCH  11  13
ENDBRANCH  10  11
BRANCH   3  21
HETATM   21  O1  UNL     1      24.053   3.211  49.382  1.00  0.00    -0.348 OA
BRANCH  21  22
HETATM   22  C4  UNL     1      24.761   4.295  49.949  1.00  0.00     0.132 C 
HETATM   23  C5  UNL     1      24.980   5.402  48.920  1.00  0.00     0.062 C 
HETATM   24  C6  UNL     1      26.129   6.246  49.429  1.00  0.00     0.272 C 
HETATM   25  N1  UNL     1      27.364   5.556  49.112  1.00  0.00     0.083 N 
HETATM   26  C7  UNL     1      27.082   4.125  49.129  1.00  0.00     0.272 C 
HETATM   27  H9  UNL     1      27.654   5.886  48.164  1.00  0.00     0.315 HD
HETATM   28  C8  UNL     1      26.176   3.844  50.334  1.00  0.00     0.062 C 
ENDBRANCH  21  22
ENDBRANCH   3  21
TORSDOF 4
ENDMDL
MODEL 3
REMARK VINA RESULT:      -8.6      3.226      5.126
REMARK  4 active torsions:
REMARK  status: ('A' for Active; 'I' for Inactive)
REMARK    1  A    between atoms: C3_3  and  O1_4 
REMARK    2  A    between atoms: O1_4  and  C4_5 
REMARK    3  A    between atoms: C13_17  and  N4_18 
REMARK    4  A    between atoms: N4_18  and  C14_19 
ROOT
HETATM    1  C1  UNL     1      21.937  -1.562  54.204  1.00  0.00     0.050 C 
HETATM    2  C2  UNL     1      21.838  -0.274  53.444  1.00  0.00    -0.030 A 
HETATM    3  C3  UNL     1      22.835   0.562  53.076  1.00  0.00     0.070 A 
HETATM    4  C9  UNL     1      22.159   1.613  52.378  1.00  0.00     0.164 A 
HETATM    5  C10 UNL     1      20.727   1.342  52.449  1.00  0.00     0.054 A 
HETATM    6  C11 UNL     1      20.488   0.212  53.061  1.00  0.00     0.037 A 
HETATM    7  N2  UNL     1      19.761   2.344  52.044  1.00  0.00    -0.245 NA
HETATM    8  C12 UNL     1      20.257   3.561  51.868  1.00  0.00     0.235 C 
HETATM    9  N3  UNL     1      21.622   3.850  52.014  1.00  0.00    -0.227 NA
HETATM   10  C13 UNL     1      22.571   2.982  52.279  1.00  0.00     0.122 C 
ENDROOT
BRANCH  10  11
HETATM   11  N4  UNL     1      23.826   3.616  52.404  1.00  0.00    -0.343 N 
HETATM   12  H17 UNL     1      24.122   3.774  53.391  1.00  0.00     0.167 HD
BRANCH  11  13
HETATM   13  C14 UNL     1      24.655   4.026  51.314  1.00  0.00     0.035 A 
HETATM   14  C15 UNL     1      25.632   3.051  51.062  1.00  0.00     0.032 A 
HETATM   15  C16 UNL     1      26.540   3.252  50.049  1.00  0.00     0.046 A 
HETATM   16  C17 UNL     1      26.550   4.377  49.251  1.00  0.00     0.138 A 
HETATM   17  F1  UNL     1      27.437   4.595  48.253  1.00  0.00    -0.204 F 
HETATM   18  C18 UNL     1      25.573   5.315  49.529  1.00  0.00     0.074 A 
HETATM   19 CL1  UNL     1      25.447   6.814  48.600  1.00  0.00    -0.081 Cl
HETATM   20  C19 UNL     1      24.642   5.161  50.530  1.00  0.00     0.056 A 
ENDBRANCH  11  13
ENDBRANCH  10  11
BRANCH   3  21
HETATM   21  O1  UNL     1      23.965  -0.089  53.590  1.00  0.00    -0.348 OA
BRANCH  21  22
HETATM   22  C4  UNL     1      25.280   0.130  53.120  1.00  0.00     0.132 C 
HETATM   23  C5  UNL     1      26.095  -1.160  53.157  1.00  0.00     0.062 C 
HETATM   24  C6  UNL     1      27.553  -0.752  53.132  1.00  0.00     0.272 C 
HETATM   25  N1  UNL     1      27.925  -0.348  54.474  1.00  0.00     0.083 N 
HETATM   26  C7  UNL     1      26.735   0.206  55.110  1.00  0.00     0.272 C 
HETATM   27  H9  UNL     1      28.263  -1.209  54.961  1.00  0.00     0.315 HD
HETATM   28  C8  UNL     1      26.018   1.079  54.072  1.00  0.00     0.062 C 
ENDBRANCH  21  22
ENDBRANCH   3  21
TORSDOF 4
ENDMDL
MODEL 4
REMARK VINA RESULT:      -8.4      2.971      6.039
REMARK  4 active torsions:
REMARK  status: ('A' for Active; 'I' for Inactive)
REMARK    1  A    between atoms: C3_3  and  O1_4 
REMARK    2  A    between atoms: O1_4  and  C4_5 
REMARK    3  A    between atoms: C13_17  and  N4_18 
REMARK    4  A    between atoms: N4_18  and  C14_19 
ROOT
HETATM    1  C1  UNL     1      24.078  -1.171  55.406  1.00  0.00     0.050 C 
HETATM    2  C2  UNL     1      23.034  -0.933  54.358  1.00  0.00    -0.030 A 
HETATM    3  C3  UNL     1      23.205  -0.514  53.083  1.00  0.00     0.070 A 
HETATM    4  C9  UNL     1      21.875  -0.473  52.557  1.00  0.00     0.164 A 
HETATM    5  C10 UNL     1      20.960  -0.823  53.638  1.00  0.00     0.054 A 
HETATM    6  C11 UNL     1      21.610  -1.126  54.730  1.00  0.00     0.037 A 
HETATM    7  N2  UNL     1      19.529  -0.640  53.488  1.00  0.00    -0.245 NA
HETATM    8  C12 UNL     1      19.164   0.087  52.442  1.00  0.00     0.235 C 
HETATM    9  N3  UNL     1      20.088   0.601  51.518  1.00  0.00    -0.227 NA
HETATM   10  C13 UNL     1      21.385   0.396  51.528  1.00  0.00     0.122 C 
ENDROOT
BRANCH  10  11
HETATM   11  N4  UNL     1      22.022   1.098  50.482  1.00  0.00    -0.343 N 
HETATM   12  H17 UNL     1      21.963   0.621  49.557  1.00  0.00     0.167 HD
BRANCH  11  13
HETATM   13  C14 UNL     1      22.700   2.347  50.621  1.00  0.00     0.035 A 
HETATM   14  C15 UNL     1      22.121   3.095  51.658  1.00  0.00     0.032 A 
HETATM   15  C16 UNL     1      22.625   4.340  51.956  1.00  0.00     0.046 A 
HETATM   16  C17 UNL     1      23.687   4.909  51.285  1.00  0.00     0.138 A 
HETATM   17  F1  UNL     1      24.194   6.133  51.561  1.00  0.00    -0.204 F 
HETATM   18  C18 UNL     1      24.232   4.143  50.271  1.00  0.00     0.074 A 
HETATM   19 CL1  UNL     1      25.597   4.727  49.311  1.00  0.00    -0.081 Cl
HETATM   20  C19 UNL     1      23.764   2.894  49.934  1.00  0.00     0.056 A 
ENDBRANCH  11  13
ENDBRANCH  10  11
BRANCH   3  21
HETATM   21  O1  UNL     1      24.597  -0.363  53.011  1.00  0.00    -0.348 OA
BRANCH  21  22
HETATM   22  C4  UNL     1      25.236   0.774  52.467  1.00  0.00     0.132 C 
HETATM   23  C5  UNL     1      26.743   0.553  52.360  1.00  0.00     0.062 C 
HETATM   24  C6  UNL     1      27.376   1.926  52.262  1.00  0.00     0.272 C 
HETATM   25  N1  UNL     1      27.441   2.482  53.599  1.00  0.00     0.083 N 
HETATM   26  C7  UNL     1      26.313   1.945  54.352  1.00  0.00     0.272 C 
HETATM   27  H9  UNL     1      28.357   2.182  54.003  1.00  0.00     0.315 HD
HETATM   28  C8  UNL     1      25.089   1.960  53.428  1.00  0.00     0.062 C 
ENDBRANCH  21  22
ENDBRANCH   3  21
TORSDOF 4
ENDMDL
MODEL 5
REMARK VINA RESULT:      -8.4      1.572      4.791
REMARK  4 active torsions:
REMARK  status: ('A' for Active; 'I' for Inactive)
REMARK    1  A    between atoms: C3_3  and  O1_4 
REMARK    2  A    between atoms: O1_4  and  C4_5 
REMARK    3  A    between atoms: C13_17  and  N4_18 
REMARK    4  A    between atoms: N4_18  and  C14_19 
ROOT
HETATM    1  C1  UNL     1      19.217   0.378  51.444  1.00  0.00     0.050 C 
HETATM    2  C2  UNL     1      20.422   0.230  52.324  1.00  0.00    -0.030 A 
HETATM    3  C3  UNL     1      21.697   0.603  52.071  1.00  0.00     0.070 A 
HETATM    4  C9  UNL     1      22.404   0.225  53.256  1.00  0.00     0.164 A 
HETATM    5  C10 UNL     1      21.457  -0.443  54.142  1.00  0.00     0.054 A 
HETATM    6  C11 UNL     1      20.254  -0.446  53.635  1.00  0.00     0.037 A 
HETATM    7  N2  UNL     1      21.917  -1.155  55.319  1.00  0.00    -0.245 NA
HETATM    8  C12 UNL     1      23.225  -1.365  55.371  1.00  0.00     0.235 C 
HETATM    9  N3  UNL     1      24.107  -0.891  54.387  1.00  0.00    -0.227 NA
HETATM   10  C13 UNL     1      23.783  -0.156  53.348  1.00  0.00     0.122 C 
ENDROOT
BRANCH  10  11
HETATM   11  N4  UNL     1      24.906   0.105  52.535  1.00  0.00    -0.343 N 
HETATM   12  H17 UNL     1      24.699   0.088  51.513  1.00  0.00     0.167 HD
BRANCH  11  13
HETATM   13  C14 UNL     1      26.225   0.375  53.012  1.00  0.00     0.035 A 
HETATM   14  C15 UNL     1      26.345   1.731  53.352  1.00  0.00     0.032 A 
HETATM   15  C16 UNL     1      27.545   2.203  53.833  1.00  0.00     0.046 A 
HETATM   16  C17 UNL     1      28.658   1.408  54.004  1.00  0.00     0.138 A 
HETATM   17  F1  UNL     1      29.848   1.855  54.471  1.00  0.00    -0.204 F 
HETATM   18  C18 UNL     1      28.502   0.079  53.659  1.00  0.00     0.074 A 
HETATM   19 CL1  UNL     1      29.834  -1.074  53.816  1.00  0.00    -0.081 Cl
HETATM   20  C19 UNL     1      27.325  -0.442  53.175  1.00  0.00     0.056 A 
ENDBRANCH  11  13
ENDBRANCH  10  11
BRANCH   3  21
HETATM   21  O1  UNL     1      21.589   1.153  50.786  1.00  0.00    -0.348 OA
BRANCH  21  22
HETATM   22  C4  UNL     1      22.672   1.732  50.086  1.00  0.00     0.132 C 
HETATM   23  C5  UNL     1      23.242   2.923  50.853  1.00  0.00     0.062 C 
HETATM   24  C6  UNL     1      24.013   3.755  49.849  1.00  0.00     0.272 C 
HETATM   25  N1  UNL     1      23.057   4.552  49.104  1.00  0.00     0.083 N 
HETATM   26  C7  UNL     1      21.812   3.793  49.039  1.00  0.00     0.272 C 
HETATM   27  H9  UNL     1      22.941   5.447  49.630  1.00  0.00     0.315 HD
HETATM   28  C8  UNL     1      22.174   2.329  48.764  1.00  0.00     0.062 C 
ENDBRANCH  21  22
ENDBRANCH   3  21
TORSDOF 4
ENDMDL
MODEL 6
REMARK VINA RESULT:      -8.4      1.759      4.878
REMARK  4 active torsions:
REMARK  status: ('A' for Active; 'I' for Inactive)
REMARK    1  A    between atoms: C3_3  and  O1_4 
REMARK    2  A    between atoms: O1_4  and  C4_5 
REMARK    3  A    between atoms: C13_17  and  N4_18 
REMARK    4  A    between atoms: N4_18  and  C14_19 
ROOT
HETATM    1  C1  UNL     1      19.551   0.357  51.422  1.00  0.00     0.050 C 
HETATM    2  C2  UNL     1      20.753   0.227  52.309  1.00  0.00    -0.030 A 
HETATM    3  C3  UNL     1      22.031   0.585  52.048  1.00  0.00     0.070 A 
HETATM    4  C9  UNL     1      22.733   0.237  53.245  1.00  0.00     0.164 A 
HETATM    5  C10 UNL     1      21.780  -0.400  54.148  1.00  0.00     0.054 A 
HETATM    6  C11 UNL     1      20.578  -0.410  53.638  1.00  0.00     0.037 A 
HETATM    7  N2  UNL     1      22.233  -1.080  55.346  1.00  0.00    -0.245 NA
HETATM    8  C12 UNL     1      23.540  -1.297  55.407  1.00  0.00     0.235 C 
HETATM    9  N3  UNL     1      24.427  -0.857  54.411  1.00  0.00    -0.227 NA
HETATM   10  C13 UNL     1      24.109  -0.150  53.352  1.00  0.00     0.122 C 
ENDROOT
BRANCH  10  11
HETATM   11  N4  UNL     1      25.235   0.081  52.533  1.00  0.00    -0.343 N 
HETATM   12  H17 UNL     1      24.999   0.297  51.541  1.00  0.00     0.167 HD
BRANCH  11  13
HETATM   13  C14 UNL     1      26.595   0.036  52.970  1.00  0.00     0.035 A 
HETATM   14  C15 UNL     1      27.132  -1.239  52.737  1.00  0.00     0.032 A 
HETATM   15  C16 UNL     1      28.436  -1.498  53.090  1.00  0.00     0.046 A 
HETATM   16  C17 UNL     1      29.264  -0.561  53.672  1.00  0.00     0.138 A 
HETATM   17  F1  UNL     1      30.548  -0.797  54.030  1.00  0.00    -0.204 F 
HETATM   18  C18 UNL     1      28.701   0.683  53.886  1.00  0.00     0.074 A 
HETATM   19 CL1  UNL     1      29.626   1.996  54.625  1.00  0.00    -0.081 Cl
HETATM   20  C19 UNL     1      27.403   0.992  53.551  1.00  0.00     0.056 A 
ENDBRANCH  11  13
ENDBRANCH  10  11
BRANCH   3  21
HETATM   21  O1  UNL     1      21.929   1.099  50.747  1.00  0.00    -0.348 OA
BRANCH  21  22
HETATM   22  C4  UNL     1      22.143   2.457  50.421  1.00  0.00     0.132 C 
HETATM   23  C5  UNL     1      22.631   2.602  48.982  1.00  0.00     0.062 C 
HETATM   24  C6  UNL     1      23.295   3.959  48.884  1.00  0.00     0.272 C 
HETATM   25  N1  UNL     1      24.629   3.843  49.441  1.00  0.00     0.083 N 
HETATM   26  C7  UNL     1      24.583   2.817  50.477  1.00  0.00     0.272 C 
HETATM   27  H9  UNL     1      25.259   3.572  48.652  1.00  0.00     0.315 HD
HETATM   28  C8  UNL     1      23.288   3.019  51.273  1.00  0.00     0.062 C 
ENDBRANCH  21  22
ENDBRANCH   3  21
TORSDOF 4
ENDMDL
MODEL 7
REMARK VINA RESULT:      -8.3      3.593      5.783
REMARK  4 active torsions:
REMARK  status: ('A' for Active; 'I' for Inactive)
REMARK    1  A    between atoms: C3_3  and  O1_4 
REMARK    2  A    between atoms: O1_4  and  C4_5 
REMARK    3  A    between atoms: C13_17  and  N4_18 
REMARK    4  A    between atoms: N4_18  and  C14_19 
ROOT
HETATM    1  C1  UNL     1      22.799  -0.677  53.202  1.00  0.00     0.050 C 
HETATM    2  C2  UNL     1      23.934   0.286  53.031  1.00  0.00    -0.030 A 
HETATM    3  C3  UNL     1      24.142   1.170  52.028  1.00  0.00     0.070 A 
HETATM    4  C9  UNL     1      25.364   1.817  52.392  1.00  0.00     0.164 A 
HETATM    5  C10 UNL     1      25.853   1.187  53.613  1.00  0.00     0.054 A 
HETATM    6  C11 UNL     1      25.019   0.278  54.044  1.00  0.00     0.037 A 
HETATM    7  N2  UNL     1      27.190   1.456  54.104  1.00  0.00    -0.245 NA
HETATM    8  C12 UNL     1      27.986   2.081  53.248  1.00  0.00     0.235 C 
HETATM    9  N3  UNL     1      27.554   2.496  51.978  1.00  0.00    -0.227 NA
HETATM   10  C13 UNL     1      26.336   2.380  51.501  1.00  0.00     0.122 C 
ENDROOT
BRANCH  10  11
HETATM   11  N4  UNL     1      26.257   2.859  50.176  1.00  0.00    -0.343 N 
HETATM   12  H17 UNL     1      26.244   2.105  49.456  1.00  0.00     0.167 HD
BRANCH  11  13
HETATM   13  C14 UNL     1      26.199   4.235  49.798  1.00  0.00     0.035 A 
HETATM   14  C15 UNL     1      27.262   4.542  48.935  1.00  0.00     0.032 A 
HETATM   15  C16 UNL     1      27.394   5.823  48.453  1.00  0.00     0.046 A 
HETATM   16  C17 UNL     1      26.527   6.846  48.775  1.00  0.00     0.138 A 
HETATM   17  F1  UNL     1      26.642   8.115  48.315  1.00  0.00    -0.204 F 
HETATM   18  C18 UNL     1      25.492   6.508  49.627  1.00  0.00     0.074 A 
HETATM   19 CL1  UNL     1      24.294   7.703  50.139  1.00  0.00    -0.081 Cl
HETATM   20  C19 UNL     1      25.317   5.242  50.134  1.00  0.00     0.056 A 
ENDBRANCH  11  13
ENDBRANCH  10  11
BRANCH   3  21
HETATM   21  O1  UNL     1      23.028   0.943  51.206  1.00  0.00    -0.348 OA
BRANCH  21  22
HETATM   22  C4  UNL     1      22.216   1.974  50.683  1.00  0.00     0.132 C 
HETATM   23  C5  UNL     1      20.758   1.529  50.597  1.00  0.00     0.062 C 
HETATM   24  C6  UNL     1      20.082   2.449  49.601  1.00  0.00     0.272 C 
HETATM   25  N1  UNL     1      20.417   1.986  48.269  1.00  0.00     0.083 N 
HETATM   26  C7  UNL     1      21.740   1.374  48.339  1.00  0.00     0.272 C 
HETATM   27  H9  UNL     1      19.681   1.294  48.000  1.00  0.00     0.315 HD
HETATM   28  C8  UNL     1      22.616   2.262  49.231  1.00  0.00     0.062 C 
ENDBRANCH  21  22
ENDBRANCH   3  21
TORSDOF 4
ENDMDL
MODEL 8
REMARK VINA RESULT:      -8.2      3.432      5.508
REMARK  4 active torsions:
REMARK  status: ('A' for Active; 'I' for Inactive)
REMARK    1  A    between atoms: C3_3  and  O1_4 
REMARK    2  A    between atoms: O1_4  and  C4_5 
REMARK    3  A    between atoms: C13_17  and  N4_18 
REMARK    4  A    between atoms: N4_18  and  C14_19 
ROOT
HETATM    1  C1  UNL     1      23.204  -0.886  53.969  1.00  0.00     0.050 C 
HETATM    2  C2  UNL     1      24.342   0.049  53.697  1.00  0.00    -0.030 A 
HETATM    3  C3  UNL     1      24.511   0.884  52.647  1.00  0.00     0.070 A 
HETATM    4  C9  UNL     1      25.760   1.526  52.919  1.00  0.00     0.164 A 
HETATM    5  C10 UNL     1      26.302   0.942  54.141  1.00  0.00     0.054 A 
HETATM    6  C11 UNL     1      25.478   0.067  54.654  1.00  0.00     0.037 A 
HETATM    7  N2  UNL     1      27.666   1.210  54.551  1.00  0.00    -0.245 NA
HETATM    8  C12 UNL     1      28.426   1.783  53.628  1.00  0.00     0.235 C 
HETATM    9  N3  UNL     1      27.936   2.149  52.365  1.00  0.00    -0.227 NA
HETATM   10  C13 UNL     1      26.693   2.032  51.956  1.00  0.00     0.122 C 
ENDROOT
BRANCH  10  11
HETATM   11  N4  UNL     1      26.554   2.453  50.615  1.00  0.00    -0.343 N 
HETATM   12  H17 UNL     1      26.797   1.719  49.916  1.00  0.00     0.167 HD
BRANCH  11  13
HETATM   13  C14 UNL     1      26.124   3.750  50.199  1.00  0.00     0.035 A 
HETATM   14  C15 UNL     1      27.000   4.256  49.226  1.00  0.00     0.032 A 
HETATM   15  C16 UNL     1      26.768   5.502  48.691  1.00  0.00     0.046 A 
HETATM   16  C17 UNL     1      25.705   6.300  49.061  1.00  0.00     0.138 A 
HETATM   17  F1  UNL     1      25.462   7.529  48.549  1.00  0.00    -0.204 F 
HETATM   18  C18 UNL     1      24.864   5.768  50.020  1.00  0.00     0.074 A 
HETATM   19 CL1  UNL     1      23.456   6.663  50.606  1.00  0.00    -0.081 Cl
HETATM   20  C19 UNL     1      25.053   4.529  50.585  1.00  0.00     0.056 A 
ENDBRANCH  11  13
ENDBRANCH  10  11
BRANCH   3  21
HETATM   21  O1  UNL     1      23.354   0.639  51.893  1.00  0.00    -0.348 OA
BRANCH  21  22
HETATM   22  C4  UNL     1      22.601   1.654  51.261  1.00  0.00     0.132 C 
HETATM   23  C5  UNL     1      22.262   2.773  52.242  1.00  0.00     0.062 C 
HETATM   24  C6  UNL     1      21.082   3.521  51.656  1.00  0.00     0.272 C 
HETATM   25  N1  UNL     1      19.884   2.757  51.944  1.00  0.00     0.083 N 
HETATM   26  C7  UNL     1      20.263   1.349  51.986  1.00  0.00     0.272 C 
HETATM   27  H9  UNL     1      19.530   3.094  52.867  1.00  0.00     0.315 HD
HETATM   28  C8  UNL     1      21.238   1.095  50.831  1.00  0.00     0.062 C 
ENDBRANCH  21  22
ENDBRANCH   3  21
TORSDOF 4
ENDMDL
MODEL 9
REMARK VINA RESULT:      -7.9      3.707      6.772
REMARK  4 active torsions:
REMARK  status: ('A' for Active; 'I' for Inactive)
REMARK    1  A    between atoms: C3_3  and  O1_4 
REMARK    2  A    between atoms: O1_4  and  C4_5 
REMARK    3  A    between atoms: C13_17  and  N4_18 
REMARK    4  A    between atoms: N4_18  and  C14_19 
ROOT
HETATM    1  C1  UNL     1      26.354   3.572  50.036  1.00  0.00     0.050 C 
HETATM    2  C2  UNL     1      25.722   2.492  50.862  1.00  0.00    -0.030 A 
HETATM    3  C3  UNL     1      24.421   2.346  51.199  1.00  0.00     0.070 A 
HETATM    4  C9  UNL     1      24.404   1.148  51.981  1.00  0.00     0.164 A 
HETATM    5  C10 UNL     1      25.781   0.686  52.113  1.00  0.00     0.054 A 
HETATM    6  C11 UNL     1      26.604   1.448  51.443  1.00  0.00     0.037 A 
HETATM    7  N2  UNL     1      26.124  -0.370  53.046  1.00  0.00    -0.245 NA
HETATM    8  C12 UNL     1      25.173  -0.678  53.917  1.00  0.00     0.235 C 
HETATM    9  N3  UNL     1      23.911  -0.064  53.908  1.00  0.00    -0.227 NA
HETATM   10  C13 UNL     1      23.491   0.825  53.037  1.00  0.00     0.122 C 
ENDROOT
BRANCH  10  11
HETATM   11  N4  UNL     1      22.188   1.270  53.347  1.00  0.00    -0.343 N 
HETATM   12  H17 UNL     1      22.163   2.068  54.018  1.00  0.00     0.167 HD
BRANCH  11  13
HETATM   13  C14 UNL     1      20.980   0.717  52.821  1.00  0.00     0.035 A 
HETATM   14  C15 UNL     1      20.752   1.206  51.526  1.00  0.00     0.032 A 
HETATM   15  C16 UNL     1      19.633   0.798  50.837  1.00  0.00     0.046 A 
HETATM   16  C17 UNL     1      18.704  -0.080  51.353  1.00  0.00     0.138 A 
HETATM   17  F1  UNL     1      17.595  -0.490  50.693  1.00  0.00    -0.204 F 
HETATM   18  C18 UNL     1      18.962  -0.541  52.631  1.00  0.00     0.074 A 
HETATM   19 CL1  UNL     1      17.868  -1.671  53.439  1.00  0.00    -0.081 Cl
HETATM   20  C19 UNL     1      20.065  -0.164  53.360  1.00  0.00     0.056 A 
ENDBRANCH  11  13
ENDBRANCH  10  11
BRANCH   3  21
HETATM   21  O1  UNL     1      23.834   3.460  50.581  1.00  0.00    -0.348 OA
BRANCH  21  22
HETATM   22  C4  UNL     1      22.898   4.307  51.215  1.00  0.00     0.132 C 
HETATM   23  C5  UNL     1      22.145   5.152  50.191  1.00  0.00     0.062 C 
HETATM   24  C6  UNL     1      21.569   6.333  50.943  1.00  0.00     0.272 C 
HETATM   25  N1  UNL     1      22.629   7.305  51.127  1.00  0.00     0.083 N 
HETATM   26  C7  UNL     1      23.885   6.568  51.219  1.00  0.00     0.272 C 
HETATM   27  H9  UNL     1      22.606   7.933  50.292  1.00  0.00     0.315 HD
HETATM   28  C8  UNL     1      23.636   5.330  52.089  1.00  0.00     0.062 C 
ENDBRANCH  21  22
ENDBRANCH   3  21
TORSDOF 4
ENDMDL
