MODEL 1
REMARK VINA RESULT:      -7.4      0.000      0.000
REMARK  4 active torsions:
REMARK  status: ('A' for Active; 'I' for Inactive)
REMARK    1  A    between atoms: N1_2  and  C2_3 
REMARK    2  A    between atoms: N3_12  and  C9_13 
REMARK    3  A    between atoms: C14_18  and  C15_19 
REMARK    4  A    between atoms: C16_21  and  O2_22 
ROOT
HETATM    1  C2  UNL     1      21.725   0.257  52.463  1.00  0.00     0.257 C 
HETATM    2  C3  UNL     1      22.963   0.507  53.287  1.00  0.00     0.092 C 
HETATM    3  C4  UNL     1      24.119   0.692  52.328  1.00  0.00     0.233 C 
HETATM    4  O1  UNL     1      23.771   1.356  51.185  1.00  0.00    -0.334 OA
HETATM    5  C5  UNL     1      22.677   2.191  51.263  1.00  0.00     0.161 C 
HETATM    6  C6  UNL     1      22.467   2.732  49.841  1.00  0.00     0.074 C 
HETATM    7  N2  UNL     1      22.889   3.343  52.101  1.00  0.00    -0.365 N 
HETATM    8  C7  UNL     1      23.927   3.691  53.030  1.00  0.00     0.103 C 
HETATM    9  C8  UNL     1      24.875   2.811  53.397  1.00  0.00     0.110 C 
HETATM   10  N3  UNL     1      25.190   1.466  52.974  1.00  0.00    -0.328 N 
HETATM   11  C16 UNL     1      21.399   1.522  51.672  1.00  0.00     0.209 C 
HETATM   12  H12 UNL     1      22.141   4.071  52.018  1.00  0.00     0.162 HD
ENDROOT
BRANCH  10  13
HETATM   13  C9  UNL     1      26.528   1.161  53.284  1.00  0.00     0.043 A 
HETATM   14  C10 UNL     1      27.285   2.337  53.344  1.00  0.00     0.030 A 
HETATM   15  C11 UNL     1      28.647   2.324  53.642  1.00  0.00     0.002 A 
HETATM   16  C12 UNL     1      29.225   1.095  53.876  1.00  0.00     0.001 A 
HETATM   17  C13 UNL     1      28.495  -0.084  53.823  1.00  0.00     0.010 A 
HETATM   18  C14 UNL     1      27.151  -0.040  53.526  1.00  0.00    -0.018 A 
BRANCH  18  19
HETATM   19  C15 UNL     1      26.256  -1.207  53.428  1.00  0.00     0.155 C 
HETATM   20 CL1  UNL     1      26.864  -2.329  52.158  1.00  0.00    -0.125 Cl
ENDBRANCH  18  19
ENDBRANCH  10  13
BRANCH   1  21
HETATM   21  N1  UNL     1      20.639  -0.090  53.373  1.00  0.00     0.086 N 
HETATM   22  C1  UNL     1      21.251  -0.692  54.537  1.00  0.00     0.307 C 
HETATM   23  H4  UNL     1      20.168   0.829  53.608  1.00  0.00     0.316 HD
ENDBRANCH   1  21
BRANCH  11  24
HETATM   24  O2  UNL     1      20.648   2.311  52.528  1.00  0.00    -0.384 OA
HETATM   25  C17 UNL     1      19.478   2.732  51.931  1.00  0.00     0.202 C 
ENDBRANCH  11  24
TORSDOF 4
ENDMDL
MODEL 2
REMARK VINA RESULT:      -7.3      2.496      5.020
REMARK  4 active torsions:
REMARK  status: ('A' for Active; 'I' for Inactive)
REMARK    1  A    between atoms: N1_2  and  C2_3 
REMARK    2  A    between atoms: N3_12  and  C9_13 
REMARK    3  A    between atoms: C14_18  and  C15_19 
REMARK    4  A    between atoms: C16_21  and  O2_22 
ROOT
HETATM    1  C2  UNL     1      24.787   4.779  50.902  1.00  0.00     0.257 C 
HETATM    2  C3  UNL     1      24.641   3.312  51.223  1.00  0.00     0.092 C 
HETATM    3  C4  UNL     1      23.495   3.172  52.202  1.00  0.00     0.233 C 
HETATM    4  O1  UNL     1      22.470   4.044  51.962  1.00  0.00    -0.334 OA
HETATM    5  C5  UNL     1      22.344   4.512  50.672  1.00  0.00     0.161 C 
HETATM    6  C6  UNL     1      21.186   5.519  50.707  1.00  0.00     0.074 C 
HETATM    7  N2  UNL     1      21.961   3.497  49.724  1.00  0.00    -0.365 N 
HETATM    8  C7  UNL     1      21.886   2.066  49.812  1.00  0.00     0.103 C 
HETATM    9  C8  UNL     1      22.367   1.393  50.872  1.00  0.00     0.110 C 
HETATM   10  N3  UNL     1      22.937   1.813  52.131  1.00  0.00    -0.328 N 
HETATM   11  C16 UNL     1      23.544   5.241  50.144  1.00  0.00     0.209 C 
HETATM   12  H12 UNL     1      21.683   3.873  48.788  1.00  0.00     0.162 HD
ENDROOT
BRANCH  10  13
HETATM   13  C9  UNL     1      22.832   0.779  53.080  1.00  0.00     0.043 A 
HETATM   14  C10 UNL     1      21.518   0.699  53.556  1.00  0.00     0.030 A 
HETATM   15  C11 UNL     1      21.133  -0.249  54.504  1.00  0.00     0.002 A 
HETATM   16  C12 UNL     1      22.107  -1.111  54.958  1.00  0.00     0.001 A 
HETATM   17  C13 UNL     1      23.415  -1.051  54.501  1.00  0.00     0.010 A 
HETATM   18  C14 UNL     1      23.766  -0.105  53.565  1.00  0.00    -0.018 A 
BRANCH  18  19
HETATM   19  C15 UNL     1      25.114   0.080  52.996  1.00  0.00     0.155 C 
HETATM   20 CL1  UNL     1      26.061   1.201  54.038  1.00  0.00    -0.125 Cl
ENDBRANCH  18  19
ENDBRANCH  10  13
BRANCH   1  21
HETATM   21  N1  UNL     1      25.989   4.947  50.095  1.00  0.00     0.086 N 
HETATM   22  C1  UNL     1      26.602   3.641  49.987  1.00  0.00     0.307 C 
HETATM   23  H4  UNL     1      25.648   5.299  49.157  1.00  0.00     0.316 HD
ENDBRANCH   1  21
BRANCH  11  24
HETATM   24  O2  UNL     1      23.791   4.944  48.813  1.00  0.00    -0.384 OA
HETATM   25  C17 UNL     1      23.566   6.036  48.002  1.00  0.00     0.202 C 
ENDBRANCH  11  24
TORSDOF 4
ENDMDL
MODEL 3
REMARK VINA RESULT:      -7.1      2.579      4.964
REMARK  4 active torsions:
REMARK  status: ('A' for Active; 'I' for Inactive)
REMARK    1  A    between atoms: N1_2  and  C2_3 
REMARK    2  A    between atoms: N3_12  and  C9_13 
REMARK    3  A    between atoms: C14_18  and  C15_19 
REMARK    4  A    between atoms: C16_21  and  O2_22 
ROOT
HETATM    1  C2  UNL     1      22.850   3.327  48.664  1.00  0.00     0.257 C 
HETATM    2  C3  UNL     1      22.244   2.882  49.972  1.00  0.00     0.092 C 
HETATM    3  C4  UNL     1      23.249   1.980  50.655  1.00  0.00     0.233 C 
HETATM    4  O1  UNL     1      24.544   2.374  50.467  1.00  0.00    -0.334 OA
HETATM    5  C5  UNL     1      24.751   3.708  50.191  1.00  0.00     0.161 C 
HETATM    6  C6  UNL     1      26.260   3.851  49.947  1.00  0.00     0.074 C 
HETATM    7  N2  UNL     1      24.440   4.581  51.293  1.00  0.00    -0.365 N 
HETATM    8  C7  UNL     1      23.768   4.366  52.543  1.00  0.00     0.103 C 
HETATM    9  C8  UNL     1      23.127   3.215  52.815  1.00  0.00     0.110 C 
HETATM   10  N3  UNL     1      23.004   1.963  52.106  1.00  0.00    -0.328 N 
HETATM   11  C16 UNL     1      24.057   4.214  48.960  1.00  0.00     0.209 C 
HETATM   12  H12 UNL     1      24.768   5.566  51.159  1.00  0.00     0.162 HD
ENDROOT
BRANCH  10  13
HETATM   13  C9  UNL     1      22.659   0.931  52.999  1.00  0.00     0.043 A 
HETATM   14  C10 UNL     1      21.296   1.008  53.313  1.00  0.00     0.030 A 
HETATM   15  C11 UNL     1      20.686   0.097  54.173  1.00  0.00     0.002 A 
HETATM   16  C12 UNL     1      21.484  -0.891  54.709  1.00  0.00     0.001 A 
HETATM   17  C13 UNL     1      22.836  -0.986  54.413  1.00  0.00     0.010 A 
HETATM   18  C14 UNL     1      23.411  -0.072  53.559  1.00  0.00    -0.018 A 
BRANCH  18  19
HETATM   19  C15 UNL     1      24.831  -0.047  53.161  1.00  0.00     0.155 C 
HETATM   20 CL1  UNL     1      25.871  -0.145  54.627  1.00  0.00    -0.125 Cl
ENDBRANCH  18  19
ENDBRANCH  10  13
BRANCH   1  21
HETATM   21  N1  UNL     1      21.830   4.057  47.920  1.00  0.00     0.086 N 
HETATM   22  C1  UNL     1      21.864   3.551  46.565  1.00  0.00     0.307 C 
HETATM   23  H4  UNL     1      20.916   3.828  48.402  1.00  0.00     0.316 HD
ENDBRANCH   1  21
BRANCH  11  24
HETATM   24  O2  UNL     1      23.546   5.489  49.137  1.00  0.00    -0.384 OA
HETATM   25  C17 UNL     1      24.188   6.407  48.333  1.00  0.00     0.202 C 
ENDBRANCH  11  24
TORSDOF 4
ENDMDL
MODEL 4
REMARK VINA RESULT:      -7.1      2.436      4.200
REMARK  4 active torsions:
REMARK  status: ('A' for Active; 'I' for Inactive)
REMARK    1  A    between atoms: N1_2  and  C2_3 
REMARK    2  A    between atoms: N3_12  and  C9_13 
REMARK    3  A    between atoms: C14_18  and  C15_19 
REMARK    4  A    between atoms: C16_21  and  O2_22 
ROOT
HETATM    1  C2  UNL     1      22.259   5.583  51.784  1.00  0.00     0.257 C 
HETATM    2  C3  UNL     1      23.289   4.506  51.550  1.00  0.00     0.092 C 
HETATM    3  C4  UNL     1      22.855   3.285  52.332  1.00  0.00     0.233 C 
HETATM    4  O1  UNL     1      21.500   3.106  52.347  1.00  0.00    -0.334 OA
HETATM    5  C5  UNL     1      20.791   3.659  51.303  1.00  0.00     0.161 C 
HETATM    6  C6  UNL     1      19.313   3.383  51.614  1.00  0.00     0.074 C 
HETATM    7  N2  UNL     1      21.055   3.036  50.032  1.00  0.00    -0.365 N 
HETATM    8  C7  UNL     1      22.052   2.099  49.599  1.00  0.00     0.103 C 
HETATM    9  C8  UNL     1      23.091   1.755  50.380  1.00  0.00     0.110 C 
HETATM   10  N3  UNL     1      23.449   2.074  51.743  1.00  0.00    -0.328 N 
HETATM   11  C16 UNL     1      20.939   5.144  51.155  1.00  0.00     0.209 C 
HETATM   12  H12 UNL     1      20.391   3.319  49.275  1.00  0.00     0.162 HD
ENDROOT
BRANCH  10  13
HETATM   13  C9  UNL     1      24.336   1.107  52.251  1.00  0.00     0.043 A 
HETATM   14  C10 UNL     1      25.639   1.382  51.820  1.00  0.00     0.030 A 
HETATM   15  C11 UNL     1      26.721   0.582  52.186  1.00  0.00     0.002 A 
HETATM   16  C12 UNL     1      26.454  -0.499  52.997  1.00  0.00     0.001 A 
HETATM   17  C13 UNL     1      25.171  -0.791  53.437  1.00  0.00     0.010 A 
HETATM   18  C14 UNL     1      24.122   0.017  53.059  1.00  0.00    -0.018 A 
BRANCH  18  19
HETATM   19  C15 UNL     1      22.711  -0.175  53.443  1.00  0.00     0.155 C 
HETATM   20 CL1  UNL     1      22.626  -1.048  55.015  1.00  0.00    -0.125 Cl
ENDBRANCH  18  19
ENDBRANCH  10  13
BRANCH   1  21
HETATM   21  N1  UNL     1      22.749   6.815  51.176  1.00  0.00     0.086 N 
HETATM   22  C1  UNL     1      24.192   6.725  51.161  1.00  0.00     0.307 C 
HETATM   23  H4  UNL     1      22.346   6.822  50.197  1.00  0.00     0.316 HD
ENDBRANCH   1  21
BRANCH  11  24
HETATM   24  O2  UNL     1      21.015   5.531  49.827  1.00  0.00    -0.384 OA
HETATM   25  C17 UNL     1      19.912   6.269  49.451  1.00  0.00     0.202 C 
ENDBRANCH  11  24
TORSDOF 4
ENDMDL
MODEL 5
REMARK VINA RESULT:      -7.0      2.984      5.512
REMARK  4 active torsions:
REMARK  status: ('A' for Active; 'I' for Inactive)
REMARK    1  A    between atoms: N1_2  and  C2_3 
REMARK    2  A    between atoms: N3_12  and  C9_13 
REMARK    3  A    between atoms: C14_18  and  C15_19 
REMARK    4  A    between atoms: C16_21  and  O2_22 
ROOT
HETATM    1  C2  UNL     1      22.273   5.252  51.042  1.00  0.00     0.257 C 
HETATM    2  C3  UNL     1      22.137   4.260  52.170  1.00  0.00     0.092 C 
HETATM    3  C4  UNL     1      22.237   2.874  51.570  1.00  0.00     0.233 C 
HETATM    4  O1  UNL     1      23.129   2.794  50.538  1.00  0.00    -0.334 OA
HETATM    5  C5  UNL     1      24.143   3.727  50.524  1.00  0.00     0.161 C 
HETATM    6  C6  UNL     1      24.933   3.461  49.234  1.00  0.00     0.074 C 
HETATM    7  N2  UNL     1      25.082   3.577  51.605  1.00  0.00    -0.365 N 
HETATM    8  C7  UNL     1      25.064   2.788  52.804  1.00  0.00     0.103 C 
HETATM    9  C8  UNL     1      23.965   2.121  53.198  1.00  0.00     0.110 C 
HETATM   10  N3  UNL     1      22.669   1.912  52.597  1.00  0.00    -0.328 N 
HETATM   11  C16 UNL     1      23.686   5.155  50.472  1.00  0.00     0.209 C 
HETATM   12  H12 UNL     1      25.948   4.155  51.498  1.00  0.00     0.162 HD
ENDROOT
BRANCH  10  13
HETATM   13  C9  UNL     1      22.057   0.769  53.146  1.00  0.00     0.043 A 
HETATM   14  C10 UNL     1      23.021  -0.040  53.759  1.00  0.00     0.030 A 
HETATM   15  C11 UNL     1      22.684  -1.236  54.392  1.00  0.00     0.002 A 
HETATM   16  C12 UNL     1      21.353  -1.593  54.389  1.00  0.00     0.001 A 
HETATM   17  C13 UNL     1      20.381  -0.807  53.789  1.00  0.00     0.010 A 
HETATM   18  C14 UNL     1      20.743   0.369  53.171  1.00  0.00    -0.018 A 
BRANCH  18  19
HETATM   19  C15 UNL     1      19.822   1.298  52.488  1.00  0.00     0.155 C 
HETATM   20 CL1  UNL     1      19.395   0.641  50.868  1.00  0.00    -0.125 Cl
ENDBRANCH  18  19
ENDBRANCH  10  13
BRANCH   1  21
HETATM   21  N1  UNL     1      22.011   6.583  51.578  1.00  0.00     0.086 N 
HETATM   22  C1  UNL     1      21.368   7.335  50.524  1.00  0.00     0.307 C 
HETATM   23  H4  UNL     1      21.364   6.429  52.402  1.00  0.00     0.316 HD
ENDBRANCH   1  21
BRANCH  11  24
HETATM   24  O2  UNL     1      24.464   5.981  51.268  1.00  0.00    -0.384 OA
HETATM   25  C17 UNL     1      25.184   6.880  50.511  1.00  0.00     0.202 C 
ENDBRANCH  11  24
TORSDOF 4
ENDMDL
MODEL 6
REMARK VINA RESULT:      -7.0      3.088      5.392
REMARK  4 active torsions:
REMARK  status: ('A' for Active; 'I' for Inactive)
REMARK    1  A    between atoms: N1_2  and  C2_3 
REMARK    2  A    between atoms: N3_12  and  C9_13 
REMARK    3  A    between atoms: C14_18  and  C15_19 
REMARK    4  A    between atoms: C16_21  and  O2_22 
ROOT
HETATM    1  C2  UNL     1      20.945   5.106  50.959  1.00  0.00     0.257 C 
HETATM    2  C3  UNL     1      21.662   3.792  51.148  1.00  0.00     0.092 C 
HETATM    3  C4  UNL     1      20.981   3.061  52.285  1.00  0.00     0.233 C 
HETATM    4  O1  UNL     1      19.627   3.244  52.311  1.00  0.00    -0.334 OA
HETATM    5  C5  UNL     1      19.023   3.566  51.114  1.00  0.00     0.161 C 
HETATM    6  C6  UNL     1      17.541   3.792  51.446  1.00  0.00     0.074 C 
HETATM    7  N2  UNL     1      19.057   2.501  50.145  1.00  0.00    -0.365 N 
HETATM    8  C7  UNL     1      19.767   1.255  50.097  1.00  0.00     0.103 C 
HETATM    9  C8  UNL     1      20.728   0.950  50.987  1.00  0.00     0.110 C 
HETATM   10  N3  UNL     1      21.224   1.615  52.169  1.00  0.00    -0.328 N 
HETATM   11  C16 UNL     1      19.526   4.824  50.471  1.00  0.00     0.209 C 
HETATM   12  H12 UNL     1      18.444   2.666  49.313  1.00  0.00     0.162 HD
ENDROOT
BRANCH  10  13
HETATM   13  C9  UNL     1      21.870   0.690  53.011  1.00  0.00     0.043 A 
HETATM   14  C10 UNL     1      20.922  -0.005  53.773  1.00  0.00     0.030 A 
HETATM   15  C11 UNL     1      21.291  -0.991  54.687  1.00  0.00     0.002 A 
HETATM   16  C12 UNL     1      22.637  -1.256  54.814  1.00  0.00     0.001 A 
HETATM   17  C13 UNL     1      23.594  -0.580  54.070  1.00  0.00     0.010 A 
HETATM   18  C14 UNL     1      23.200   0.389  53.175  1.00  0.00    -0.018 A 
BRANCH  18  19
HETATM   19  C15 UNL     1      24.102   1.189  52.326  1.00  0.00     0.155 C 
HETATM   20 CL1  UNL     1      24.564   2.698  53.191  1.00  0.00    -0.125 Cl
ENDBRANCH  18  19
ENDBRANCH  10  13
BRANCH   1  21
HETATM   21  N1  UNL     1      21.692   5.892  49.984  1.00  0.00     0.086 N 
HETATM   22  C1  UNL     1      21.709   7.253  50.474  1.00  0.00     0.307 C 
HETATM   23  H4  UNL     1      22.661   5.468  49.968  1.00  0.00     0.316 HD
ENDBRANCH   1  21
BRANCH  11  24
HETATM   24  O2  UNL     1      19.625   4.702  49.094  1.00  0.00    -0.384 OA
HETATM   25  C17 UNL     1      18.726   5.524  48.448  1.00  0.00     0.202 C 
ENDBRANCH  11  24
TORSDOF 4
ENDMDL
MODEL 7
REMARK VINA RESULT:      -6.9      9.155     10.790
REMARK  4 active torsions:
REMARK  status: ('A' for Active; 'I' for Inactive)
REMARK    1  A    between atoms: N1_2  and  C2_3 
REMARK    2  A    between atoms: N3_12  and  C9_13 
REMARK    3  A    between atoms: C14_18  and  C15_19 
REMARK    4  A    between atoms: C16_21  and  O2_22 
ROOT
HETATM    1  C2  UNL     1      28.796   6.752  47.926  1.00  0.00     0.257 C 
HETATM    2  C3  UNL     1      30.081   5.989  48.128  1.00  0.00     0.092 C 
HETATM    3  C4  UNL     1      30.972   6.273  46.937  1.00  0.00     0.233 C 
HETATM    4  O1  UNL     1      30.868   7.557  46.479  1.00  0.00    -0.334 OA
HETATM    5  C5  UNL     1      30.448   8.506  47.386  1.00  0.00     0.161 C 
HETATM    6  C6  UNL     1      30.342   9.817  46.595  1.00  0.00     0.074 C 
HETATM    7  N2  UNL     1      31.393   8.752  48.444  1.00  0.00    -0.365 N 
HETATM    8  C7  UNL     1      32.586   8.069  48.859  1.00  0.00     0.103 C 
HETATM    9  C8  UNL     1      32.935   6.875  48.348  1.00  0.00     0.110 C 
HETATM   10  N3  UNL     1      32.381   6.052  47.299  1.00  0.00    -0.328 N 
HETATM   11  C16 UNL     1      29.099   8.248  47.992  1.00  0.00     0.209 C 
HETATM   12  H12 UNL     1      31.171   9.594  49.024  1.00  0.00     0.162 HD
ENDROOT
BRANCH  10  13
HETATM   13  C9  UNL     1      33.357   5.161  46.813  1.00  0.00     0.043 A 
HETATM   14  C10 UNL     1      33.767   4.298  47.836  1.00  0.00     0.030 A 
HETATM   15  C11 UNL     1      34.724   3.307  47.625  1.00  0.00     0.002 A 
HETATM   16  C12 UNL     1      35.256   3.209  46.358  1.00  0.00     0.001 A 
HETATM   17  C13 UNL     1      34.865   4.053  45.328  1.00  0.00     0.010 A 
HETATM   18  C14 UNL     1      33.918   5.023  45.566  1.00  0.00    -0.018 A 
BRANCH  18  19
HETATM   19  C15 UNL     1      33.413   5.991  44.574  1.00  0.00     0.155 C 
HETATM   20 CL1  UNL     1      33.143   5.157  43.002  1.00  0.00    -0.125 Cl
ENDBRANCH  18  19
ENDBRANCH  10  13
BRANCH   1  21
HETATM   21  N1  UNL     1      27.866   6.356  48.977  1.00  0.00     0.086 N 
HETATM   22  C1  UNL     1      27.463   4.999  48.684  1.00  0.00     0.307 C 
HETATM   23  H4  UNL     1      28.421   6.415  49.877  1.00  0.00     0.316 HD
ENDBRANCH   1  21
BRANCH  11  24
HETATM   24  O2  UNL     1      29.061   8.574  49.337  1.00  0.00    -0.384 OA
HETATM   25  C17 UNL     1      28.189   9.615  49.580  1.00  0.00     0.202 C 
ENDBRANCH  11  24
TORSDOF 4
ENDMDL
MODEL 8
REMARK VINA RESULT:      -6.7      3.200      4.986
REMARK  4 active torsions:
REMARK  status: ('A' for Active; 'I' for Inactive)
REMARK    1  A    between atoms: N1_2  and  C2_3 
REMARK    2  A    between atoms: N3_12  and  C9_13 
REMARK    3  A    between atoms: C14_18  and  C15_19 
REMARK    4  A    between atoms: C16_21  and  O2_22 
ROOT
HETATM    1  C2  UNL     1      24.432   0.905  52.522  1.00  0.00     0.257 C 
HETATM    2  C3  UNL     1      24.588   2.405  52.539  1.00  0.00     0.092 C 
HETATM    3  C4  UNL     1      24.322   2.907  51.136  1.00  0.00     0.233 C 
HETATM    4  O1  UNL     1      23.336   2.213  50.492  1.00  0.00    -0.334 OA
HETATM    5  C5  UNL     1      22.404   1.580  51.287  1.00  0.00     0.161 C 
HETATM    6  C6  UNL     1      21.482   0.823  50.321  1.00  0.00     0.074 C 
HETATM    7  N2  UNL     1      21.558   2.487  52.018  1.00  0.00    -0.365 N 
HETATM    8  C7  UNL     1      21.621   3.903  52.247  1.00  0.00     0.103 C 
HETATM    9  C8  UNL     1      22.692   4.633  51.891  1.00  0.00     0.110 C 
HETATM   10  N3  UNL     1      23.907   4.318  51.177  1.00  0.00    -0.328 N 
HETATM   11  C16 UNL     1      22.970   0.568  52.239  1.00  0.00     0.209 C 
HETATM   12  H12 UNL     1      20.736   2.026  52.473  1.00  0.00     0.162 HD
ENDROOT
BRANCH  10  13
HETATM   13  C9  UNL     1      24.472   5.489  50.638  1.00  0.00     0.043 A 
HETATM   14  C10 UNL     1      23.754   6.610  51.074  1.00  0.00     0.030 A 
HETATM   15  C11 UNL     1      24.105   7.904  50.695  1.00  0.00     0.002 A 
HETATM   16  C12 UNL     1      25.197   8.039  49.865  1.00  0.00     0.001 A 
HETATM   17  C13 UNL     1      25.923   6.944  49.420  1.00  0.00     0.010 A 
HETATM   18  C14 UNL     1      25.553   5.677  49.811  1.00  0.00    -0.018 A 
BRANCH  18  19
HETATM   19  C15 UNL     1      26.224   4.426  49.413  1.00  0.00     0.155 C 
HETATM   20 CL1  UNL     1      27.768   4.811  48.570  1.00  0.00    -0.125 Cl
ENDBRANCH  18  19
ENDBRANCH  10  13
BRANCH   1  21
HETATM   21  N1  UNL     1      24.849   0.393  53.823  1.00  0.00     0.086 N 
HETATM   22  C1  UNL     1      25.749  -0.709  53.565  1.00  0.00     0.307 C 
HETATM   23  H4  UNL     1      25.343   1.201  54.295  1.00  0.00     0.316 HD
ENDBRANCH   1  21
BRANCH  11  24
HETATM   24  O2  UNL     1      22.337   0.602  53.471  1.00  0.00    -0.384 OA
HETATM   25  C17 UNL     1      21.648  -0.567  53.718  1.00  0.00     0.202 C 
ENDBRANCH  11  24
TORSDOF 4
ENDMDL
MODEL 9
REMARK VINA RESULT:      -6.6      3.348      5.476
REMARK  4 active torsions:
REMARK  status: ('A' for Active; 'I' for Inactive)
REMARK    1  A    between atoms: N1_2  and  C2_3 
REMARK    2  A    between atoms: N3_12  and  C9_13 
REMARK    3  A    between atoms: C14_18  and  C15_19 
REMARK    4  A    between atoms: C16_21  and  O2_22 
ROOT
HETATM    1  C2  UNL     1      22.772   4.260  48.224  1.00  0.00     0.257 C 
HETATM    2  C3  UNL     1      22.224   3.607  49.468  1.00  0.00     0.092 C 
HETATM    3  C4  UNL     1      23.272   2.639  49.975  1.00  0.00     0.233 C 
HETATM    4  O1  UNL     1      24.551   3.091  49.807  1.00  0.00    -0.334 OA
HETATM    5  C5  UNL     1      24.719   4.457  49.729  1.00  0.00     0.161 C 
HETATM    6  C6  UNL     1      26.215   4.675  49.461  1.00  0.00     0.074 C 
HETATM    7  N2  UNL     1      24.429   5.146  50.960  1.00  0.00    -0.365 N 
HETATM    8  C7  UNL     1      23.807   4.727  52.184  1.00  0.00     0.103 C 
HETATM    9  C8  UNL     1      23.201   3.532  52.299  1.00  0.00     0.110 C 
HETATM   10  N3  UNL     1      23.079   2.398  51.414  1.00  0.00    -0.328 N 
HETATM   11  C16 UNL     1      23.971   5.123  48.612  1.00  0.00     0.209 C 
HETATM   12  H12 UNL     1      24.731   6.148  50.966  1.00  0.00     0.162 HD
ENDROOT
BRANCH  10  13
HETATM   13  C9  UNL     1      22.789   1.234  52.151  1.00  0.00     0.043 A 
HETATM   14  C10 UNL     1      23.921   0.827  52.866  1.00  0.00     0.030 A 
HETATM   15  C11 UNL     1      23.908  -0.298  53.689  1.00  0.00     0.002 A 
HETATM   16  C12 UNL     1      22.725  -1.001  53.771  1.00  0.00     0.001 A 
HETATM   17  C13 UNL     1      21.590  -0.615  53.072  1.00  0.00     0.010 A 
HETATM   18  C14 UNL     1      21.633   0.501  52.267  1.00  0.00    -0.018 A 
BRANCH  18  19
HETATM   19  C15 UNL     1      20.511   1.022  51.464  1.00  0.00     0.155 C 
HETATM   20 CL1  UNL     1      19.728   2.388  52.336  1.00  0.00    -0.125 Cl
ENDBRANCH  18  19
ENDBRANCH  10  13
BRANCH   1  21
HETATM   21  N1  UNL     1      21.711   5.066  47.633  1.00  0.00     0.086 N 
HETATM   22  C1  UNL     1      20.824   4.148  46.953  1.00  0.00     0.307 C 
HETATM   23  H4  UNL     1      21.234   5.541  48.449  1.00  0.00     0.316 HD
ENDBRANCH   1  21
BRANCH  11  24
HETATM   24  O2  UNL     1      23.439   6.343  48.996  1.00  0.00    -0.384 OA
HETATM   25  C17 UNL     1      24.043   7.390  48.331  1.00  0.00     0.202 C 
ENDBRANCH  11  24
TORSDOF 4
ENDMDL
