MODEL 1
REMARK VINA RESULT:      -8.1      0.000      0.000
REMARK  7 active torsions:
REMARK  status: ('A' for Active; 'I' for Inactive)
REMARK    1  A    between atoms: C1_2  and  C2_3 
REMARK    2  A    between atoms: C1_2  and  C9_11 
REMARK    3  A    between atoms: C2_3  and  C3_4 
REMARK    4  A    between atoms: C3_4  and  N1_5 
REMARK    5  A    between atoms: C12_14  and  O2_15 
REMARK    6  A    between atoms: O2_15  and  C13_16 
REMARK    7  A    between atoms: C13_16  and  C14_17 
ROOT
HETATM    1  C9  UNL     1      24.007   1.689  52.530  1.00  0.00     0.010 A 
HETATM    2  C10 UNL     1      23.392   2.904  52.781  1.00  0.00     0.018 A 
HETATM    3  C11 UNL     1      23.688   4.078  52.117  1.00  0.00     0.037 A 
HETATM    4  C12 UNL     1      24.657   4.060  51.135  1.00  0.00     0.069 A 
HETATM    5  C20 UNL     1      25.305   2.874  50.841  1.00  0.00     0.037 A 
HETATM    6  C21 UNL     1      24.975   1.727  51.533  1.00  0.00     0.018 A 
ENDROOT
BRANCH   1   7
HETATM    7  C1  UNL     1      23.663   0.470  53.257  1.00  0.00     0.161 C 
HETATM    8  O1  UNL     1      22.508   0.511  53.768  1.00  0.00    -0.292 OA
BRANCH   7   9
HETATM    9  C2  UNL     1      24.691  -0.606  53.287  1.00  0.00     0.103 C 
BRANCH   9  10
HETATM   10  C3  UNL     1      25.726  -0.389  54.339  1.00  0.00     0.124 C 
BRANCH  10  11
HETATM   11  N1  UNL     1      27.054  -0.258  53.886  1.00  0.00    -0.412 N 
HETATM   12  C4  UNL     1      27.489  -1.150  52.879  1.00  0.00     0.117 C 
HETATM   13  C5  UNL     1      28.797  -1.820  53.199  1.00  0.00     0.019 C 
HETATM   14  C6  UNL     1      29.872  -0.852  53.615  1.00  0.00     0.003 C 
HETATM   15  C7  UNL     1      29.311   0.476  54.068  1.00  0.00     0.019 C 
HETATM   16  C8  UNL     1      28.023   0.194  54.813  1.00  0.00     0.117 C 
ENDBRANCH  10  11
ENDBRANCH   9  10
ENDBRANCH   7   9
ENDBRANCH   1   7
BRANCH   4  17
HETATM   17  O2  UNL     1      24.951   5.222  50.476  1.00  0.00    -0.347 OA
BRANCH  17  18
HETATM   18  C13 UNL     1      25.029   5.218  49.070  1.00  0.00     0.214 C 
BRANCH  18  19
HETATM   19  C14 UNL     1      26.362   5.712  48.617  1.00  0.00    -0.034 A 
HETATM   20  C15 UNL     1      27.451   4.887  48.746  1.00  0.00     0.009 A 
HETATM   21  C16 UNL     1      28.666   5.395  48.310  1.00  0.00     0.001 A 
HETATM   22  C17 UNL     1      28.813   6.658  47.768  1.00  0.00     0.000 A 
HETATM   23  C18 UNL     1      27.654   7.426  47.675  1.00  0.00     0.001 A 
HETATM   24  C19 UNL     1      26.417   6.995  48.085  1.00  0.00     0.009 A 
ENDBRANCH  18  19
ENDBRANCH  17  18
ENDBRANCH   4  17
TORSDOF 7
ENDMDL
MODEL 2
REMARK VINA RESULT:      -7.8      2.538      6.775
REMARK  7 active torsions:
REMARK  status: ('A' for Active; 'I' for Inactive)
REMARK    1  A    between atoms: C1_2  and  C2_3 
REMARK    2  A    between atoms: C1_2  and  C9_11 
REMARK    3  A    between atoms: C2_3  and  C3_4 
REMARK    4  A    between atoms: C3_4  and  N1_5 
REMARK    5  A    between atoms: C12_14  and  O2_15 
REMARK    6  A    between atoms: O2_15  and  C13_16 
REMARK    7  A    between atoms: C13_16  and  C14_17 
ROOT
HETATM    1  C9  UNL     1      22.454   3.507  52.252  1.00  0.00     0.010 A 
HETATM    2  C10 UNL     1      22.316   2.138  52.096  1.00  0.00     0.018 A 
HETATM    3  C11 UNL     1      23.262   1.211  52.489  1.00  0.00     0.037 A 
HETATM    4  C12 UNL     1      24.426   1.659  53.078  1.00  0.00     0.069 A 
HETATM    5  C20 UNL     1      24.618   3.017  53.261  1.00  0.00     0.037 A 
HETATM    6  C21 UNL     1      23.644   3.904  52.851  1.00  0.00     0.018 A 
ENDROOT
BRANCH   1   7
HETATM    7  C1  UNL     1      21.428   4.453  51.821  1.00  0.00     0.161 C 
HETATM    8  O1  UNL     1      20.258   4.079  52.118  1.00  0.00    -0.292 OA
BRANCH   7   9
HETATM    9  C2  UNL     1      21.898   5.678  51.119  1.00  0.00     0.103 C 
BRANCH   9  10
HETATM   10  C3  UNL     1      22.081   5.472  49.653  1.00  0.00     0.124 C 
BRANCH  10  11
HETATM   11  N1  UNL     1      23.406   5.277  49.214  1.00  0.00    -0.412 N 
HETATM   12  C4  UNL     1      23.789   3.960  48.867  1.00  0.00     0.117 C 
HETATM   13  C5  UNL     1      25.074   3.522  49.513  1.00  0.00     0.019 C 
HETATM   14  C6  UNL     1      26.193   4.513  49.337  1.00  0.00     0.003 C 
HETATM   15  C7  UNL     1      25.692   5.895  48.981  1.00  0.00     0.019 C 
HETATM   16  C8  UNL     1      24.406   6.123  49.747  1.00  0.00     0.117 C 
ENDBRANCH  10  11
ENDBRANCH   9  10
ENDBRANCH   7   9
ENDBRANCH   1   7
BRANCH   4  17
HETATM   17  O2  UNL     1      25.364   0.742  53.469  1.00  0.00    -0.347 OA
BRANCH  17  18
HETATM   18  C13 UNL     1      26.066   0.013  52.490  1.00  0.00     0.214 C 
BRANCH  18  19
HETATM   19  C14 UNL     1      27.453  -0.285  52.953  1.00  0.00    -0.034 A 
HETATM   20  C15 UNL     1      27.943  -1.556  52.795  1.00  0.00     0.009 A 
HETATM   21  C16 UNL     1      29.237  -1.779  53.242  1.00  0.00     0.001 A 
HETATM   22  C17 UNL     1      30.023  -0.799  53.820  1.00  0.00     0.000 A 
HETATM   23  C18 UNL     1      29.444   0.462  53.938  1.00  0.00     0.001 A 
HETATM   24  C19 UNL     1      28.171   0.762  53.521  1.00  0.00     0.009 A 
ENDBRANCH  18  19
ENDBRANCH  17  18
ENDBRANCH   4  17
TORSDOF 7
ENDMDL
MODEL 3
REMARK VINA RESULT:      -7.6      4.205      7.369
REMARK  7 active torsions:
REMARK  status: ('A' for Active; 'I' for Inactive)
REMARK    1  A    between atoms: C1_2  and  C2_3 
REMARK    2  A    between atoms: C1_2  and  C9_11 
REMARK    3  A    between atoms: C2_3  and  C3_4 
REMARK    4  A    between atoms: C3_4  and  N1_5 
REMARK    5  A    between atoms: C12_14  and  O2_15 
REMARK    6  A    between atoms: O2_15  and  C13_16 
REMARK    7  A    between atoms: C13_16  and  C14_17 
ROOT
HETATM    1  C9  UNL     1      21.568   1.279  52.642  1.00  0.00     0.010 A 
HETATM    2  C10 UNL     1      21.642   0.263  53.579  1.00  0.00     0.018 A 
HETATM    3  C11 UNL     1      22.813  -0.369  53.950  1.00  0.00     0.037 A 
HETATM    4  C12 UNL     1      23.996   0.025  53.360  1.00  0.00     0.069 A 
HETATM    5  C20 UNL     1      23.983   1.036  52.416  1.00  0.00     0.037 A 
HETATM    6  C21 UNL     1      22.788   1.636  52.078  1.00  0.00     0.018 A 
ENDROOT
BRANCH   1   7
HETATM    7  C1  UNL     1      20.307   1.921  52.278  1.00  0.00     0.161 C 
HETATM    8  O1  UNL     1      20.171   3.066  52.795  1.00  0.00    -0.292 OA
BRANCH   7   9
HETATM    9  C2  UNL     1      19.400   1.155  51.380  1.00  0.00     0.103 C 
BRANCH   9  10
HETATM   10  C3  UNL     1      19.171   1.834  50.072  1.00  0.00     0.124 C 
BRANCH  10  11
HETATM   11  N1  UNL     1      20.322   2.294  49.402  1.00  0.00    -0.412 N 
HETATM   12  C4  UNL     1      20.295   3.614  48.893  1.00  0.00     0.117 C 
HETATM   13  C5  UNL     1      20.727   3.708  47.455  1.00  0.00     0.019 C 
HETATM   14  C6  UNL     1      22.033   3.012  47.183  1.00  0.00     0.003 C 
HETATM   15  C7  UNL     1      22.384   2.001  48.251  1.00  0.00     0.019 C 
HETATM   16  C8  UNL     1      21.095   1.344  48.695  1.00  0.00     0.117 C 
ENDBRANCH  10  11
ENDBRANCH   9  10
ENDBRANCH   7   9
ENDBRANCH   1   7
BRANCH   4  17
HETATM   17  O2  UNL     1      25.157  -0.600  53.726  1.00  0.00    -0.347 OA
BRANCH  17  18
HETATM   18  C13 UNL     1      26.037  -1.062  52.729  1.00  0.00     0.214 C 
BRANCH  18  19
HETATM   19  C14 UNL     1      27.443  -0.682  53.054  1.00  0.00    -0.034 A 
HETATM   20  C15 UNL     1      28.383  -1.673  53.179  1.00  0.00     0.009 A 
HETATM   21  C16 UNL     1      29.674  -1.265  53.482  1.00  0.00     0.001 A 
HETATM   22  C17 UNL     1      30.034   0.059  53.654  1.00  0.00     0.000 A 
HETATM   23  C18 UNL     1      29.015   0.997  53.506  1.00  0.00     0.001 A 
HETATM   24  C19 UNL     1      27.715   0.673  53.209  1.00  0.00     0.009 A 
ENDBRANCH  18  19
ENDBRANCH  17  18
ENDBRANCH   4  17
TORSDOF 7
ENDMDL
MODEL 4
REMARK VINA RESULT:      -7.5      3.169      6.969
REMARK  7 active torsions:
REMARK  status: ('A' for Active; 'I' for Inactive)
REMARK    1  A    between atoms: C1_2  and  C2_3 
REMARK    2  A    between atoms: C1_2  and  C9_11 
REMARK    3  A    between atoms: C2_3  and  C3_4 
REMARK    4  A    between atoms: C3_4  and  N1_5 
REMARK    5  A    between atoms: C12_14  and  O2_15 
REMARK    6  A    between atoms: O2_15  and  C13_16 
REMARK    7  A    between atoms: C13_16  and  C14_17 
ROOT
HETATM    1  C9  UNL     1      23.468   2.901  49.857  1.00  0.00     0.010 A 
HETATM    2  C10 UNL     1      23.681   2.069  50.944  1.00  0.00     0.018 A 
HETATM    3  C11 UNL     1      24.903   1.895  51.563  1.00  0.00     0.037 A 
HETATM    4  C12 UNL     1      25.996   2.586  51.082  1.00  0.00     0.069 A 
HETATM    5  C20 UNL     1      25.843   3.432  49.997  1.00  0.00     0.037 A 
HETATM    6  C21 UNL     1      24.602   3.572  49.412  1.00  0.00     0.018 A 
ENDROOT
BRANCH   1   7
HETATM    7  C1  UNL     1      22.157   3.055  49.231  1.00  0.00     0.161 C 
HETATM    8  O1  UNL     1      22.076   4.090  48.510  1.00  0.00    -0.292 OA
BRANCH   7   9
HETATM    9  C2  UNL     1      21.145   2.004  49.526  1.00  0.00     0.103 C 
BRANCH   9  10
HETATM   10  C3  UNL     1      20.042   2.492  50.402  1.00  0.00     0.124 C 
BRANCH  10  11
HETATM   11  N1  UNL     1      19.738   1.692  51.522  1.00  0.00    -0.412 N 
HETATM   12  C4  UNL     1      20.363   2.024  52.747  1.00  0.00     0.117 C 
HETATM   13  C5  UNL     1      21.009   0.847  53.424  1.00  0.00     0.019 C 
HETATM   14  C6  UNL     1      20.093  -0.341  53.548  1.00  0.00     0.003 C 
HETATM   15  C7  UNL     1      18.930  -0.278  52.584  1.00  0.00     0.019 C 
HETATM   16  C8  UNL     1      19.442   0.328  51.294  1.00  0.00     0.117 C 
ENDBRANCH  10  11
ENDBRANCH   9  10
ENDBRANCH   7   9
ENDBRANCH   1   7
BRANCH   4  17
HETATM   17  O2  UNL     1      27.207   2.415  51.694  1.00  0.00    -0.347 OA
BRANCH  17  18
HETATM   18  C13 UNL     1      27.250   1.983  53.033  1.00  0.00     0.214 C 
BRANCH  18  19
HETATM   19  C14 UNL     1      27.977   0.685  53.143  1.00  0.00    -0.034 A 
HETATM   20  C15 UNL     1      27.314  -0.473  52.825  1.00  0.00     0.009 A 
HETATM   21  C16 UNL     1      28.036  -1.651  52.944  1.00  0.00     0.001 A 
HETATM   22  C17 UNL     1      29.355  -1.697  53.357  1.00  0.00     0.000 A 
HETATM   23  C18 UNL     1      29.948  -0.474  53.659  1.00  0.00     0.001 A 
HETATM   24  C19 UNL     1      29.301   0.733  53.566  1.00  0.00     0.009 A 
ENDBRANCH  18  19
ENDBRANCH  17  18
ENDBRANCH   4  17
TORSDOF 7
ENDMDL
MODEL 5
REMARK VINA RESULT:      -7.5      3.154      6.987
REMARK  7 active torsions:
REMARK  status: ('A' for Active; 'I' for Inactive)
REMARK    1  A    between atoms: C1_2  and  C2_3 
REMARK    2  A    between atoms: C1_2  and  C9_11 
REMARK    3  A    between atoms: C2_3  and  C3_4 
REMARK    4  A    between atoms: C3_4  and  N1_5 
REMARK    5  A    between atoms: C12_14  and  O2_15 
REMARK    6  A    between atoms: O2_15  and  C13_16 
REMARK    7  A    between atoms: C13_16  and  C14_17 
ROOT
HETATM    1  C9  UNL     1      21.753   1.248  52.770  1.00  0.00     0.010 A 
HETATM    2  C10 UNL     1      23.015   1.499  52.259  1.00  0.00     0.018 A 
HETATM    3  C11 UNL     1      24.159   0.829  52.646  1.00  0.00     0.037 A 
HETATM    4  C12 UNL     1      24.058  -0.160  53.603  1.00  0.00     0.069 A 
HETATM    5  C20 UNL     1      22.822  -0.454  54.150  1.00  0.00     0.037 A 
HETATM    6  C21 UNL     1      21.708   0.244  53.731  1.00  0.00     0.018 A 
ENDROOT
BRANCH   1   7
HETATM    7  C1  UNL     1      20.568   1.982  52.333  1.00  0.00     0.161 C 
HETATM    8  O1  UNL     1      19.567   1.234  52.149  1.00  0.00    -0.292 OA
BRANCH   7   9
HETATM    9  C2  UNL     1      20.712   3.455  52.176  1.00  0.00     0.103 C 
BRANCH   9  10
HETATM   10  C3  UNL     1      20.605   3.899  50.756  1.00  0.00     0.124 C 
BRANCH  10  11
HETATM   11  N1  UNL     1      21.807   4.293  50.136  1.00  0.00    -0.412 N 
HETATM   12  C4  UNL     1      22.200   3.590  48.973  1.00  0.00     0.117 C 
HETATM   13  C5  UNL     1      23.627   3.118  49.014  1.00  0.00     0.019 C 
HETATM   14  C6  UNL     1      24.600   4.204  49.387  1.00  0.00     0.003 C 
HETATM   15  C7  UNL     1      23.929   5.369  50.079  1.00  0.00     0.019 C 
HETATM   16  C8  UNL     1      22.836   4.804  50.961  1.00  0.00     0.117 C 
ENDBRANCH  10  11
ENDBRANCH   9  10
ENDBRANCH   7   9
ENDBRANCH   1   7
BRANCH   4  17
HETATM   17  O2  UNL     1      25.190  -0.825  53.988  1.00  0.00    -0.347 OA
BRANCH  17  18
HETATM   18  C13 UNL     1      26.067  -1.323  53.005  1.00  0.00     0.214 C 
BRANCH  18  19
HETATM   19  C14 UNL     1      27.458  -0.843  53.251  1.00  0.00    -0.034 A 
HETATM   20  C15 UNL     1      27.644   0.437  53.707  1.00  0.00     0.009 A 
HETATM   21  C16 UNL     1      28.957   0.832  53.919  1.00  0.00     0.001 A 
HETATM   22  C17 UNL     1      30.045   0.009  53.697  1.00  0.00     0.000 A 
HETATM   23  C18 UNL     1      29.762  -1.274  53.236  1.00  0.00     0.001 A 
HETATM   24  C19 UNL     1      28.491  -1.739  53.001  1.00  0.00     0.009 A 
ENDBRANCH  18  19
ENDBRANCH  17  18
ENDBRANCH   4  17
TORSDOF 7
ENDMDL
MODEL 6
REMARK VINA RESULT:      -7.5      5.247      8.767
REMARK  7 active torsions:
REMARK  status: ('A' for Active; 'I' for Inactive)
REMARK    1  A    between atoms: C1_2  and  C2_3 
REMARK    2  A    between atoms: C1_2  and  C9_11 
REMARK    3  A    between atoms: C2_3  and  C3_4 
REMARK    4  A    between atoms: C3_4  and  N1_5 
REMARK    5  A    between atoms: C12_14  and  O2_15 
REMARK    6  A    between atoms: O2_15  and  C13_16 
REMARK    7  A    between atoms: C13_16  and  C14_17 
ROOT
HETATM    1  C9  UNL     1      20.899  -0.004  52.981  1.00  0.00     0.010 A 
HETATM    2  C10 UNL     1      21.465  -0.701  54.036  1.00  0.00     0.018 A 
HETATM    3  C11 UNL     1      22.818  -0.730  54.312  1.00  0.00     0.037 A 
HETATM    4  C12 UNL     1      23.678  -0.026  53.495  1.00  0.00     0.069 A 
HETATM    5  C20 UNL     1      23.169   0.689  52.425  1.00  0.00     0.037 A 
HETATM    6  C21 UNL     1      21.810   0.687  52.190  1.00  0.00     0.018 A 
ENDROOT
BRANCH   1   7
HETATM    7  C1  UNL     1      19.462  -0.001  52.724  1.00  0.00     0.161 C 
HETATM    8  O1  UNL     1      19.086   0.998  52.047  1.00  0.00    -0.292 OA
BRANCH   7   9
HETATM    9  C2  UNL     1      18.678  -1.139  53.278  1.00  0.00     0.103 C 
BRANCH   9  10
HETATM   10  C3  UNL     1      17.326  -1.265  52.662  1.00  0.00     0.124 C 
BRANCH  10  11
HETATM   11  N1  UNL     1      16.566  -2.385  53.056  1.00  0.00    -0.412 N 
HETATM   12  C4  UNL     1      17.238  -3.412  53.759  1.00  0.00     0.117 C 
HETATM   13  C5  UNL     1      16.985  -4.783  53.195  1.00  0.00     0.019 C 
HETATM   14  C6  UNL     1      15.524  -5.082  52.995  1.00  0.00     0.003 C 
HETATM   15  C7  UNL     1      14.678  -3.830  52.951  1.00  0.00     0.019 C 
HETATM   16  C8  UNL     1      15.481  -2.765  52.233  1.00  0.00     0.117 C 
ENDBRANCH  10  11
ENDBRANCH   9  10
ENDBRANCH   7   9
ENDBRANCH   1   7
BRANCH   4  17
HETATM   17  O2  UNL     1      25.019  -0.053  53.768  1.00  0.00    -0.347 OA
BRANCH  17  18
HETATM   18  C13 UNL     1      25.940   0.181  52.729  1.00  0.00     0.214 C 
BRANCH  18  19
HETATM   19  C14 UNL     1      27.186  -0.612  52.944  1.00  0.00    -0.034 A 
HETATM   20  C15 UNL     1      28.305   0.031  53.410  1.00  0.00     0.009 A 
HETATM   21  C16 UNL     1      29.435  -0.752  53.592  1.00  0.00     0.001 A 
HETATM   22  C17 UNL     1      29.472  -2.110  53.331  1.00  0.00     0.000 A 
HETATM   23  C18 UNL     1      28.290  -2.677  52.862  1.00  0.00     0.001 A 
HETATM   24  C19 UNL     1      27.131  -1.971  52.656  1.00  0.00     0.009 A 
ENDBRANCH  18  19
ENDBRANCH  17  18
ENDBRANCH   4  17
TORSDOF 7
ENDMDL
MODEL 7
REMARK VINA RESULT:      -7.4      3.389      8.432
REMARK  7 active torsions:
REMARK  status: ('A' for Active; 'I' for Inactive)
REMARK    1  A    between atoms: C1_2  and  C2_3 
REMARK    2  A    between atoms: C1_2  and  C9_11 
REMARK    3  A    between atoms: C2_3  and  C3_4 
REMARK    4  A    between atoms: C3_4  and  N1_5 
REMARK    5  A    between atoms: C12_14  and  O2_15 
REMARK    6  A    between atoms: O2_15  and  C13_16 
REMARK    7  A    between atoms: C13_16  and  C14_17 
ROOT
HETATM    1  C9  UNL     1      25.947   4.299  49.394  1.00  0.00     0.010 A 
HETATM    2  C10 UNL     1      26.266   3.398  50.396  1.00  0.00     0.018 A 
HETATM    3  C11 UNL     1      25.368   2.515  50.962  1.00  0.00     0.037 A 
HETATM    4  C12 UNL     1      24.063   2.515  50.513  1.00  0.00     0.069 A 
HETATM    5  C20 UNL     1      23.688   3.393  49.512  1.00  0.00     0.037 A 
HETATM    6  C21 UNL     1      24.621   4.257  48.979  1.00  0.00     0.018 A 
ENDROOT
BRANCH   1   7
HETATM    7  C1  UNL     1      26.929   5.217  48.823  1.00  0.00     0.161 C 
HETATM    8  O1  UNL     1      28.071   4.693  48.685  1.00  0.00    -0.292 OA
BRANCH   7   9
HETATM    9  C2  UNL     1      26.455   6.590  48.498  1.00  0.00     0.103 C 
BRANCH   9  10
HETATM   10  C3  UNL     1      26.209   7.420  49.712  1.00  0.00     0.124 C 
BRANCH  10  11
HETATM   11  N1  UNL     1      24.882   7.848  49.914  1.00  0.00    -0.412 N 
HETATM   12  C4  UNL     1      24.217   7.382  51.072  1.00  0.00     0.117 C 
HETATM   13  C5  UNL     1      22.856   6.809  50.789  1.00  0.00     0.019 C 
HETATM   14  C6  UNL     1      21.992   7.717  49.955  1.00  0.00     0.003 C 
HETATM   15  C7  UNL     1      22.798   8.753  49.205  1.00  0.00     0.019 C 
HETATM   16  C8  UNL     1      24.090   8.096  48.768  1.00  0.00     0.117 C 
ENDBRANCH  10  11
ENDBRANCH   9  10
ENDBRANCH   7   9
ENDBRANCH   1   7
BRANCH   4  17
HETATM   17  O2  UNL     1      23.172   1.640  51.072  1.00  0.00    -0.347 OA
BRANCH  17  18
HETATM   18  C13 UNL     1      22.525   1.987  52.274  1.00  0.00     0.214 C 
BRANCH  18  19
HETATM   19  C14 UNL     1      22.539   0.839  53.227  1.00  0.00    -0.034 A 
HETATM   20  C15 UNL     1      23.721   0.179  53.449  1.00  0.00     0.009 A 
HETATM   21  C16 UNL     1      23.678  -0.879  54.344  1.00  0.00     0.001 A 
HETATM   22  C17 UNL     1      22.527  -1.278  54.998  1.00  0.00     0.000 A 
HETATM   23  C18 UNL     1      21.374  -0.550  54.713  1.00  0.00     0.001 A 
HETATM   24  C19 UNL     1      21.335   0.509  53.840  1.00  0.00     0.009 A 
ENDBRANCH  18  19
ENDBRANCH  17  18
ENDBRANCH   4  17
TORSDOF 7
ENDMDL
MODEL 8
REMARK VINA RESULT:      -7.3      3.570      7.775
REMARK  7 active torsions:
REMARK  status: ('A' for Active; 'I' for Inactive)
REMARK    1  A    between atoms: C1_2  and  C2_3 
REMARK    2  A    between atoms: C1_2  and  C9_11 
REMARK    3  A    between atoms: C2_3  and  C3_4 
REMARK    4  A    between atoms: C3_4  and  N1_5 
REMARK    5  A    between atoms: C12_14  and  O2_15 
REMARK    6  A    between atoms: O2_15  and  C13_16 
REMARK    7  A    between atoms: C13_16  and  C14_17 
ROOT
HETATM    1  C9  UNL     1      27.539   5.732  48.610  1.00  0.00     0.010 A 
HETATM    2  C10 UNL     1      27.391   4.389  48.915  1.00  0.00     0.018 A 
HETATM    3  C11 UNL     1      26.234   3.829  49.418  1.00  0.00     0.037 A 
HETATM    4  C12 UNL     1      25.142   4.643  49.637  1.00  0.00     0.069 A 
HETATM    5  C20 UNL     1      25.231   5.993  49.350  1.00  0.00     0.037 A 
HETATM    6  C21 UNL     1      26.410   6.507  48.850  1.00  0.00     0.018 A 
ENDROOT
BRANCH   1   7
HETATM    7  C1  UNL     1      28.783   6.284  48.080  1.00  0.00     0.161 C 
HETATM    8  O1  UNL     1      28.730   7.535  47.904  1.00  0.00    -0.292 OA
BRANCH   7   9
HETATM    9  C2  UNL     1      29.893   5.324  47.834  1.00  0.00     0.103 C 
BRANCH   9  10
HETATM   10  C3  UNL     1      31.183   5.762  48.441  1.00  0.00     0.124 C 
BRANCH  10  11
HETATM   11  N1  UNL     1      32.349   5.167  47.918  1.00  0.00    -0.412 N 
HETATM   12  C4  UNL     1      32.208   3.916  47.274  1.00  0.00     0.117 C 
HETATM   13  C5  UNL     1      33.189   2.883  47.757  1.00  0.00     0.019 C 
HETATM   14  C6  UNL     1      34.612   3.373  47.760  1.00  0.00     0.003 C 
HETATM   15  C7  UNL     1      34.704   4.882  47.738  1.00  0.00     0.019 C 
HETATM   16  C8  UNL     1      33.570   5.419  48.585  1.00  0.00     0.117 C 
ENDBRANCH  10  11
ENDBRANCH   9  10
ENDBRANCH   7   9
ENDBRANCH   1   7
BRANCH   4  17
HETATM   17  O2  UNL     1      23.994   4.089  50.135  1.00  0.00    -0.347 OA
BRANCH  17  18
HETATM   18  C13 UNL     1      23.521   2.878  49.595  1.00  0.00     0.214 C 
BRANCH  18  19
HETATM   19  C14 UNL     1      23.178   1.917  50.683  1.00  0.00    -0.034 A 
HETATM   20  C15 UNL     1      21.974   1.263  50.632  1.00  0.00     0.009 A 
HETATM   21  C16 UNL     1      21.705   0.381  51.668  1.00  0.00     0.001 A 
HETATM   22  C17 UNL     1      22.579   0.145  52.714  1.00  0.00     0.000 A 
HETATM   23  C18 UNL     1      23.779   0.852  52.683  1.00  0.00     0.001 A 
HETATM   24  C19 UNL     1      24.117   1.741  51.694  1.00  0.00     0.009 A 
ENDBRANCH  18  19
ENDBRANCH  17  18
ENDBRANCH   4  17
TORSDOF 7
ENDMDL
MODEL 9
REMARK VINA RESULT:      -7.3      4.413      8.160
REMARK  7 active torsions:
REMARK  status: ('A' for Active; 'I' for Inactive)
REMARK    1  A    between atoms: C1_2  and  C2_3 
REMARK    2  A    between atoms: C1_2  and  C9_11 
REMARK    3  A    between atoms: C2_3  and  C3_4 
REMARK    4  A    between atoms: C3_4  and  N1_5 
REMARK    5  A    between atoms: C12_14  and  O2_15 
REMARK    6  A    between atoms: O2_15  and  C13_16 
REMARK    7  A    between atoms: C13_16  and  C14_17 
ROOT
HETATM    1  C9  UNL     1      28.203   6.069  48.230  1.00  0.00     0.010 A 
HETATM    2  C10 UNL     1      27.968   4.780  48.677  1.00  0.00     0.018 A 
HETATM    3  C11 UNL     1      26.747   4.326  49.135  1.00  0.00     0.037 A 
HETATM    4  C12 UNL     1      25.679   5.199  49.158  1.00  0.00     0.069 A 
HETATM    5  C20 UNL     1      25.855   6.501  48.723  1.00  0.00     0.037 A 
HETATM    6  C21 UNL     1      27.094   6.907  48.274  1.00  0.00     0.018 A 
ENDROOT
BRANCH   1   7
HETATM    7  C1  UNL     1      29.512   6.508  47.753  1.00  0.00     0.161 C 
HETATM    8  O1  UNL     1      29.511   7.706  47.350  1.00  0.00    -0.292 OA
BRANCH   7   9
HETATM    9  C2  UNL     1      30.616   5.512  47.813  1.00  0.00     0.103 C 
BRANCH   9  10
HETATM   10  C3  UNL     1      31.848   5.971  47.109  1.00  0.00     0.124 C 
BRANCH  10  11
HETATM   11  N1  UNL     1      32.694   4.959  46.612  1.00  0.00    -0.412 N 
HETATM   12  C4  UNL     1      32.678   3.712  47.280  1.00  0.00     0.117 C 
HETATM   13  C5  UNL     1      34.050   3.203  47.625  1.00  0.00     0.019 C 
HETATM   14  C6  UNL     1      34.999   3.218  46.456  1.00  0.00     0.003 C 
HETATM   15  C7  UNL     1      34.543   4.146  45.353  1.00  0.00     0.019 C 
HETATM   16  C8  UNL     1      33.910   5.355  46.010  1.00  0.00     0.117 C 
ENDBRANCH  10  11
ENDBRANCH   9  10
ENDBRANCH   7   9
ENDBRANCH   1   7
BRANCH   4  17
HETATM   17  O2  UNL     1      24.468   4.751  49.612  1.00  0.00    -0.347 OA
BRANCH  17  18
HETATM   18  C13 UNL     1      24.413   3.579  50.390  1.00  0.00     0.214 C 
BRANCH  18  19
HETATM   19  C14 UNL     1      23.343   2.667  49.889  1.00  0.00    -0.034 A 
HETATM   20  C15 UNL     1      22.736   1.813  50.774  1.00  0.00     0.009 A 
HETATM   21  C16 UNL     1      21.748   0.987  50.257  1.00  0.00     0.001 A 
HETATM   22  C17 UNL     1      21.367   0.996  48.928  1.00  0.00     0.000 A 
HETATM   23  C18 UNL     1      22.036   1.897  48.103  1.00  0.00     0.001 A 
HETATM   24  C19 UNL     1      23.023   2.745  48.538  1.00  0.00     0.009 A 
ENDBRANCH  18  19
ENDBRANCH  17  18
ENDBRANCH   4  17
TORSDOF 7
ENDMDL
