MODEL 1
REMARK VINA RESULT:      -7.8      0.000      0.000
REMARK  3 active torsions:
REMARK  status: ('A' for Active; 'I' for Inactive)
REMARK    1  A    between atoms: O1_2  and  C2_3 
REMARK    2  A    between atoms: C6_9  and  C7_10 
REMARK    3  A    between atoms: C15_19  and  O3_20 
ROOT
HETATM    1  C2  UNL     1      22.086   1.030  52.032  1.00  0.00     0.103 A 
HETATM    2  C3  UNL     1      21.876   0.206  53.139  1.00  0.00     0.072 A 
HETATM    3  C4  UNL     1      22.914  -0.307  53.873  1.00  0.00     0.073 A 
HETATM    4  N1  UNL     1      22.759  -1.057  54.969  1.00  0.00    -0.241 NA
HETATM    5  C5  UNL     1      23.795  -1.501  55.687  1.00  0.00     0.234 A 
HETATM    6  N2  UNL     1      25.041  -1.202  55.314  1.00  0.00    -0.240 NA
HETATM    7  C6  UNL     1      25.333  -0.451  54.216  1.00  0.00     0.080 A 
HETATM    8  C13 UNL     1      24.213  -0.040  53.555  1.00  0.00     0.025 A 
HETATM    9  C14 UNL     1      24.434   0.766  52.477  1.00  0.00     0.055 A 
HETATM   10  C15 UNL     1      23.429   1.292  51.730  1.00  0.00     0.102 A 
ENDROOT
BRANCH   7  11
HETATM   11  C7  UNL     1      26.742  -0.254  54.025  1.00  0.00    -0.008 C 
HETATM   12  C8  UNL     1      27.613   0.635  54.447  1.00  0.00     0.013 C 
HETATM   13  C9  UNL     1      29.024   1.071  54.432  1.00  0.00     0.196 C 
HETATM   14  O2  UNL     1      29.691   0.343  53.449  1.00  0.00    -0.384 OA
HETATM   15  C10 UNL     1      29.758  -1.008  53.683  1.00  0.00     0.195 C 
HETATM   16  C11 UNL     1      28.661  -1.741  52.945  1.00  0.00     0.000 C 
HETATM   17  C12 UNL     1      27.411  -1.302  53.195  1.00  0.00     0.011 C 
ENDBRANCH   7  11
BRANCH  10  18
HETATM   18  O3  UNL     1      23.600   2.114  50.625  1.00  0.00    -0.353 OA
HETATM   19  C16 UNL     1      24.487   3.241  50.670  1.00  0.00     0.210 C 
ENDBRANCH  10  18
BRANCH   1  20
HETATM   20  O1  UNL     1      21.037   1.552  51.287  1.00  0.00    -0.353 OA
HETATM   21  C1  UNL     1      20.097   2.363  51.919  1.00  0.00     0.210 C 
ENDBRANCH   1  20
TORSDOF 3
ENDMDL
MODEL 2
REMARK VINA RESULT:      -7.5      2.501      3.683
REMARK  3 active torsions:
REMARK  status: ('A' for Active; 'I' for Inactive)
REMARK    1  A    between atoms: O1_2  and  C2_3 
REMARK    2  A    between atoms: C6_9  and  C7_10 
REMARK    3  A    between atoms: C15_19  and  O3_20 
ROOT
HETATM    1  C2  UNL     1      22.011   2.247  52.274  1.00  0.00     0.103 A 
HETATM    2  C3  UNL     1      22.798   3.067  51.465  1.00  0.00     0.072 A 
HETATM    3  C4  UNL     1      24.140   2.850  51.293  1.00  0.00     0.073 A 
HETATM    4  N1  UNL     1      24.921   3.578  50.488  1.00  0.00    -0.241 NA
HETATM    5  C5  UNL     1      26.217   3.307  50.310  1.00  0.00     0.234 A 
HETATM    6  N2  UNL     1      26.778   2.279  50.950  1.00  0.00    -0.240 NA
HETATM    7  C6  UNL     1      26.094   1.464  51.800  1.00  0.00     0.080 A 
HETATM    8  C13 UNL     1      24.780   1.816  51.911  1.00  0.00     0.025 A 
HETATM    9  C14 UNL     1      24.023   1.004  52.703  1.00  0.00     0.055 A 
HETATM   10  C15 UNL     1      22.691   1.191  52.894  1.00  0.00     0.102 A 
ENDROOT
BRANCH   7  11
HETATM   11  C7  UNL     1      26.906   0.423  52.361  1.00  0.00    -0.008 C 
HETATM   12  C8  UNL     1      26.912  -0.888  52.271  1.00  0.00     0.013 C 
HETATM   13  C9  UNL     1      27.571  -2.142  52.689  1.00  0.00     0.196 C 
HETATM   14  O2  UNL     1      28.455  -1.842  53.723  1.00  0.00    -0.384 OA
HETATM   15  C10 UNL     1      29.493  -1.016  53.370  1.00  0.00     0.195 C 
HETATM   16  C11 UNL     1      29.187   0.422  53.722  1.00  0.00     0.000 C 
HETATM   17  C12 UNL     1      28.035   0.903  53.214  1.00  0.00     0.011 C 
ENDBRANCH   7  11
BRANCH  10  18
HETATM   18  O3  UNL     1      21.879   0.396  53.690  1.00  0.00    -0.353 OA
HETATM   19  C16 UNL     1      21.926  -1.035  53.601  1.00  0.00     0.210 C 
ENDBRANCH  10  18
BRANCH   1  20
HETATM   20  O1  UNL     1      20.651   2.464  52.450  1.00  0.00    -0.353 OA
HETATM   21  C1  UNL     1      20.079   3.624  51.932  1.00  0.00     0.210 C 
ENDBRANCH   1  20
TORSDOF 3
ENDMDL
MODEL 3
REMARK VINA RESULT:      -7.4      2.525      6.821
REMARK  3 active torsions:
REMARK  status: ('A' for Active; 'I' for Inactive)
REMARK    1  A    between atoms: O1_2  and  C2_3 
REMARK    2  A    between atoms: C6_9  and  C7_10 
REMARK    3  A    between atoms: C15_19  and  O3_20 
ROOT
HETATM    1  C2  UNL     1      27.226   0.117  53.696  1.00  0.00     0.103 A 
HETATM    2  C3  UNL     1      27.574   1.090  52.758  1.00  0.00     0.072 A 
HETATM    3  C4  UNL     1      26.634   1.749  52.008  1.00  0.00     0.073 A 
HETATM    4  N1  UNL     1      26.918   2.723  51.136  1.00  0.00    -0.241 NA
HETATM    5  C5  UNL     1      25.971   3.376  50.458  1.00  0.00     0.234 A 
HETATM    6  N2  UNL     1      24.686   3.061  50.636  1.00  0.00    -0.240 NA
HETATM    7  C6  UNL     1      24.266   2.088  51.491  1.00  0.00     0.080 A 
HETATM    8  C13 UNL     1      25.303   1.484  52.140  1.00  0.00     0.025 A 
HETATM    9  C14 UNL     1      24.947   0.538  53.056  1.00  0.00     0.055 A 
HETATM   10  C15 UNL     1      25.852  -0.133  53.814  1.00  0.00     0.102 A 
ENDROOT
BRANCH   7  11
HETATM   11  C7  UNL     1      22.839   1.938  51.520  1.00  0.00    -0.008 C 
HETATM   12  C8  UNL     1      21.887   2.355  52.323  1.00  0.00     0.013 C 
HETATM   13  C9  UNL     1      20.436   2.374  52.599  1.00  0.00     0.196 C 
HETATM   14  O2  UNL     1      19.825   1.444  51.759  1.00  0.00    -0.384 OA
HETATM   15  C10 UNL     1      19.918   1.733  50.420  1.00  0.00     0.195 C 
HETATM   16  C11 UNL     1      21.069   0.987  49.783  1.00  0.00     0.000 C 
HETATM   17  C12 UNL     1      22.268   1.175  50.369  1.00  0.00     0.011 C 
ENDBRANCH   7  11
BRANCH  10  18
HETATM   18  O3  UNL     1      25.543  -1.104  54.756  1.00  0.00    -0.353 OA
HETATM   19  C16 UNL     1      24.232  -1.185  55.334  1.00  0.00     0.210 C 
ENDBRANCH  10  18
BRANCH   1  20
HETATM   20  O1  UNL     1      28.174  -0.553  54.457  1.00  0.00    -0.353 OA
HETATM   21  C1  UNL     1      29.413  -0.844  53.888  1.00  0.00     0.210 C 
ENDBRANCH   1  20
TORSDOF 3
ENDMDL
MODEL 4
REMARK VINA RESULT:      -7.3      2.393      3.469
REMARK  3 active torsions:
REMARK  status: ('A' for Active; 'I' for Inactive)
REMARK    1  A    between atoms: O1_2  and  C2_3 
REMARK    2  A    between atoms: C6_9  and  C7_10 
REMARK    3  A    between atoms: C15_19  and  O3_20 
ROOT
HETATM    1  C2  UNL     1      21.699   0.216  52.356  1.00  0.00     0.103 A 
HETATM    2  C3  UNL     1      21.951   1.212  51.410  1.00  0.00     0.072 A 
HETATM    3  C4  UNL     1      23.203   1.739  51.223  1.00  0.00     0.073 A 
HETATM    4  N1  UNL     1      23.500   2.655  50.295  1.00  0.00    -0.241 NA
HETATM    5  C5  UNL     1      24.742   3.111  50.110  1.00  0.00     0.234 A 
HETATM    6  N2  UNL     1      25.740   2.654  50.869  1.00  0.00    -0.240 NA
HETATM    7  C6  UNL     1      25.569   1.725  51.850  1.00  0.00     0.080 A 
HETATM    8  C13 UNL     1      24.271   1.317  51.958  1.00  0.00     0.025 A 
HETATM    9  C14 UNL     1      24.041   0.342  52.884  1.00  0.00     0.055 A 
HETATM   10  C15 UNL     1      22.814  -0.201  53.094  1.00  0.00     0.102 A 
ENDROOT
BRANCH   7  11
HETATM   11  C7  UNL     1      26.789   1.382  52.523  1.00  0.00    -0.008 C 
HETATM   12  C8  UNL     1      27.669   2.054  53.230  1.00  0.00     0.013 C 
HETATM   13  C9  UNL     1      28.927   1.991  54.003  1.00  0.00     0.196 C 
HETATM   14  O2  UNL     1      29.516   0.750  53.768  1.00  0.00    -0.384 OA
HETATM   15  C10 UNL     1      28.790  -0.324  54.217  1.00  0.00     0.195 C 
HETATM   16  C11 UNL     1      27.967  -0.928  53.101  1.00  0.00     0.000 C 
HETATM   17  C12 UNL     1      27.150  -0.067  52.462  1.00  0.00     0.011 C 
ENDBRANCH   7  11
BRANCH  10  18
HETATM   18  O3  UNL     1      22.527  -1.191  54.023  1.00  0.00    -0.353 OA
HETATM   19  C16 UNL     1      23.171  -1.215  55.304  1.00  0.00     0.210 C 
ENDBRANCH  10  18
BRANCH   1  20
HETATM   20  O1  UNL     1      20.433  -0.319  52.548  1.00  0.00    -0.353 OA
HETATM   21  C1  UNL     1      19.365   0.186  51.808  1.00  0.00     0.210 C 
ENDBRANCH   1  20
TORSDOF 3
ENDMDL
MODEL 5
REMARK VINA RESULT:      -7.2      1.796      5.982
REMARK  3 active torsions:
REMARK  status: ('A' for Active; 'I' for Inactive)
REMARK    1  A    between atoms: O1_2  and  C2_3 
REMARK    2  A    between atoms: C6_9  and  C7_10 
REMARK    3  A    between atoms: C15_19  and  O3_20 
ROOT
HETATM    1  C2  UNL     1      26.185  -0.389  53.737  1.00  0.00     0.103 A 
HETATM    2  C3  UNL     1      25.161  -0.917  54.525  1.00  0.00     0.072 A 
HETATM    3  C4  UNL     1      23.840  -0.634  54.291  1.00  0.00     0.073 A 
HETATM    4  N1  UNL     1      22.826  -1.158  54.987  1.00  0.00    -0.241 NA
HETATM    5  C5  UNL     1      21.548  -0.895  54.700  1.00  0.00     0.234 A 
HETATM    6  N2  UNL     1      21.247  -0.079  53.688  1.00  0.00    -0.240 NA
HETATM    7  C6  UNL     1      22.186   0.521  52.905  1.00  0.00     0.080 A 
HETATM    8  C13 UNL     1      23.457   0.186  53.272  1.00  0.00     0.025 A 
HETATM    9  C14 UNL     1      24.446   0.708  52.491  1.00  0.00     0.055 A 
HETATM   10  C15 UNL     1      25.764   0.447  52.695  1.00  0.00     0.102 A 
ENDROOT
BRANCH   7  11
HETATM   11  C7  UNL     1      21.621   1.344  51.874  1.00  0.00    -0.008 C 
HETATM   12  C8  UNL     1      21.272   2.608  51.795  1.00  0.00     0.013 C 
HETATM   13  C9  UNL     1      20.713   3.674  50.939  1.00  0.00     0.196 C 
HETATM   14  O2  UNL     1      20.196   3.079  49.790  1.00  0.00    -0.384 OA
HETATM   15  C10 UNL     1      21.129   2.462  48.995  1.00  0.00     0.195 C 
HETATM   16  C11 UNL     1      21.188   0.977  49.279  1.00  0.00     0.000 C 
HETATM   17  C12 UNL     1      21.408   0.650  50.568  1.00  0.00     0.011 C 
ENDBRANCH   7  11
BRANCH  10  18
HETATM   18  O3  UNL     1      26.806   0.953  51.932  1.00  0.00    -0.353 OA
HETATM   19  C16 UNL     1      26.751   2.280  51.389  1.00  0.00     0.210 C 
ENDBRANCH  10  18
BRANCH   1  20
HETATM   20  O1  UNL     1      27.523  -0.674  53.971  1.00  0.00    -0.353 OA
HETATM   21  C1  UNL     1      28.241   0.129  54.855  1.00  0.00     0.210 C 
ENDBRANCH   1  20
TORSDOF 3
ENDMDL
MODEL 6
REMARK VINA RESULT:      -7.2      1.449      5.982
REMARK  3 active torsions:
REMARK  status: ('A' for Active; 'I' for Inactive)
REMARK    1  A    between atoms: O1_2  and  C2_3 
REMARK    2  A    between atoms: C6_9  and  C7_10 
REMARK    3  A    between atoms: C15_19  and  O3_20 
ROOT
HETATM    1  C2  UNL     1      27.485   0.835  53.323  1.00  0.00     0.103 A 
HETATM    2  C3  UNL     1      26.956   0.014  54.319  1.00  0.00     0.072 A 
HETATM    3  C4  UNL     1      25.617  -0.270  54.396  1.00  0.00     0.073 A 
HETATM    4  N1  UNL     1      25.074  -1.091  55.301  1.00  0.00    -0.241 NA
HETATM    5  C5  UNL     1      23.770  -1.381  55.315  1.00  0.00     0.234 A 
HETATM    6  N2  UNL     1      22.957  -0.840  54.405  1.00  0.00    -0.240 NA
HETATM    7  C6  UNL     1      23.384   0.014  53.434  1.00  0.00     0.080 A 
HETATM    8  C13 UNL     1      24.727   0.242  53.498  1.00  0.00     0.025 A 
HETATM    9  C14 UNL     1      25.230   1.045  52.516  1.00  0.00     0.055 A 
HETATM   10  C15 UNL     1      26.551   1.345  52.412  1.00  0.00     0.102 A 
ENDROOT
BRANCH   7  11
HETATM   11  C7  UNL     1      22.329   0.456  52.566  1.00  0.00    -0.008 C 
HETATM   12  C8  UNL     1      22.289   0.997  51.370  1.00  0.00     0.013 C 
HETATM   13  C9  UNL     1      21.428   1.519  50.288  1.00  0.00     0.196 C 
HETATM   14  O2  UNL     1      20.131   1.633  50.786  1.00  0.00    -0.384 OA
HETATM   15  C10 UNL     1      19.546   0.444  51.140  1.00  0.00     0.195 C 
HETATM   16  C11 UNL     1      19.687   0.190  52.624  1.00  0.00     0.000 C 
HETATM   17  C12 UNL     1      20.950   0.227  53.094  1.00  0.00     0.011 C 
ENDBRANCH   7  11
BRANCH  10  18
HETATM   18  O3  UNL     1      27.112   2.155  51.435  1.00  0.00    -0.353 OA
HETATM   19  C16 UNL     1      26.291   2.971  50.587  1.00  0.00     0.210 C 
ENDBRANCH  10  18
BRANCH   1  20
HETATM   20  O1  UNL     1      28.840   1.124  53.243  1.00  0.00    -0.353 OA
HETATM   21  C1  UNL     1      29.761   0.173  53.679  1.00  0.00     0.210 C 
ENDBRANCH   1  20
TORSDOF 3
ENDMDL
MODEL 7
REMARK VINA RESULT:      -7.1      1.463      1.882
REMARK  3 active torsions:
REMARK  status: ('A' for Active; 'I' for Inactive)
REMARK    1  A    between atoms: O1_2  and  C2_3 
REMARK    2  A    between atoms: C6_9  and  C7_10 
REMARK    3  A    between atoms: C15_19  and  O3_20 
ROOT
HETATM    1  C2  UNL     1      22.940   2.746  50.461  1.00  0.00     0.103 A 
HETATM    2  C3  UNL     1      22.335   1.783  51.270  1.00  0.00     0.072 A 
HETATM    3  C4  UNL     1      23.061   0.972  52.104  1.00  0.00     0.073 A 
HETATM    4  N1  UNL     1      22.520   0.073  52.934  1.00  0.00    -0.241 NA
HETATM    5  C5  UNL     1      23.256  -0.667  53.767  1.00  0.00     0.234 A 
HETATM    6  N2  UNL     1      24.583  -0.526  53.789  1.00  0.00    -0.240 NA
HETATM    7  C6  UNL     1      25.255   0.351  52.993  1.00  0.00     0.080 A 
HETATM    8  C13 UNL     1      24.419   1.064  52.184  1.00  0.00     0.025 A 
HETATM    9  C14 UNL     1      25.023   2.003  51.401  1.00  0.00     0.055 A 
HETATM   10  C15 UNL     1      24.335   2.822  50.565  1.00  0.00     0.102 A 
ENDROOT
BRANCH   7  11
HETATM   11  C7  UNL     1      26.675   0.332  53.203  1.00  0.00    -0.008 C 
HETATM   12  C8  UNL     1      27.545   1.191  53.683  1.00  0.00     0.013 C 
HETATM   13  C9  UNL     1      28.963   1.446  54.011  1.00  0.00     0.196 C 
HETATM   14  O2  UNL     1      29.727   0.428  53.444  1.00  0.00    -0.384 OA
HETATM   15  C10 UNL     1      29.483  -0.823  53.953  1.00  0.00     0.195 C 
HETATM   16  C11 UNL     1      28.511  -1.584  53.079  1.00  0.00     0.000 C 
HETATM   17  C12 UNL     1      27.341  -0.957  52.844  1.00  0.00     0.011 C 
ENDBRANCH   7  11
BRANCH  10  18
HETATM   18  O3  UNL     1      24.902   3.790  49.748  1.00  0.00    -0.353 OA
HETATM   19  C16 UNL     1      26.323   3.868  49.568  1.00  0.00     0.210 C 
ENDBRANCH  10  18
BRANCH   1  20
HETATM   20  O1  UNL     1      22.208   3.569  49.616  1.00  0.00    -0.353 OA
HETATM   21  C1  UNL     1      21.073   3.058  48.990  1.00  0.00     0.210 C 
ENDBRANCH   1  20
TORSDOF 3
ENDMDL
MODEL 8
REMARK VINA RESULT:      -6.7      2.775      5.603
REMARK  3 active torsions:
REMARK  status: ('A' for Active; 'I' for Inactive)
REMARK    1  A    between atoms: O1_2  and  C2_3 
REMARK    2  A    between atoms: C6_9  and  C7_10 
REMARK    3  A    between atoms: C15_19  and  O3_20 
ROOT
HETATM    1  C2  UNL     1      25.259   4.018  49.818  1.00  0.00     0.103 A 
HETATM    2  C3  UNL     1      26.270   3.208  50.337  1.00  0.00     0.072 A 
HETATM    3  C4  UNL     1      26.003   2.157  51.176  1.00  0.00     0.073 A 
HETATM    4  N1  UNL     1      26.933   1.324  51.655  1.00  0.00    -0.241 NA
HETATM    5  C5  UNL     1      26.630   0.282  52.434  1.00  0.00     0.234 A 
HETATM    6  N2  UNL     1      25.359   0.043  52.763  1.00  0.00    -0.240 NA
HETATM    7  C6  UNL     1      24.320   0.817  52.344  1.00  0.00     0.080 A 
HETATM    8  C13 UNL     1      24.728   1.850  51.552  1.00  0.00     0.025 A 
HETATM    9  C14 UNL     1      23.730   2.631  51.050  1.00  0.00     0.055 A 
HETATM   10  C15 UNL     1      23.959   3.679  50.216  1.00  0.00     0.102 A 
ENDROOT
BRANCH   7  11
HETATM   11  C7  UNL     1      23.045   0.357  52.818  1.00  0.00    -0.008 C 
HETATM   12  C8  UNL     1      21.820   0.397  52.346  1.00  0.00     0.013 C 
HETATM   13  C9  UNL     1      20.406   0.034  52.573  1.00  0.00     0.196 C 
HETATM   14  O2  UNL     1      20.276  -0.389  53.895  1.00  0.00    -0.384 OA
HETATM   15  C10 UNL     1      20.972  -1.531  54.202  1.00  0.00     0.195 C 
HETATM   16  C11 UNL     1      22.304  -1.200  54.838  1.00  0.00     0.000 C 
HETATM   17  C12 UNL     1      23.091  -0.374  54.120  1.00  0.00     0.011 C 
ENDBRANCH   7  11
BRANCH  10  18
HETATM   18  O3  UNL     1      22.980   4.504  49.681  1.00  0.00    -0.353 OA
HETATM   19  C16 UNL     1      21.797   4.830  50.424  1.00  0.00     0.210 C 
ENDBRANCH  10  18
BRANCH   1  20
HETATM   20  O1  UNL     1      25.525   5.083  48.968  1.00  0.00    -0.353 OA
HETATM   21  C1  UNL     1      26.848   5.478  48.773  1.00  0.00     0.210 C 
ENDBRANCH   1  20
TORSDOF 3
ENDMDL
MODEL 9
REMARK VINA RESULT:      -6.3      2.335      3.145
REMARK  3 active torsions:
REMARK  status: ('A' for Active; 'I' for Inactive)
REMARK    1  A    between atoms: O1_2  and  C2_3 
REMARK    2  A    between atoms: C6_9  and  C7_10 
REMARK    3  A    between atoms: C15_19  and  O3_20 
ROOT
HETATM    1  C2  UNL     1      21.585   4.742  51.174  1.00  0.00     0.103 A 
HETATM    2  C3  UNL     1      20.927   3.653  51.749  1.00  0.00     0.072 A 
HETATM    3  C4  UNL     1      21.608   2.596  52.296  1.00  0.00     0.073 A 
HETATM    4  N1  UNL     1      21.021   1.559  52.902  1.00  0.00    -0.241 NA
HETATM    5  C5  UNL     1      21.719   0.568  53.465  1.00  0.00     0.234 A 
HETATM    6  N2  UNL     1      23.053   0.590  53.431  1.00  0.00    -0.240 NA
HETATM    7  C6  UNL     1      23.770   1.587  52.842  1.00  0.00     0.080 A 
HETATM    8  C13 UNL     1      22.971   2.552  52.302  1.00  0.00     0.025 A 
HETATM    9  C14 UNL     1      23.627   3.610  51.747  1.00  0.00     0.055 A 
HETATM   10  C15 UNL     1      22.984   4.673  51.197  1.00  0.00     0.102 A 
ENDROOT
BRANCH   7  11
HETATM   11  C7  UNL     1      25.189   1.398  52.942  1.00  0.00    -0.008 C 
HETATM   12  C8  UNL     1      26.169   2.067  53.505  1.00  0.00     0.013 C 
HETATM   13  C9  UNL     1      27.621   2.125  53.771  1.00  0.00     0.196 C 
HETATM   14  O2  UNL     1      28.243   1.164  52.975  1.00  0.00    -0.384 OA
HETATM   15  C10 UNL     1      27.898  -0.132  53.265  1.00  0.00     0.195 C 
HETATM   16  C11 UNL     1      26.806  -0.622  52.340  1.00  0.00     0.000 C 
HETATM   17  C12 UNL     1      25.697   0.143  52.309  1.00  0.00     0.011 C 
ENDBRANCH   7  11
BRANCH  10  18
HETATM   18  O3  UNL     1      23.604   5.771  50.619  1.00  0.00    -0.353 OA
HETATM   19  C16 UNL     1      24.274   5.664  49.355  1.00  0.00     0.210 C 
ENDBRANCH  10  18
BRANCH   1  20
HETATM   20  O1  UNL     1      20.899   5.814  50.620  1.00  0.00    -0.353 OA
HETATM   21  C1  UNL     1      19.821   5.562  49.773  1.00  0.00     0.210 C 
ENDBRANCH   1  20
TORSDOF 3
ENDMDL
