MODEL 1
REMARK VINA RESULT:      -8.0      0.000      0.000
REMARK  7 active torsions:
REMARK  status: ('A' for Active; 'I' for Inactive)
REMARK    1  A    between atoms: O1_2  and  C2_3 
REMARK    2  A    between atoms: C5_6  and  C6_7 
REMARK    3  A    between atoms: C7_8  and  C8_9 
REMARK    4  A    between atoms: C8_9  and  C10_15 
REMARK    5  A    between atoms: N1_10  and  N2_11 
REMARK    6  A    between atoms: N2_11  and  C9_12 
REMARK    7  A    between atoms: C9_12  and  N3_13 
ROOT
HETATM    1  C8  UNL     1      26.254   0.856  52.851  1.00  0.00     0.087 C 
HETATM    2  N1  UNL     1      26.392   2.119  52.489  1.00  0.00    -0.172 NA
ENDROOT
BRANCH   1   3
HETATM    3  C7  UNL     1      24.856   0.546  52.943  1.00  0.00     0.035 C 
HETATM    4  C6  UNL     1      23.958  -0.249  53.447  1.00  0.00     0.014 C 
BRANCH   4   5
HETATM    5  C5  UNL     1      22.527  -0.447  53.452  1.00  0.00    -0.036 A 
HETATM    6  C4  UNL     1      21.977  -1.337  54.333  1.00  0.00     0.014 A 
HETATM    7  C3  UNL     1      20.608  -1.445  54.249  1.00  0.00     0.037 A 
HETATM    8  C2  UNL     1      19.858  -0.716  53.353  1.00  0.00     0.068 A 
HETATM    9  C17 UNL     1      20.451   0.173  52.480  1.00  0.00     0.037 A 
HETATM   10  C16 UNL     1      21.818   0.303  52.538  1.00  0.00     0.014 A 
BRANCH   8  11
HETATM   11  O1  UNL     1      18.486  -0.917  53.369  1.00  0.00    -0.356 OA
HETATM   12  C1  UNL     1      17.963  -2.233  53.583  1.00  0.00     0.210 C 
ENDBRANCH   8  11
ENDBRANCH   4   5
ENDBRANCH   1   3
BRANCH   1  13
HETATM   13  C10 UNL     1      27.464   0.090  53.067  1.00  0.00    -0.006 A 
HETATM   14  C11 UNL     1      27.684  -1.252  52.966  1.00  0.00     0.014 A 
HETATM   15  C12 UNL     1      28.862  -1.918  53.186  1.00  0.00     0.001 A 
HETATM   16  C13 UNL     1      29.936  -1.141  53.548  1.00  0.00     0.000 A 
HETATM   17  C14 UNL     1      29.825   0.216  53.678  1.00  0.00     0.001 A 
HETATM   18  C15 UNL     1      28.601   0.778  53.434  1.00  0.00     0.014 A 
ENDBRANCH   1  13
BRANCH   2  19
HETATM   19  N2  UNL     1      25.222   2.847  52.284  1.00  0.00    -0.253 N 
HETATM   20  H8  UNL     1      24.265   3.218  52.557  1.00  0.00     0.191 HD
BRANCH  19  21
HETATM   21  C9  UNL     1      25.439   3.395  50.978  1.00  0.00     0.185 C 
HETATM   22  S1  UNL     1      24.598   3.556  49.575  1.00  0.00    -0.040 SA
BRANCH  21  23
HETATM   23  N3  UNL     1      26.558   4.060  50.357  1.00  0.00    -0.375 N 
HETATM   24  H9  UNL     1      26.634   4.851  49.659  1.00  0.00     0.158 HD
HETATM   25  H10 UNL     1      27.605   3.939  50.429  1.00  0.00     0.158 HD
ENDBRANCH  21  23
ENDBRANCH  19  21
ENDBRANCH   2  19
TORSDOF 7
ENDMDL
MODEL 2
REMARK VINA RESULT:      -7.8      3.826      7.573
REMARK  7 active torsions:
REMARK  status: ('A' for Active; 'I' for Inactive)
REMARK    1  A    between atoms: O1_2  and  C2_3 
REMARK    2  A    between atoms: C5_6  and  C6_7 
REMARK    3  A    between atoms: C7_8  and  C8_9 
REMARK    4  A    between atoms: C8_9  and  C10_15 
REMARK    5  A    between atoms: N1_10  and  N2_11 
REMARK    6  A    between atoms: N2_11  and  C9_12 
REMARK    7  A    between atoms: C9_12  and  N3_13 
ROOT
HETATM    1  C8  UNL     1      24.810   0.664  52.736  1.00  0.00     0.087 C 
HETATM    2  N1  UNL     1      25.832  -0.135  52.991  1.00  0.00    -0.172 NA
ENDROOT
BRANCH   1   3
HETATM    3  C7  UNL     1      25.259   1.749  51.913  1.00  0.00     0.035 C 
HETATM    4  C6  UNL     1      24.907   2.722  51.124  1.00  0.00     0.014 C 
BRANCH   4   5
HETATM    5  C5  UNL     1      25.495   3.779  50.332  1.00  0.00    -0.036 A 
HETATM    6  C4  UNL     1      24.883   5.000  50.286  1.00  0.00     0.014 A 
HETATM    7  C3  UNL     1      25.528   5.928  49.502  1.00  0.00     0.037 A 
HETATM    8  C2  UNL     1      26.694   5.646  48.823  1.00  0.00     0.068 A 
HETATM    9  C17 UNL     1      27.281   4.400  48.896  1.00  0.00     0.037 A 
HETATM   10  C16 UNL     1      26.659   3.450  49.671  1.00  0.00     0.014 A 
BRANCH   8  11
HETATM   11  O1  UNL     1      27.246   6.669  48.066  1.00  0.00    -0.356 OA
HETATM   12  C1  UNL     1      28.661   6.703  47.844  1.00  0.00     0.210 C 
ENDBRANCH   8  11
ENDBRANCH   4   5
ENDBRANCH   1   3
BRANCH   1  13
HETATM   13  C10 UNL     1      23.527   0.304  53.305  1.00  0.00    -0.006 A 
HETATM   14  C11 UNL     1      22.295   0.858  53.113  1.00  0.00     0.014 A 
HETATM   15  C12 UNL     1      21.113   0.467  53.687  1.00  0.00     0.001 A 
HETATM   16  C13 UNL     1      21.184  -0.603  54.547  1.00  0.00     0.000 A 
HETATM   17  C14 UNL     1      22.370  -1.231  54.810  1.00  0.00     0.001 A 
HETATM   18  C15 UNL     1      23.490  -0.758  54.183  1.00  0.00     0.014 A 
ENDBRANCH   1  13
BRANCH   2  19
HETATM   19  N2  UNL     1      27.061   0.221  52.440  1.00  0.00    -0.253 N 
HETATM   20  H8  UNL     1      27.691   0.644  51.697  1.00  0.00     0.191 HD
BRANCH  19  21
HETATM   21  C9  UNL     1      27.978  -0.253  53.435  1.00  0.00     0.185 C 
HETATM   22  S1  UNL     1      29.392  -1.090  53.480  1.00  0.00    -0.040 SA
BRANCH  21  23
HETATM   23  N3  UNL     1      28.010  -0.166  54.874  1.00  0.00    -0.375 N 
HETATM   24  H9  UNL     1      28.050  -0.891  55.642  1.00  0.00     0.158 HD
HETATM   25  H10 UNL     1      28.002   0.645  55.552  1.00  0.00     0.158 HD
ENDBRANCH  21  23
ENDBRANCH  19  21
ENDBRANCH   2  19
TORSDOF 7
ENDMDL
MODEL 3
REMARK VINA RESULT:      -7.4      3.568      6.062
REMARK  7 active torsions:
REMARK  status: ('A' for Active; 'I' for Inactive)
REMARK    1  A    between atoms: O1_2  and  C2_3 
REMARK    2  A    between atoms: C5_6  and  C6_7 
REMARK    3  A    between atoms: C7_8  and  C8_9 
REMARK    4  A    between atoms: C8_9  and  C10_15 
REMARK    5  A    between atoms: N1_10  and  N2_11 
REMARK    6  A    between atoms: N2_11  and  C9_12 
REMARK    7  A    between atoms: C9_12  and  N3_13 
ROOT
HETATM    1  C8  UNL     1      26.055   0.088  52.701  1.00  0.00     0.087 C 
HETATM    2  N1  UNL     1      24.949  -0.282  53.324  1.00  0.00    -0.172 NA
ENDROOT
BRANCH   1   3
HETATM    3  C7  UNL     1      25.780   1.256  51.915  1.00  0.00     0.035 C 
HETATM    4  C6  UNL     1      26.263   2.141  51.093  1.00  0.00     0.014 C 
BRANCH   4   5
HETATM    5  C5  UNL     1      25.850   3.311  50.351  1.00  0.00    -0.036 A 
HETATM    6  C4  UNL     1      24.540   3.701  50.391  1.00  0.00     0.014 A 
HETATM    7  C3  UNL     1      24.261   4.824  49.649  1.00  0.00     0.037 A 
HETATM    8  C2  UNL     1      25.223   5.498  48.928  1.00  0.00     0.068 A 
HETATM    9  C17 UNL     1      26.536   5.073  48.914  1.00  0.00     0.037 A 
HETATM   10  C16 UNL     1      26.847   3.951  49.646  1.00  0.00     0.014 A 
BRANCH   8  11
HETATM   11  O1  UNL     1      24.812   6.618  48.220  1.00  0.00    -0.356 OA
HETATM   12  C1  UNL     1      23.492   6.664  47.667  1.00  0.00     0.210 C 
ENDBRANCH   8  11
ENDBRANCH   4   5
ENDBRANCH   1   3
BRANCH   1  13
HETATM   13  C10 UNL     1      27.242  -0.711  52.924  1.00  0.00    -0.006 A 
HETATM   14  C11 UNL     1      27.444  -2.049  52.758  1.00  0.00     0.014 A 
HETATM   15  C12 UNL     1      28.602  -2.748  52.990  1.00  0.00     0.001 A 
HETATM   16  C13 UNL     1      29.672  -2.011  53.438  1.00  0.00     0.000 A 
HETATM   17  C14 UNL     1      29.576  -0.661  53.639  1.00  0.00     0.001 A 
HETATM   18  C15 UNL     1      28.373  -0.065  53.376  1.00  0.00     0.014 A 
ENDBRANCH   1  13
BRANCH   2  19
HETATM   19  N2  UNL     1      23.812   0.493  53.101  1.00  0.00    -0.253 N 
HETATM   20  H8  UNL     1      23.271   1.296  52.666  1.00  0.00     0.191 HD
BRANCH  19  21
HETATM   21  C9  UNL     1      22.838  -0.171  53.918  1.00  0.00     0.185 C 
HETATM   22  S1  UNL     1      21.206  -0.162  54.106  1.00  0.00    -0.040 SA
BRANCH  21  23
HETATM   23  N3  UNL     1      22.930  -1.168  54.955  1.00  0.00    -0.375 N 
HETATM   24  H9  UNL     1      22.251  -1.514  55.689  1.00  0.00     0.158 HD
HETATM   25  H10 UNL     1      23.698  -1.824  55.265  1.00  0.00     0.158 HD
ENDBRANCH  21  23
ENDBRANCH  19  21
ENDBRANCH   2  19
TORSDOF 7
ENDMDL
MODEL 4
REMARK VINA RESULT:      -7.4      4.168      7.880
REMARK  7 active torsions:
REMARK  status: ('A' for Active; 'I' for Inactive)
REMARK    1  A    between atoms: O1_2  and  C2_3 
REMARK    2  A    between atoms: C5_6  and  C6_7 
REMARK    3  A    between atoms: C7_8  and  C8_9 
REMARK    4  A    between atoms: C8_9  and  C10_15 
REMARK    5  A    between atoms: N1_10  and  N2_11 
REMARK    6  A    between atoms: N2_11  and  C9_12 
REMARK    7  A    between atoms: C9_12  and  N3_13 
ROOT
HETATM    1  C8  UNL     1      25.334   1.880  52.578  1.00  0.00     0.087 C 
HETATM    2  N1  UNL     1      26.341   1.669  53.407  1.00  0.00    -0.172 NA
ENDROOT
BRANCH   1   3
HETATM    3  C7  UNL     1      25.691   2.930  51.668  1.00  0.00     0.035 C 
HETATM    4  C6  UNL     1      25.538   3.419  50.471  1.00  0.00     0.014 C 
BRANCH   4   5
HETATM    5  C5  UNL     1      25.979   4.532  49.661  1.00  0.00    -0.036 A 
HETATM    6  C4  UNL     1      25.130   5.581  49.446  1.00  0.00     0.014 A 
HETATM    7  C3  UNL     1      25.654   6.582  48.662  1.00  0.00     0.037 A 
HETATM    8  C2  UNL     1      26.928   6.528  48.139  1.00  0.00     0.068 A 
HETATM    9  C17 UNL     1      27.755   5.451  48.380  1.00  0.00     0.037 A 
HETATM   10  C16 UNL     1      27.260   4.433  49.161  1.00  0.00     0.014 A 
BRANCH   8  11
HETATM   11  O1  UNL     1      27.337   7.603  47.363  1.00  0.00    -0.356 OA
HETATM   12  C1  UNL     1      28.726   7.947  47.304  1.00  0.00     0.210 C 
ENDBRANCH   8  11
ENDBRANCH   4   5
ENDBRANCH   1   3
BRANCH   1  13
HETATM   13  C10 UNL     1      24.151   1.060  52.745  1.00  0.00    -0.006 A 
HETATM   14  C11 UNL     1      24.024  -0.210  53.225  1.00  0.00     0.014 A 
HETATM   15  C12 UNL     1      22.867  -0.934  53.358  1.00  0.00     0.001 A 
HETATM   16  C13 UNL     1      21.712  -0.302  52.963  1.00  0.00     0.000 A 
HETATM   17  C14 UNL     1      21.728   0.972  52.467  1.00  0.00     0.001 A 
HETATM   18  C15 UNL     1      22.939   1.603  52.377  1.00  0.00     0.014 A 
ENDBRANCH   1  13
BRANCH   2  19
HETATM   19  N2  UNL     1      27.473   2.463  53.238  1.00  0.00    -0.253 N 
HETATM   20  H8  UNL     1      28.008   3.301  52.864  1.00  0.00     0.191 HD
BRANCH  19  21
HETATM   21  C9  UNL     1      28.457   1.739  53.988  1.00  0.00     0.185 C 
HETATM   22  S1  UNL     1      28.723   0.187  54.458  1.00  0.00    -0.040 SA
BRANCH  21  23
HETATM   23  N3  UNL     1      29.670   2.127  54.663  1.00  0.00    -0.375 N 
HETATM   24  H9  UNL     1      30.224   3.028  54.698  1.00  0.00     0.158 HD
HETATM   25  H10 UNL     1      30.337   1.619  55.307  1.00  0.00     0.158 HD
ENDBRANCH  21  23
ENDBRANCH  19  21
ENDBRANCH   2  19
TORSDOF 7
ENDMDL
MODEL 5
REMARK VINA RESULT:      -7.1      3.717      6.231
REMARK  7 active torsions:
REMARK  status: ('A' for Active; 'I' for Inactive)
REMARK    1  A    between atoms: O1_2  and  C2_3 
REMARK    2  A    between atoms: C5_6  and  C6_7 
REMARK    3  A    between atoms: C7_8  and  C8_9 
REMARK    4  A    between atoms: C8_9  and  C10_15 
REMARK    5  A    between atoms: N1_10  and  N2_11 
REMARK    6  A    between atoms: N2_11  and  C9_12 
REMARK    7  A    between atoms: C9_12  and  N3_13 
ROOT
HETATM    1  C8  UNL     1      26.055   5.308  49.215  1.00  0.00     0.087 C 
HETATM    2  N1  UNL     1      24.948   5.988  48.969  1.00  0.00    -0.172 NA
ENDROOT
BRANCH   1   3
HETATM    3  C7  UNL     1      25.744   4.210  50.083  1.00  0.00     0.035 C 
HETATM    4  C6  UNL     1      26.148   3.073  50.572  1.00  0.00     0.014 C 
BRANCH   4   5
HETATM    5  C5  UNL     1      25.709   2.033  51.475  1.00  0.00    -0.036 A 
HETATM    6  C4  UNL     1      26.590   1.057  51.850  1.00  0.00     0.014 A 
HETATM    7  C3  UNL     1      26.065   0.121  52.710  1.00  0.00     0.037 A 
HETATM    8  C2  UNL     1      24.761   0.166  53.154  1.00  0.00     0.068 A 
HETATM    9  C17 UNL     1      23.903   1.170  52.753  1.00  0.00     0.037 A 
HETATM   10  C16 UNL     1      24.398   2.121  51.892  1.00  0.00     0.014 A 
BRANCH   8  11
HETATM   11  O1  UNL     1      24.354  -0.838  54.020  1.00  0.00    -0.356 OA
HETATM   12  C1  UNL     1      22.979  -0.926  54.409  1.00  0.00     0.210 C 
ENDBRANCH   8  11
ENDBRANCH   4   5
ENDBRANCH   1   3
BRANCH   1  13
HETATM   13  C10 UNL     1      27.278   5.781  48.599  1.00  0.00    -0.006 A 
HETATM   14  C11 UNL     1      28.489   5.169  48.468  1.00  0.00     0.014 A 
HETATM   15  C12 UNL     1      29.614   5.676  47.870  1.00  0.00     0.001 A 
HETATM   16  C13 UNL     1      29.500   6.941  47.345  1.00  0.00     0.000 A 
HETATM   17  C14 UNL     1      28.329   7.644  47.422  1.00  0.00     0.001 A 
HETATM   18  C15 UNL     1      27.268   7.043  48.042  1.00  0.00     0.014 A 
ENDBRANCH   1  13
BRANCH   2  19
HETATM   19  N2  UNL     1      23.778   5.525  49.567  1.00  0.00    -0.253 N 
HETATM   20  H8  UNL     1      23.027   4.802  49.768  1.00  0.00     0.191 HD
BRANCH  19  21
HETATM   21  C9  UNL     1      23.368   6.664  50.334  1.00  0.00     0.185 C 
HETATM   22  S1  UNL     1      22.064   7.661  50.422  1.00  0.00    -0.040 SA
BRANCH  21  23
HETATM   23  N3  UNL     1      23.988   7.419  51.394  1.00  0.00    -0.375 N 
HETATM   24  H9  UNL     1      24.453   8.369  51.431  1.00  0.00     0.158 HD
HETATM   25  H10 UNL     1      24.148   7.231  52.422  1.00  0.00     0.158 HD
ENDBRANCH  21  23
ENDBRANCH  19  21
ENDBRANCH   2  19
TORSDOF 7
ENDMDL
MODEL 6
REMARK VINA RESULT:      -7.0      4.712      8.088
REMARK  7 active torsions:
REMARK  status: ('A' for Active; 'I' for Inactive)
REMARK    1  A    between atoms: O1_2  and  C2_3 
REMARK    2  A    between atoms: C5_6  and  C6_7 
REMARK    3  A    between atoms: C7_8  and  C8_9 
REMARK    4  A    between atoms: C8_9  and  C10_15 
REMARK    5  A    between atoms: N1_10  and  N2_11 
REMARK    6  A    between atoms: N2_11  and  C9_12 
REMARK    7  A    between atoms: C9_12  and  N3_13 
ROOT
HETATM    1  C8  UNL     1      24.968   2.441  51.129  1.00  0.00     0.087 C 
HETATM    2  N1  UNL     1      23.657   2.591  51.053  1.00  0.00    -0.172 NA
ENDROOT
BRANCH   1   3
HETATM    3  C7  UNL     1      25.603   3.529  50.443  1.00  0.00     0.035 C 
HETATM    4  C6  UNL     1      26.348   3.882  49.436  1.00  0.00     0.014 C 
BRANCH   4   5
HETATM    5  C5  UNL     1      26.930   5.066  48.846  1.00  0.00    -0.036 A 
HETATM    6  C4  UNL     1      26.144   6.165  48.633  1.00  0.00     0.014 A 
HETATM    7  C3  UNL     1      26.802   7.232  48.067  1.00  0.00     0.037 A 
HETATM    8  C2  UNL     1      28.141   7.193  47.744  1.00  0.00     0.068 A 
HETATM    9  C17 UNL     1      28.901   6.065  47.975  1.00  0.00     0.037 A 
HETATM   10  C16 UNL     1      28.272   4.981  48.540  1.00  0.00     0.014 A 
BRANCH   8  11
HETATM   11  O1  UNL     1      28.686   8.337  47.178  1.00  0.00    -0.356 OA
HETATM   12  C1  UNL     1      30.008   8.296  46.629  1.00  0.00     0.210 C 
ENDBRANCH   8  11
ENDBRANCH   4   5
ENDBRANCH   1   3
BRANCH   1  13
HETATM   13  C10 UNL     1      25.466   1.283  51.843  1.00  0.00    -0.006 A 
HETATM   14  C11 UNL     1      26.699   0.701  51.820  1.00  0.00     0.014 A 
HETATM   15  C12 UNL     1      27.107  -0.403  52.525  1.00  0.00     0.001 A 
HETATM   16  C13 UNL     1      26.164  -0.979  53.343  1.00  0.00     0.000 A 
HETATM   17  C14 UNL     1      24.897  -0.474  53.439  1.00  0.00     0.001 A 
HETATM   18  C15 UNL     1      24.596   0.631  52.691  1.00  0.00     0.014 A 
ENDBRANCH   1  13
BRANCH   2  19
HETATM   19  N2  UNL     1      23.189   3.708  50.364  1.00  0.00    -0.253 N 
HETATM   20  H8  UNL     1      23.146   4.375  49.539  1.00  0.00     0.191 HD
BRANCH  19  21
HETATM   21  C9  UNL     1      22.241   4.251  51.291  1.00  0.00     0.185 C 
HETATM   22  S1  UNL     1      20.740   3.879  51.848  1.00  0.00    -0.040 SA
BRANCH  21  23
HETATM   23  N3  UNL     1      22.245   5.412  52.146  1.00  0.00    -0.375 N 
HETATM   24  H9  UNL     1      22.216   6.452  51.956  1.00  0.00     0.158 HD
HETATM   25  H10 UNL     1      22.277   5.540  53.195  1.00  0.00     0.158 HD
ENDBRANCH  21  23
ENDBRANCH  19  21
ENDBRANCH   2  19
TORSDOF 7
ENDMDL
MODEL 7
REMARK VINA RESULT:      -7.0      6.489      8.593
REMARK  7 active torsions:
REMARK  status: ('A' for Active; 'I' for Inactive)
REMARK    1  A    between atoms: O1_2  and  C2_3 
REMARK    2  A    between atoms: C5_6  and  C6_7 
REMARK    3  A    between atoms: C7_8  and  C8_9 
REMARK    4  A    between atoms: C8_9  and  C10_15 
REMARK    5  A    between atoms: N1_10  and  N2_11 
REMARK    6  A    between atoms: N2_11  and  C9_12 
REMARK    7  A    between atoms: C9_12  and  N3_13 
ROOT
HETATM    1  C8  UNL     1      30.499   6.076  48.003  1.00  0.00     0.087 C 
HETATM    2  N1  UNL     1      30.897   7.201  48.570  1.00  0.00    -0.172 NA
ENDROOT
BRANCH   1   3
HETATM    3  C7  UNL     1      29.129   5.837  48.351  1.00  0.00     0.035 C 
HETATM    4  C6  UNL     1      28.205   4.940  48.545  1.00  0.00     0.014 C 
BRANCH   4   5
HETATM    5  C5  UNL     1      26.809   4.844  48.908  1.00  0.00    -0.036 A 
HETATM    6  C4  UNL     1      25.986   5.914  48.692  1.00  0.00     0.014 A 
HETATM    7  C3  UNL     1      24.681   5.710  49.075  1.00  0.00     0.037 A 
HETATM    8  C2  UNL     1      24.244   4.527  49.629  1.00  0.00     0.068 A 
HETATM    9  C17 UNL     1      25.107   3.469  49.830  1.00  0.00     0.037 A 
HETATM   10  C16 UNL     1      26.419   3.642  49.458  1.00  0.00     0.014 A 
BRANCH   8  11
HETATM   11  O1  UNL     1      22.902   4.448  49.972  1.00  0.00    -0.356 OA
HETATM   12  C1  UNL     1      22.389   5.276  51.023  1.00  0.00     0.210 C 
ENDBRANCH   8  11
ENDBRANCH   4   5
ENDBRANCH   1   3
BRANCH   1  13
HETATM   13  C10 UNL     1      31.466   5.358  47.197  1.00  0.00    -0.006 A 
HETATM   14  C11 UNL     1      31.728   4.022  47.122  1.00  0.00     0.014 A 
HETATM   15  C12 UNL     1      32.664   3.404  46.333  1.00  0.00     0.001 A 
HETATM   16  C13 UNL     1      33.417   4.229  45.532  1.00  0.00     0.000 A 
HETATM   17  C14 UNL     1      33.236   5.585  45.530  1.00  0.00     0.001 A 
HETATM   18  C15 UNL     1      32.273   6.096  46.358  1.00  0.00     0.014 A 
ENDBRANCH   1  13
BRANCH   2  19
HETATM   19  N2  UNL     1      29.960   7.882  49.344  1.00  0.00    -0.253 N 
HETATM   20  H8  UNL     1      29.091   7.957  49.950  1.00  0.00     0.191 HD
BRANCH  19  21
HETATM   21  C9  UNL     1      30.445   9.229  49.278  1.00  0.00     0.185 C 
HETATM   22  S1  UNL     1      30.983  10.269  48.124  1.00  0.00    -0.040 SA
BRANCH  21  23
HETATM   23  N3  UNL     1      30.661  10.254  50.269  1.00  0.00    -0.375 N 
HETATM   24  H9  UNL     1      31.190  11.170  50.261  1.00  0.00     0.158 HD
HETATM   25  H10 UNL     1      30.349  10.370  51.272  1.00  0.00     0.158 HD
ENDBRANCH  21  23
ENDBRANCH  19  21
ENDBRANCH   2  19
TORSDOF 7
ENDMDL
MODEL 8
REMARK VINA RESULT:      -7.0      3.555      6.251
REMARK  7 active torsions:
REMARK  status: ('A' for Active; 'I' for Inactive)
REMARK    1  A    between atoms: O1_2  and  C2_3 
REMARK    2  A    between atoms: C5_6  and  C6_7 
REMARK    3  A    between atoms: C7_8  and  C8_9 
REMARK    4  A    between atoms: C8_9  and  C10_15 
REMARK    5  A    between atoms: N1_10  and  N2_11 
REMARK    6  A    between atoms: N2_11  and  C9_12 
REMARK    7  A    between atoms: C9_12  and  N3_13 
ROOT
HETATM    1  C8  UNL     1      25.587   4.643  49.377  1.00  0.00     0.087 C 
HETATM    2  N1  UNL     1      24.350   4.877  48.977  1.00  0.00    -0.172 NA
ENDROOT
BRANCH   1   3
HETATM    3  C7  UNL     1      25.570   3.598  50.360  1.00  0.00     0.035 C 
HETATM    4  C6  UNL     1      26.183   2.553  50.834  1.00  0.00     0.014 C 
BRANCH   4   5
HETATM    5  C5  UNL     1      26.041   1.557  51.872  1.00  0.00    -0.036 A 
HETATM    6  C4  UNL     1      27.149   0.892  52.319  1.00  0.00     0.014 A 
HETATM    7  C3  UNL     1      26.896  -0.032  53.306  1.00  0.00     0.037 A 
HETATM    8  C2  UNL     1      25.631  -0.265  53.800  1.00  0.00     0.068 A 
HETATM    9  C17 UNL     1      24.537   0.428  53.323  1.00  0.00     0.037 A 
HETATM   10  C16 UNL     1      24.758   1.359  52.335  1.00  0.00     0.014 A 
BRANCH   8  11
HETATM   11  O1  UNL     1      25.510  -1.224  54.795  1.00  0.00    -0.356 OA
HETATM   12  C1  UNL     1      24.310  -1.290  55.575  1.00  0.00     0.210 C 
ENDBRANCH   8  11
ENDBRANCH   4   5
ENDBRANCH   1   3
BRANCH   1  13
HETATM   13  C10 UNL     1      26.641   5.438  48.781  1.00  0.00    -0.006 A 
HETATM   14  C11 UNL     1      26.611   6.710  48.292  1.00  0.00     0.014 A 
HETATM   15  C12 UNL     1      27.652   7.409  47.737  1.00  0.00     0.001 A 
HETATM   16  C13 UNL     1      28.855   6.748  47.669  1.00  0.00     0.000 A 
HETATM   17  C14 UNL     1      28.994   5.468  48.131  1.00  0.00     0.001 A 
HETATM   18  C15 UNL     1      27.889   4.864  48.667  1.00  0.00     0.014 A 
ENDBRANCH   1  13
BRANCH   2  19
HETATM   19  N2  UNL     1      23.343   4.107  49.556  1.00  0.00    -0.253 N 
HETATM   20  H8  UNL     1      22.908   3.202  49.900  1.00  0.00     0.191 HD
BRANCH  19  21
HETATM   21  C9  UNL     1      22.346   5.095  49.847  1.00  0.00     0.185 C 
HETATM   22  S1  UNL     1      20.876   5.155  50.580  1.00  0.00    -0.040 SA
BRANCH  21  23
HETATM   23  N3  UNL     1      22.249   6.510  49.588  1.00  0.00    -0.375 N 
HETATM   24  H9  UNL     1      22.563   7.368  50.123  1.00  0.00     0.158 HD
HETATM   25  H10 UNL     1      21.841   7.076  48.795  1.00  0.00     0.158 HD
ENDBRANCH  21  23
ENDBRANCH  19  21
ENDBRANCH   2  19
TORSDOF 7
ENDMDL
MODEL 9
REMARK VINA RESULT:      -7.0      3.098      7.266
REMARK  7 active torsions:
REMARK  status: ('A' for Active; 'I' for Inactive)
REMARK    1  A    between atoms: O1_2  and  C2_3 
REMARK    2  A    between atoms: C5_6  and  C6_7 
REMARK    3  A    between atoms: C7_8  and  C8_9 
REMARK    4  A    between atoms: C8_9  and  C10_15 
REMARK    5  A    between atoms: N1_10  and  N2_11 
REMARK    6  A    between atoms: N2_11  and  C9_12 
REMARK    7  A    between atoms: C9_12  and  N3_13 
ROOT
HETATM    1  C8  UNL     1      21.548   1.425  51.932  1.00  0.00     0.087 C 
HETATM    2  N1  UNL     1      21.478   2.607  51.346  1.00  0.00    -0.172 NA
ENDROOT
BRANCH   1   3
HETATM    3  C7  UNL     1      22.899   1.192  52.353  1.00  0.00     0.035 C 
HETATM    4  C6  UNL     1      23.804   0.299  52.631  1.00  0.00     0.014 C 
BRANCH   4   5
HETATM    5  C5  UNL     1      25.181   0.209  53.061  1.00  0.00    -0.036 A 
HETATM    6  C4  UNL     1      26.179   0.271  52.128  1.00  0.00     0.014 A 
HETATM    7  C3  UNL     1      27.448   0.175  52.649  1.00  0.00     0.037 A 
HETATM    8  C2  UNL     1      27.689   0.027  53.998  1.00  0.00     0.068 A 
HETATM    9  C17 UNL     1      26.653  -0.031  54.908  1.00  0.00     0.037 A 
HETATM   10  C16 UNL     1      25.372   0.062  54.418  1.00  0.00     0.014 A 
BRANCH   8  11
HETATM   11  O1  UNL     1      29.015  -0.059  54.396  1.00  0.00    -0.356 OA
HETATM   12  C1  UNL     1      29.885  -1.007  53.767  1.00  0.00     0.210 C 
ENDBRANCH   8  11
ENDBRANCH   4   5
ENDBRANCH   1   3
BRANCH   1  13
HETATM   13  C10 UNL     1      20.324   0.655  52.025  1.00  0.00    -0.006 A 
HETATM   14  C11 UNL     1      19.266   0.582  51.168  1.00  0.00     0.014 A 
HETATM   15  C12 UNL     1      18.130  -0.172  51.316  1.00  0.00     0.001 A 
HETATM   16  C13 UNL     1      18.058  -0.937  52.456  1.00  0.00     0.000 A 
HETATM   17  C14 UNL     1      19.065  -0.938  53.381  1.00  0.00     0.001 A 
HETATM   18  C15 UNL     1      20.154  -0.148  53.133  1.00  0.00     0.014 A 
ENDBRANCH   1  13
BRANCH   2  19
HETATM   19  N2  UNL     1      22.660   3.340  51.262  1.00  0.00    -0.253 N 
HETATM   20  H8  UNL     1      23.715   3.453  51.213  1.00  0.00     0.191 HD
BRANCH  19  21
HETATM   21  C9  UNL     1      22.171   4.686  51.217  1.00  0.00     0.185 C 
HETATM   22  S1  UNL     1      20.966   5.514  50.465  1.00  0.00    -0.040 SA
BRANCH  21  23
HETATM   23  N3  UNL     1      22.580   5.910  51.860  1.00  0.00    -0.375 N 
HETATM   24  H9  UNL     1      22.815   6.876  51.497  1.00  0.00     0.158 HD
HETATM   25  H10 UNL     1      22.755   6.177  52.867  1.00  0.00     0.158 HD
ENDBRANCH  21  23
ENDBRANCH  19  21
ENDBRANCH   2  19
TORSDOF 7
ENDMDL
