MODEL 1
REMARK VINA RESULT:      -7.1      0.000      0.000
REMARK  8 active torsions:
REMARK  status: ('A' for Active; 'I' for Inactive)
REMARK    1  A    between atoms: C2_2  and  C3_3 
REMARK    2  A    between atoms: C3_3  and  C4_4 
REMARK    3  A    between atoms: C4_4  and  N1_5 
REMARK    4  A    between atoms: N1_5  and  C5_6 
REMARK    5  A    between atoms: N1_5  and  C12_15 
REMARK    6  A    between atoms: C5_6  and  N2_8 
REMARK    7  A    between atoms: N2_8  and  C6_9 
REMARK    8  A    between atoms: C17_21  and  O1_22 
ROOT
HETATM    1  N1  UNL     1      26.334   2.090  52.033  1.00  0.00    -0.321 N 
ENDROOT
BRANCH   1   2
HETATM    2  C4  UNL     1      26.708   3.130  51.071  1.00  0.00     0.132 C 
BRANCH   2   3
HETATM    3  C3  UNL     1      26.058   2.971  49.737  1.00  0.00     0.020 C 
BRANCH   3   4
HETATM    4  C2  UNL     1      25.661   4.368  49.283  1.00  0.00    -0.003 C 
HETATM    5  C1  UNL     1      26.849   5.175  48.835  1.00  0.00     0.005 C 
ENDBRANCH   3   4
ENDBRANCH   2   3
ENDBRANCH   1   2
BRANCH   1   6
HETATM    6  C5  UNL     1      24.942   2.010  52.287  1.00  0.00     0.179 C 
HETATM    7  S1  UNL     1      24.088   3.274  52.915  1.00  0.00    -0.040 SA
BRANCH   6   8
HETATM    8  N2  UNL     1      24.028   0.950  52.040  1.00  0.00    -0.333 N 
HETATM    9  H10 UNL     1      23.985   0.689  51.025  1.00  0.00     0.168 HD
BRANCH   8  10
HETATM   10  C6  UNL     1      23.178   0.196  52.889  1.00  0.00     0.034 A 
HETATM   11  C7  UNL     1      23.680  -0.448  54.014  1.00  0.00     0.029 A 
HETATM   12  C8  UNL     1      22.867  -1.161  54.878  1.00  0.00     0.002 A 
HETATM   13  C9  UNL     1      21.508  -1.196  54.554  1.00  0.00     0.000 A 
HETATM   14  C10 UNL     1      21.009  -0.561  53.441  1.00  0.00     0.002 A 
HETATM   15  C11 UNL     1      21.829   0.145  52.591  1.00  0.00     0.029 A 
ENDBRANCH   8  10
ENDBRANCH   6   8
ENDBRANCH   1   6
BRANCH   1  16
HETATM   16  C12 UNL     1      27.273   1.227  52.659  1.00  0.00     0.071 A 
HETATM   17  C13 UNL     1      28.119   1.982  53.481  1.00  0.00     0.033 A 
HETATM   18  C14 UNL     1      29.133   1.367  54.210  1.00  0.00     0.004 A 
HETATM   19  C15 UNL     1      29.347   0.001  54.155  1.00  0.00     0.022 A 
HETATM   20  C16 UNL     1      28.484  -0.718  53.325  1.00  0.00     0.046 A 
HETATM   21 BR1  UNL     1      28.668  -2.599  53.156  1.00  0.00    -0.048 Br
HETATM   22  C17 UNL     1      27.486  -0.126  52.606  1.00  0.00     0.110 A 
BRANCH  22  23
HETATM   23  O1  UNL     1      26.591  -0.757  51.765  1.00  0.00    -0.357 OA
HETATM   24  H19 UNL     1      26.447  -1.734  51.883  1.00  0.00     0.217 HD
ENDBRANCH  22  23
ENDBRANCH   1  16
TORSDOF 8
ENDMDL
MODEL 2
REMARK VINA RESULT:      -6.9      1.908      5.585
REMARK  8 active torsions:
REMARK  status: ('A' for Active; 'I' for Inactive)
REMARK    1  A    between atoms: C2_2  and  C3_3 
REMARK    2  A    between atoms: C3_3  and  C4_4 
REMARK    3  A    between atoms: C4_4  and  N1_5 
REMARK    4  A    between atoms: N1_5  and  C5_6 
REMARK    5  A    between atoms: N1_5  and  C12_15 
REMARK    6  A    between atoms: C5_6  and  N2_8 
REMARK    7  A    between atoms: N2_8  and  C6_9 
REMARK    8  A    between atoms: C17_21  and  O1_22 
ROOT
HETATM    1  N1  UNL     1      23.651   1.174  52.697  1.00  0.00    -0.321 N 
ENDROOT
BRANCH   1   2
HETATM    2  C4  UNL     1      22.619   0.612  53.572  1.00  0.00     0.132 C 
BRANCH   2   3
HETATM    3  C3  UNL     1      21.990  -0.629  53.032  1.00  0.00     0.020 C 
BRANCH   3   4
HETATM    4  C2  UNL     1      21.788  -1.560  54.220  1.00  0.00    -0.003 C 
HETATM    5  C1  UNL     1      22.823  -1.342  55.289  1.00  0.00     0.005 C 
ENDBRANCH   3   4
ENDBRANCH   2   3
ENDBRANCH   1   2
BRANCH   1   6
HETATM    6  C5  UNL     1      23.149   2.026  51.682  1.00  0.00     0.179 C 
HETATM    7  S1  UNL     1      21.780   2.925  51.886  1.00  0.00    -0.040 SA
BRANCH   6   8
HETATM    8  N2  UNL     1      23.673   2.322  50.395  1.00  0.00    -0.333 N 
HETATM    9  H10 UNL     1      23.296   1.681  49.655  1.00  0.00     0.168 HD
BRANCH   8  10
HETATM   10  C6  UNL     1      24.593   3.296  49.931  1.00  0.00     0.034 A 
HETATM   11  C7  UNL     1      25.956   3.027  49.886  1.00  0.00     0.029 A 
HETATM   12  C8  UNL     1      26.872   3.946  49.405  1.00  0.00     0.002 A 
HETATM   13  C9  UNL     1      26.347   5.165  48.966  1.00  0.00     0.000 A 
HETATM   14  C10 UNL     1      24.999   5.434  49.011  1.00  0.00     0.002 A 
HETATM   15  C11 UNL     1      24.099   4.510  49.491  1.00  0.00     0.029 A 
ENDBRANCH   8  10
ENDBRANCH   6   8
ENDBRANCH   1   6
BRANCH   1  16
HETATM   16  C12 UNL     1      25.037   0.904  52.847  1.00  0.00     0.071 A 
HETATM   17  C13 UNL     1      25.281  -0.442  52.546  1.00  0.00     0.033 A 
HETATM   18  C14 UNL     1      26.571  -0.962  52.617  1.00  0.00     0.004 A 
HETATM   19  C15 UNL     1      27.653  -0.183  52.985  1.00  0.00     0.022 A 
HETATM   20  C16 UNL     1      27.372   1.153  53.278  1.00  0.00     0.046 A 
HETATM   21 BR1  UNL     1      28.765   2.332  53.796  1.00  0.00    -0.048 Br
HETATM   22  C17 UNL     1      26.111   1.674  53.210  1.00  0.00     0.110 A 
BRANCH  22  23
HETATM   23  O1  UNL     1      25.745   2.977  53.480  1.00  0.00    -0.357 OA
HETATM   24  H19 UNL     1      26.330   3.708  53.145  1.00  0.00     0.217 HD
ENDBRANCH  22  23
ENDBRANCH   1  16
TORSDOF 8
ENDMDL
MODEL 3
REMARK VINA RESULT:      -6.7      2.741      4.706
REMARK  8 active torsions:
REMARK  status: ('A' for Active; 'I' for Inactive)
REMARK    1  A    between atoms: C2_2  and  C3_3 
REMARK    2  A    between atoms: C3_3  and  C4_4 
REMARK    3  A    between atoms: C4_4  and  N1_5 
REMARK    4  A    between atoms: N1_5  and  C5_6 
REMARK    5  A    between atoms: N1_5  and  C12_15 
REMARK    6  A    between atoms: C5_6  and  N2_8 
REMARK    7  A    between atoms: N2_8  and  C6_9 
REMARK    8  A    between atoms: C17_21  and  O1_22 
ROOT
HETATM    1  N1  UNL     1      26.606   1.260  52.570  1.00  0.00    -0.321 N 
ENDROOT
BRANCH   1   2
HETATM    2  C4  UNL     1      27.998   1.361  53.016  1.00  0.00     0.132 C 
BRANCH   2   3
HETATM    3  C3  UNL     1      28.171   1.156  54.484  1.00  0.00     0.020 C 
BRANCH   3   4
HETATM    4  C2  UNL     1      29.069  -0.062  54.646  1.00  0.00    -0.003 C 
HETATM    5  C1  UNL     1      29.920  -0.300  53.429  1.00  0.00     0.005 C 
ENDBRANCH   3   4
ENDBRANCH   2   3
ENDBRANCH   1   2
BRANCH   1   6
HETATM    6  C5  UNL     1      25.962   0.057  52.954  1.00  0.00     0.179 C 
HETATM    7  S1  UNL     1      26.411  -1.412  52.353  1.00  0.00    -0.040 SA
BRANCH   6   8
HETATM    8  N2  UNL     1      24.916  -0.160  53.890  1.00  0.00    -0.333 N 
HETATM    9  H10 UNL     1      25.260  -0.155  54.881  1.00  0.00     0.168 HD
BRANCH   8  10
HETATM   10  C6  UNL     1      23.523  -0.381  53.742  1.00  0.00     0.034 A 
HETATM   11  C7  UNL     1      22.798  -1.051  54.722  1.00  0.00     0.029 A 
HETATM   12  C8  UNL     1      21.432  -1.249  54.619  1.00  0.00     0.002 A 
HETATM   13  C9  UNL     1      20.821  -0.736  53.472  1.00  0.00     0.000 A 
HETATM   14  C10 UNL     1      21.535  -0.075  52.501  1.00  0.00     0.002 A 
HETATM   15  C11 UNL     1      22.894   0.116  52.616  1.00  0.00     0.029 A 
ENDBRANCH   8  10
ENDBRANCH   6   8
ENDBRANCH   1   6
BRANCH   1  16
HETATM   16  C12 UNL     1      25.946   2.272  51.824  1.00  0.00     0.071 A 
HETATM   17  C13 UNL     1      26.515   2.350  50.546  1.00  0.00     0.033 A 
HETATM   18  C14 UNL     1      26.042   3.270  49.615  1.00  0.00     0.004 A 
HETATM   19  C15 UNL     1      25.005   4.138  49.907  1.00  0.00     0.022 A 
HETATM   20  C16 UNL     1      24.464   4.032  51.190  1.00  0.00     0.046 A 
HETATM   21 BR1  UNL     1      23.037   5.163  51.722  1.00  0.00    -0.048 Br
HETATM   22  C17 UNL     1      24.919   3.132  52.111  1.00  0.00     0.110 A 
BRANCH  22  23
HETATM   23  O1  UNL     1      24.444   2.959  53.395  1.00  0.00    -0.357 OA
HETATM   24  H19 UNL     1      23.682   3.525  53.694  1.00  0.00     0.217 HD
ENDBRANCH  22  23
ENDBRANCH   1  16
TORSDOF 8
ENDMDL
MODEL 4
REMARK VINA RESULT:      -6.7      3.096      5.702
REMARK  8 active torsions:
REMARK  status: ('A' for Active; 'I' for Inactive)
REMARK    1  A    between atoms: C2_2  and  C3_3 
REMARK    2  A    between atoms: C3_3  and  C4_4 
REMARK    3  A    between atoms: C4_4  and  N1_5 
REMARK    4  A    between atoms: N1_5  and  C5_6 
REMARK    5  A    between atoms: N1_5  and  C12_15 
REMARK    6  A    between atoms: C5_6  and  N2_8 
REMARK    7  A    between atoms: N2_8  and  C6_9 
REMARK    8  A    between atoms: C17_21  and  O1_22 
ROOT
HETATM    1  N1  UNL     1      24.326   4.237  50.066  1.00  0.00    -0.321 N 
ENDROOT
BRANCH   1   2
HETATM    2  C4  UNL     1      23.230   3.528  49.401  1.00  0.00     0.132 C 
BRANCH   2   3
HETATM    3  C3  UNL     1      23.174   2.073  49.730  1.00  0.00     0.020 C 
BRANCH   3   4
HETATM    4  C2  UNL     1      21.719   1.761  50.050  1.00  0.00    -0.003 C 
HETATM    5  C1  UNL     1      21.587   0.592  50.988  1.00  0.00     0.005 C 
ENDBRANCH   3   4
ENDBRANCH   2   3
ENDBRANCH   1   2
BRANCH   1   6
HETATM    6  C5  UNL     1      24.389   4.022  51.465  1.00  0.00     0.179 C 
HETATM    7  S1  UNL     1      23.259   4.632  52.501  1.00  0.00    -0.040 SA
BRANCH   6   8
HETATM    8  N2  UNL     1      25.316   3.265  52.232  1.00  0.00    -0.333 N 
HETATM    9  H10 UNL     1      26.022   3.872  52.716  1.00  0.00     0.168 HD
BRANCH   8  10
HETATM   10  C6  UNL     1      25.466   1.874  52.461  1.00  0.00     0.034 A 
HETATM   11  C7  UNL     1      24.536   1.170  53.218  1.00  0.00     0.029 A 
HETATM   12  C8  UNL     1      24.639  -0.194  53.428  1.00  0.00     0.002 A 
HETATM   13  C9  UNL     1      25.734  -0.826  52.832  1.00  0.00     0.000 A 
HETATM   14  C10 UNL     1      26.656  -0.133  52.084  1.00  0.00     0.002 A 
HETATM   15  C11 UNL     1      26.540   1.224  51.883  1.00  0.00     0.029 A 
ENDBRANCH   8  10
ENDBRANCH   6   8
ENDBRANCH   1   6
BRANCH   1  16
HETATM   16  C12 UNL     1      25.254   5.065  49.381  1.00  0.00     0.071 A 
HETATM   17  C13 UNL     1      24.576   6.156  48.821  1.00  0.00     0.033 A 
HETATM   18  C14 UNL     1      25.266   7.121  48.093  1.00  0.00     0.004 A 
HETATM   19  C15 UNL     1      26.633   7.047  47.892  1.00  0.00     0.022 A 
HETATM   20  C16 UNL     1      27.274   5.947  48.464  1.00  0.00     0.046 A 
HETATM   21 BR1  UNL     1      29.147   5.722  48.264  1.00  0.00    -0.048 Br
HETATM   22  C17 UNL     1      26.608   4.994  49.181  1.00  0.00     0.110 A 
BRANCH  22  23
HETATM   23  O1  UNL     1      27.161   3.879  49.780  1.00  0.00    -0.357 OA
HETATM   24  H19 UNL     1      27.624   3.217  49.200  1.00  0.00     0.217 HD
ENDBRANCH  22  23
ENDBRANCH   1  16
TORSDOF 8
ENDMDL
MODEL 5
REMARK VINA RESULT:      -6.7      2.891      5.836
REMARK  8 active torsions:
REMARK  status: ('A' for Active; 'I' for Inactive)
REMARK    1  A    between atoms: C2_2  and  C3_3 
REMARK    2  A    between atoms: C3_3  and  C4_4 
REMARK    3  A    between atoms: C4_4  and  N1_5 
REMARK    4  A    between atoms: N1_5  and  C5_6 
REMARK    5  A    between atoms: N1_5  and  C12_15 
REMARK    6  A    between atoms: C5_6  and  N2_8 
REMARK    7  A    between atoms: N2_8  and  C6_9 
REMARK    8  A    between atoms: C17_21  and  O1_22 
ROOT
HETATM    1  N1  UNL     1      23.056   2.496  51.072  1.00  0.00    -0.321 N 
ENDROOT
BRANCH   1   2
HETATM    2  C4  UNL     1      22.371   2.234  49.804  1.00  0.00     0.132 C 
BRANCH   2   3
HETATM    3  C3  UNL     1      23.140   2.680  48.606  1.00  0.00     0.020 C 
BRANCH   3   4
HETATM    4  C2  UNL     1      22.222   3.611  47.827  1.00  0.00    -0.003 C 
HETATM    5  C1  UNL     1      22.769   5.010  47.753  1.00  0.00     0.005 C 
ENDBRANCH   3   4
ENDBRANCH   2   3
ENDBRANCH   1   2
BRANCH   1   6
HETATM    6  C5  UNL     1      23.283   3.870  51.334  1.00  0.00     0.179 C 
HETATM    7  S1  UNL     1      22.058   4.906  51.717  1.00  0.00    -0.040 SA
BRANCH   6   8
HETATM    8  N2  UNL     1      24.499   4.604  51.375  1.00  0.00    -0.333 N 
HETATM    9  H10 UNL     1      24.737   4.928  52.344  1.00  0.00     0.168 HD
BRANCH   8  10
HETATM   10  C6  UNL     1      25.432   4.977  50.374  1.00  0.00     0.034 A 
HETATM   11  C7  UNL     1      25.508   6.290  49.922  1.00  0.00     0.029 A 
HETATM   12  C8  UNL     1      26.431   6.689  48.972  1.00  0.00     0.002 A 
HETATM   13  C9  UNL     1      27.287   5.694  48.491  1.00  0.00     0.000 A 
HETATM   14  C10 UNL     1      27.214   4.395  48.935  1.00  0.00     0.002 A 
HETATM   15  C11 UNL     1      26.290   4.012  49.881  1.00  0.00     0.029 A 
ENDBRANCH   8  10
ENDBRANCH   6   8
ENDBRANCH   1   6
BRANCH   1  16
HETATM   16  C12 UNL     1      23.457   1.474  51.973  1.00  0.00     0.071 A 
HETATM   17  C13 UNL     1      24.830   1.239  51.825  1.00  0.00     0.033 A 
HETATM   18  C14 UNL     1      25.472   0.276  52.599  1.00  0.00     0.004 A 
HETATM   19  C15 UNL     1      24.791  -0.481  53.536  1.00  0.00     0.022 A 
HETATM   20  C16 UNL     1      23.425  -0.219  53.655  1.00  0.00     0.046 A 
HETATM   21 BR1  UNL     1      22.372  -1.187  54.902  1.00  0.00    -0.048 Br
HETATM   22  C17 UNL     1      22.785   0.723  52.902  1.00  0.00     0.110 A 
BRANCH  22  23
HETATM   23  O1  UNL     1      21.444   1.046  52.955  1.00  0.00    -0.357 OA
HETATM   24  H19 UNL     1      20.813   0.525  52.389  1.00  0.00     0.217 HD
ENDBRANCH  22  23
ENDBRANCH   1  16
TORSDOF 8
ENDMDL
MODEL 6
REMARK VINA RESULT:      -6.5      3.164      5.048
REMARK  8 active torsions:
REMARK  status: ('A' for Active; 'I' for Inactive)
REMARK    1  A    between atoms: C2_2  and  C3_3 
REMARK    2  A    between atoms: C3_3  and  C4_4 
REMARK    3  A    between atoms: C4_4  and  N1_5 
REMARK    4  A    between atoms: N1_5  and  C5_6 
REMARK    5  A    between atoms: N1_5  and  C12_15 
REMARK    6  A    between atoms: C5_6  and  N2_8 
REMARK    7  A    between atoms: N2_8  and  C6_9 
REMARK    8  A    between atoms: C17_21  and  O1_22 
ROOT
HETATM    1  N1  UNL     1      25.032   2.490  51.331  1.00  0.00    -0.321 N 
ENDROOT
BRANCH   1   2
HETATM    2  C4  UNL     1      25.951   1.532  51.950  1.00  0.00     0.132 C 
BRANCH   2   3
HETATM    3  C3  UNL     1      26.491   1.986  53.265  1.00  0.00     0.020 C 
BRANCH   3   4
HETATM    4  C2  UNL     1      26.426   0.783  54.195  1.00  0.00    -0.003 C 
HETATM    5  C1  UNL     1      26.783  -0.496  53.489  1.00  0.00     0.005 C 
ENDBRANCH   3   4
ENDBRANCH   2   3
ENDBRANCH   1   2
BRANCH   1   6
HETATM    6  C5  UNL     1      23.662   2.164  51.490  1.00  0.00     0.179 C 
HETATM    7  S1  UNL     1      22.672   1.875  50.202  1.00  0.00    -0.040 SA
BRANCH   6   8
HETATM    8  N2  UNL     1      22.899   1.977  52.674  1.00  0.00    -0.333 N 
HETATM    9  H10 UNL     1      22.823   2.856  53.242  1.00  0.00     0.168 HD
BRANCH   8  10
HETATM   10  C6  UNL     1      22.237   0.850  53.224  1.00  0.00     0.034 A 
HETATM   11  C7  UNL     1      20.850   0.816  53.327  1.00  0.00     0.029 A 
HETATM   12  C8  UNL     1      20.177  -0.284  53.827  1.00  0.00     0.002 A 
HETATM   13  C9  UNL     1      20.972  -1.363  54.223  1.00  0.00     0.000 A 
HETATM   14  C10 UNL     1      22.343  -1.332  54.123  1.00  0.00     0.002 A 
HETATM   15  C11 UNL     1      22.999  -0.231  53.623  1.00  0.00     0.029 A 
ENDBRANCH   8  10
ENDBRANCH   6   8
ENDBRANCH   1   6
BRANCH   1  16
HETATM   16  C12 UNL     1      25.462   3.652  50.636  1.00  0.00     0.071 A 
HETATM   17  C13 UNL     1      26.460   3.298  49.719  1.00  0.00     0.033 A 
HETATM   18  C14 UNL     1      27.051   4.263  48.907  1.00  0.00     0.004 A 
HETATM   19  C15 UNL     1      26.684   5.596  48.972  1.00  0.00     0.022 A 
HETATM   20  C16 UNL     1      25.687   5.910  49.897  1.00  0.00     0.046 A 
HETATM   21 BR1  UNL     1      25.091   7.701  50.089  1.00  0.00    -0.048 Br
HETATM   22  C17 UNL     1      25.100   4.972  50.697  1.00  0.00     0.110 A 
BRANCH  22  23
HETATM   23  O1  UNL     1      24.111   5.193  51.635  1.00  0.00    -0.357 OA
HETATM   24  H19 UNL     1      23.484   5.951  51.485  1.00  0.00     0.217 HD
ENDBRANCH  22  23
ENDBRANCH   1  16
TORSDOF 8
ENDMDL
MODEL 7
REMARK VINA RESULT:      -6.4      3.626      6.732
REMARK  8 active torsions:
REMARK  status: ('A' for Active; 'I' for Inactive)
REMARK    1  A    between atoms: C2_2  and  C3_3 
REMARK    2  A    between atoms: C3_3  and  C4_4 
REMARK    3  A    between atoms: C4_4  and  N1_5 
REMARK    4  A    between atoms: N1_5  and  C5_6 
REMARK    5  A    between atoms: N1_5  and  C12_15 
REMARK    6  A    between atoms: C5_6  and  N2_8 
REMARK    7  A    between atoms: N2_8  and  C6_9 
REMARK    8  A    between atoms: C17_21  and  O1_22 
ROOT
HETATM    1  N1  UNL     1      24.257   2.854  51.945  1.00  0.00    -0.321 N 
ENDROOT
BRANCH   1   2
HETATM    2  C4  UNL     1      23.611   1.991  52.937  1.00  0.00     0.132 C 
BRANCH   2   3
HETATM    3  C3  UNL     1      23.474   0.572  52.497  1.00  0.00     0.020 C 
BRANCH   3   4
HETATM    4  C2  UNL     1      22.940  -0.201  53.694  1.00  0.00    -0.003 C 
HETATM    5  C1  UNL     1      21.551   0.235  54.072  1.00  0.00     0.005 C 
ENDBRANCH   3   4
ENDBRANCH   2   3
ENDBRANCH   1   2
BRANCH   1   6
HETATM    6  C5  UNL     1      25.663   2.693  51.867  1.00  0.00     0.179 C 
HETATM    7  S1  UNL     1      26.505   2.981  50.478  1.00  0.00    -0.040 SA
BRANCH   6   8
HETATM    8  N2  UNL     1      26.599   2.330  52.873  1.00  0.00    -0.333 N 
HETATM    9  H10 UNL     1      26.663   3.049  53.635  1.00  0.00     0.168 HD
BRANCH   8  10
HETATM   10  C6  UNL     1      27.447   1.206  53.039  1.00  0.00     0.034 A 
HETATM   11  C7  UNL     1      28.755   1.357  53.484  1.00  0.00     0.029 A 
HETATM   12  C8  UNL     1      29.593   0.275  53.687  1.00  0.00     0.002 A 
HETATM   13  C9  UNL     1      29.047  -0.984  53.419  1.00  0.00     0.000 A 
HETATM   14  C10 UNL     1      27.754  -1.137  52.977  1.00  0.00     0.002 A 
HETATM   15  C11 UNL     1      26.931  -0.051  52.780  1.00  0.00     0.029 A 
ENDBRANCH   8  10
ENDBRANCH   6   8
ENDBRANCH   1   6
BRANCH   1  16
HETATM   16  C12 UNL     1      23.549   3.770  51.123  1.00  0.00     0.071 A 
HETATM   17  C13 UNL     1      22.976   3.078  50.048  1.00  0.00     0.033 A 
HETATM   18  C14 UNL     1      22.224   3.754  49.090  1.00  0.00     0.004 A 
HETATM   19  C15 UNL     1      22.014   5.120  49.157  1.00  0.00     0.022 A 
HETATM   20  C16 UNL     1      22.600   5.775  50.242  1.00  0.00     0.046 A 
HETATM   21 BR1  UNL     1      22.391   7.648  50.453  1.00  0.00    -0.048 Br
HETATM   22  C17 UNL     1      23.339   5.123  51.187  1.00  0.00     0.110 A 
BRANCH  22  23
HETATM   23  O1  UNL     1      23.951   5.689  52.288  1.00  0.00    -0.357 OA
HETATM   24  H19 UNL     1      23.518   5.574  53.176  1.00  0.00     0.217 HD
ENDBRANCH  22  23
ENDBRANCH   1  16
TORSDOF 8
ENDMDL
MODEL 8
REMARK VINA RESULT:      -6.4      3.570      5.987
REMARK  8 active torsions:
REMARK  status: ('A' for Active; 'I' for Inactive)
REMARK    1  A    between atoms: C2_2  and  C3_3 
REMARK    2  A    between atoms: C3_3  and  C4_4 
REMARK    3  A    between atoms: C4_4  and  N1_5 
REMARK    4  A    between atoms: N1_5  and  C5_6 
REMARK    5  A    between atoms: N1_5  and  C12_15 
REMARK    6  A    between atoms: C5_6  and  N2_8 
REMARK    7  A    between atoms: N2_8  and  C6_9 
REMARK    8  A    between atoms: C17_21  and  O1_22 
ROOT
HETATM    1  N1  UNL     1      24.124   2.901  50.695  1.00  0.00    -0.321 N 
ENDROOT
BRANCH   1   2
HETATM    2  C4  UNL     1      22.742   2.704  50.251  1.00  0.00     0.132 C 
BRANCH   2   3
HETATM    3  C3  UNL     1      22.628   2.273  48.827  1.00  0.00     0.020 C 
BRANCH   3   4
HETATM    4  C2  UNL     1      21.556   1.193  48.789  1.00  0.00    -0.003 C 
HETATM    5  C1  UNL     1      21.181   0.723  50.168  1.00  0.00     0.005 C 
ENDBRANCH   3   4
ENDBRANCH   2   3
ENDBRANCH   1   2
BRANCH   1   6
HETATM    6  C5  UNL     1      24.572   1.939  51.634  1.00  0.00     0.179 C 
HETATM    7  S1  UNL     1      23.701   1.552  52.981  1.00  0.00    -0.040 SA
BRANCH   6   8
HETATM    8  N2  UNL     1      25.735   1.122  51.621  1.00  0.00    -0.333 N 
HETATM    9  H10 UNL     1      25.723   0.424  50.837  1.00  0.00     0.168 HD
BRANCH   8  10
HETATM   10  C6  UNL     1      26.883   1.068  52.452  1.00  0.00     0.034 A 
HETATM   11  C7  UNL     1      27.414  -0.151  52.858  1.00  0.00     0.029 A 
HETATM   12  C8  UNL     1      28.553  -0.233  53.640  1.00  0.00     0.002 A 
HETATM   13  C9  UNL     1      29.142   0.983  53.998  1.00  0.00     0.000 A 
HETATM   14  C10 UNL     1      28.618   2.190  53.598  1.00  0.00     0.002 A 
HETATM   15  C11 UNL     1      27.484   2.257  52.821  1.00  0.00     0.029 A 
ENDBRANCH   8  10
ENDBRANCH   6   8
ENDBRANCH   1   6
BRANCH   1  16
HETATM   16  C12 UNL     1      24.955   3.954  50.229  1.00  0.00     0.071 A 
HETATM   17  C13 UNL     1      26.038   3.412  49.525  1.00  0.00     0.033 A 
HETATM   18  C14 UNL     1      27.004   4.241  48.962  1.00  0.00     0.004 A 
HETATM   19  C15 UNL     1      26.939   5.619  49.073  1.00  0.00     0.022 A 
HETATM   20  C16 UNL     1      25.847   6.122  49.781  1.00  0.00     0.046 A 
HETATM   21 BR1  UNL     1      25.637   7.994  50.009  1.00  0.00    -0.048 Br
HETATM   22  C17 UNL     1      24.892   5.319  50.337  1.00  0.00     0.110 A 
BRANCH  22  23
HETATM   23  O1  UNL     1      23.784   5.730  51.049  1.00  0.00    -0.357 OA
HETATM   24  H19 UNL     1      23.904   5.966  52.009  1.00  0.00     0.217 HD
ENDBRANCH  22  23
ENDBRANCH   1  16
TORSDOF 8
ENDMDL
MODEL 9
REMARK VINA RESULT:      -6.3      3.092      6.434
REMARK  8 active torsions:
REMARK  status: ('A' for Active; 'I' for Inactive)
REMARK    1  A    between atoms: C2_2  and  C3_3 
REMARK    2  A    between atoms: C3_3  and  C4_4 
REMARK    3  A    between atoms: C4_4  and  N1_5 
REMARK    4  A    between atoms: N1_5  and  C5_6 
REMARK    5  A    between atoms: N1_5  and  C12_15 
REMARK    6  A    between atoms: C5_6  and  N2_8 
REMARK    7  A    between atoms: N2_8  and  C6_9 
REMARK    8  A    between atoms: C17_21  and  O1_22 
ROOT
HETATM    1  N1  UNL     1      23.397   0.879  52.428  1.00  0.00    -0.321 N 
ENDROOT
BRANCH   1   2
HETATM    2  C4  UNL     1      22.194   0.060  52.597  1.00  0.00     0.132 C 
BRANCH   2   3
HETATM    3  C3  UNL     1      21.049   0.799  53.206  1.00  0.00     0.020 C 
BRANCH   3   4
HETATM    4  C2  UNL     1      20.479  -0.108  54.288  1.00  0.00    -0.003 C 
HETATM    5  C1  UNL     1      21.081  -1.486  54.243  1.00  0.00     0.005 C 
ENDBRANCH   3   4
ENDBRANCH   2   3
ENDBRANCH   1   2
BRANCH   1   6
HETATM    6  C5  UNL     1      24.590   0.253  52.868  1.00  0.00     0.179 C 
HETATM    7  S1  UNL     1      24.678  -0.562  54.300  1.00  0.00    -0.040 SA
BRANCH   6   8
HETATM    8  N2  UNL     1      25.854   0.143  52.229  1.00  0.00    -0.333 N 
HETATM    9  H10 UNL     1      25.767   0.069  51.186  1.00  0.00     0.168 HD
BRANCH   8  10
HETATM   10  C6  UNL     1      27.182   0.111  52.723  1.00  0.00     0.034 A 
HETATM   11  C7  UNL     1      27.829   1.279  53.109  1.00  0.00     0.029 A 
HETATM   12  C8  UNL     1      29.112   1.273  53.627  1.00  0.00     0.002 A 
HETATM   13  C9  UNL     1      29.723   0.021  53.741  1.00  0.00     0.000 A 
HETATM   14  C10 UNL     1      29.087  -1.136  53.358  1.00  0.00     0.002 A 
HETATM   15  C11 UNL     1      27.810  -1.115  52.845  1.00  0.00     0.029 A 
ENDBRANCH   8  10
ENDBRANCH   6   8
ENDBRANCH   1   6
BRANCH   1  16
HETATM   16  C12 UNL     1      23.385   2.184  51.867  1.00  0.00     0.071 A 
HETATM   17  C13 UNL     1      23.740   3.114  52.852  1.00  0.00     0.033 A 
HETATM   18  C14 UNL     1      23.802   4.473  52.555  1.00  0.00     0.004 A 
HETATM   19  C15 UNL     1      23.519   4.957  51.290  1.00  0.00     0.022 A 
HETATM   20  C16 UNL     1      23.170   4.001  50.335  1.00  0.00     0.046 A 
HETATM   21 BR1  UNL     1      22.756   4.530  48.561  1.00  0.00    -0.048 Br
HETATM   22  C17 UNL     1      23.106   2.666  50.615  1.00  0.00     0.110 A 
BRANCH  22  23
HETATM   23  O1  UNL     1      22.771   1.656  49.735  1.00  0.00    -0.357 OA
HETATM   24  H19 UNL     1      21.810   1.521  49.520  1.00  0.00     0.217 HD
ENDBRANCH  22  23
ENDBRANCH   1  16
TORSDOF 8
ENDMDL
