MODEL 1
REMARK VINA RESULT:      -7.7      0.000      0.000
REMARK  6 active torsions:
REMARK  status: ('A' for Active; 'I' for Inactive)
REMARK    1  A    between atoms: C2_2  and  C3_3 
REMARK    2  A    between atoms: C3_3  and  C4_4 
REMARK    3  A    between atoms: C3_3  and  N1_9 
REMARK    4  A    between atoms: C5_5  and  C6_7 
REMARK    5  A    between atoms: N1_9  and  C7_10 
REMARK    6  A    between atoms: C11_16  and  O1_17 
ROOT
HETATM    1  C7  UNL     1      24.075  -0.100  53.494  1.00  0.00     0.145 A 
HETATM    2  N2  UNL     1      24.715  -0.630  54.548  1.00  0.00    -0.223 NA
HETATM    3  C8  UNL     1      24.176  -1.321  55.535  1.00  0.00     0.236 A 
HETATM    4  N3  UNL     1      22.845  -1.517  55.482  1.00  0.00    -0.241 NA
HETATM    5  C9  UNL     1      22.112  -1.025  54.462  1.00  0.00     0.077 A 
HETATM    6  C10 UNL     1      20.757  -1.265  54.477  1.00  0.00     0.072 A 
HETATM    7  C11 UNL     1      19.972  -0.779  53.455  1.00  0.00     0.106 A 
HETATM    8  C13 UNL     1      20.589  -0.061  52.444  1.00  0.00     0.136 A 
HETATM    9  C14 UNL     1      21.955   0.187  52.419  1.00  0.00     0.121 A 
HETATM   10  C15 UNL     1      22.716  -0.310  53.454  1.00  0.00     0.075 A 
HETATM   11  O2  UNL     1      22.555   0.903  51.406  1.00  0.00    -0.345 OA
HETATM   12  C16 UNL     1      21.812   1.473  50.351  1.00  0.00     0.202 C 
HETATM   13  C17 UNL     1      20.346   1.606  50.659  1.00  0.00     0.202 C 
HETATM   14  O3  UNL     1      19.857   0.462  51.375  1.00  0.00    -0.344 OA
ENDROOT
BRANCH   1  15
HETATM   15  N1  UNL     1      24.767   0.635  52.487  1.00  0.00    -0.334 N 
HETATM   16  H6  UNL     1      24.903   0.554  51.454  1.00  0.00     0.168 HD
BRANCH  15  17
HETATM   17  C3  UNL     1      25.431   1.758  53.049  1.00  0.00     0.077 C 
BRANCH  17  18
HETATM   18  C2  UNL     1      24.652   2.826  53.148  1.00  0.00    -0.126 C 
HETATM   19  C1  UNL     1      23.830   3.810  52.846  1.00  0.00     0.099 C 
ENDBRANCH  17  18
BRANCH  17  20
HETATM   20  C4  UNL     1      26.794   1.886  53.517  1.00  0.00     0.060 C 
HETATM   21  C5  UNL     1      27.948   1.300  53.791  1.00  0.00     0.043 C 
HETATM   22 CL1  UNL     1      29.441   2.035  54.407  1.00  0.00    -0.086 Cl
BRANCH  21  23
HETATM   23  C6  UNL     1      28.277  -0.128  53.654  1.00  0.00     0.273 C 
HETATM   24  F1  UNL     1      27.732  -0.689  52.517  1.00  0.00    -0.250 F 
ENDBRANCH  21  23
ENDBRANCH  17  20
ENDBRANCH  15  17
ENDBRANCH   1  15
BRANCH   7  25
HETATM   25  O1  UNL     1      18.605  -0.962  53.373  1.00  0.00    -0.353 OA
HETATM   26  C12 UNL     1      17.929  -2.180  53.526  1.00  0.00     0.210 C 
ENDBRANCH   7  25
TORSDOF 6
ENDMDL
MODEL 2
REMARK VINA RESULT:      -7.2      2.210      3.150
REMARK  6 active torsions:
REMARK  status: ('A' for Active; 'I' for Inactive)
REMARK    1  A    between atoms: C2_2  and  C3_3 
REMARK    2  A    between atoms: C3_3  and  C4_4 
REMARK    3  A    between atoms: C3_3  and  N1_9 
REMARK    4  A    between atoms: C5_5  and  C6_7 
REMARK    5  A    between atoms: N1_9  and  C7_10 
REMARK    6  A    between atoms: C11_16  and  O1_17 
ROOT
HETATM    1  C7  UNL     1      24.351   1.737  53.000  1.00  0.00     0.145 A 
HETATM    2  N2  UNL     1      24.521   0.495  53.479  1.00  0.00    -0.223 NA
HETATM    3  C8  UNL     1      23.615  -0.462  53.534  1.00  0.00     0.236 A 
HETATM    4  N3  UNL     1      22.390  -0.166  53.060  1.00  0.00    -0.241 NA
HETATM    5  C9  UNL     1      22.117   1.055  52.557  1.00  0.00     0.077 A 
HETATM    6  C10 UNL     1      20.843   1.284  52.092  1.00  0.00     0.072 A 
HETATM    7  C11 UNL     1      20.523   2.518  51.569  1.00  0.00     0.106 A 
HETATM    8  C13 UNL     1      21.512   3.487  51.535  1.00  0.00     0.136 A 
HETATM    9  C14 UNL     1      22.802   3.266  52.001  1.00  0.00     0.121 A 
HETATM   10  C15 UNL     1      23.094   2.024  52.519  1.00  0.00     0.075 A 
HETATM   11  O2  UNL     1      23.776   4.241  51.960  1.00  0.00    -0.345 OA
HETATM   12  C16 UNL     1      23.512   5.543  51.485  1.00  0.00     0.202 C 
HETATM   13  C17 UNL     1      22.047   5.880  51.455  1.00  0.00     0.202 C 
HETATM   14  O3  UNL     1      21.261   4.762  51.020  1.00  0.00    -0.344 OA
ENDROOT
BRANCH   1  15
HETATM   15  N1  UNL     1      25.409   2.694  52.997  1.00  0.00    -0.334 N 
HETATM   16  H6  UNL     1      25.552   3.659  53.370  1.00  0.00     0.168 HD
BRANCH  15  17
HETATM   17  C3  UNL     1      26.544   2.187  52.312  1.00  0.00     0.077 C 
BRANCH  17  18
HETATM   18  C2  UNL     1      26.534   2.462  51.015  1.00  0.00    -0.126 C 
HETATM   19  C1  UNL     1      26.421   3.105  49.871  1.00  0.00     0.099 C 
ENDBRANCH  17  18
BRANCH  17  20
HETATM   20  C4  UNL     1      27.673   1.441  52.823  1.00  0.00     0.060 C 
HETATM   21  C5  UNL     1      28.204   0.264  53.113  1.00  0.00     0.043 C 
HETATM   22 CL1  UNL     1      29.806  -0.088  53.793  1.00  0.00    -0.086 Cl
BRANCH  21  23
HETATM   23  C6  UNL     1      27.584  -1.060  52.944  1.00  0.00     0.273 C 
HETATM   24  F1  UNL     1      26.718  -1.104  51.871  1.00  0.00    -0.250 F 
ENDBRANCH  21  23
ENDBRANCH  17  20
ENDBRANCH  15  17
ENDBRANCH   1  15
BRANCH   7  25
HETATM   25  O1  UNL     1      19.277   2.852  51.078  1.00  0.00    -0.353 OA
HETATM   26  C12 UNL     1      18.068   2.224  51.409  1.00  0.00     0.210 C 
ENDBRANCH   7  25
TORSDOF 6
ENDMDL
MODEL 3
REMARK VINA RESULT:      -7.1      1.987      3.809
REMARK  6 active torsions:
REMARK  status: ('A' for Active; 'I' for Inactive)
REMARK    1  A    between atoms: C2_2  and  C3_3 
REMARK    2  A    between atoms: C3_3  and  C4_4 
REMARK    3  A    between atoms: C3_3  and  N1_9 
REMARK    4  A    between atoms: C5_5  and  C6_7 
REMARK    5  A    between atoms: N1_9  and  C7_10 
REMARK    6  A    between atoms: C11_16  and  O1_17 
ROOT
HETATM    1  C7  UNL     1      24.902   0.818  52.353  1.00  0.00     0.145 A 
HETATM    2  N2  UNL     1      25.861   1.570  51.790  1.00  0.00    -0.223 NA
HETATM    3  C8  UNL     1      25.726   2.790  51.305  1.00  0.00     0.236 A 
HETATM    4  N3  UNL     1      24.499   3.341  51.380  1.00  0.00    -0.241 NA
HETATM    5  C9  UNL     1      23.469   2.666  51.929  1.00  0.00     0.077 A 
HETATM    6  C10 UNL     1      22.245   3.294  51.970  1.00  0.00     0.072 A 
HETATM    7  C11 UNL     1      21.166   2.639  52.521  1.00  0.00     0.106 A 
HETATM    8  C13 UNL     1      21.363   1.361  53.017  1.00  0.00     0.136 A 
HETATM    9  C14 UNL     1      22.594   0.718  52.981  1.00  0.00     0.121 A 
HETATM   10  C15 UNL     1      23.655   1.396  52.423  1.00  0.00     0.075 A 
HETATM   11  O2  UNL     1      22.774  -0.555  53.478  1.00  0.00    -0.345 OA
HETATM   12  C16 UNL     1      21.708  -1.307  54.014  1.00  0.00     0.202 C 
HETATM   13  C17 UNL     1      20.354  -0.799  53.601  1.00  0.00     0.202 C 
HETATM   14  O3  UNL     1      20.315   0.636  53.590  1.00  0.00    -0.344 OA
ENDROOT
BRANCH   1  15
HETATM   15  N1  UNL     1      25.167  -0.496  52.840  1.00  0.00    -0.334 N 
HETATM   16  H6  UNL     1      24.795  -1.455  52.659  1.00  0.00     0.168 HD
BRANCH  15  17
HETATM   17  C3  UNL     1      26.200  -0.474  53.814  1.00  0.00     0.077 C 
BRANCH  17  18
HETATM   18  C2  UNL     1      25.741  -0.458  55.058  1.00  0.00    -0.126 C 
HETATM   19  C1  UNL     1      25.086  -0.774  56.156  1.00  0.00     0.099 C 
ENDBRANCH  17  18
BRANCH  17  20
HETATM   20  C4  UNL     1      27.635  -0.470  53.637  1.00  0.00     0.060 C 
HETATM   21  C5  UNL     1      28.784   0.169  53.785  1.00  0.00     0.043 C 
HETATM   22 CL1  UNL     1      30.415  -0.371  53.337  1.00  0.00    -0.086 Cl
BRANCH  21  23
HETATM   23  C6  UNL     1      28.993   1.506  54.363  1.00  0.00     0.273 C 
HETATM   24  F1  UNL     1      28.325   2.493  53.667  1.00  0.00    -0.250 F 
ENDBRANCH  21  23
ENDBRANCH  17  20
ENDBRANCH  15  17
ENDBRANCH   1  15
BRANCH   7  25
HETATM   25  O1  UNL     1      19.897   3.176  52.611  1.00  0.00    -0.353 OA
HETATM   26  C12 UNL     1      19.034   3.428  51.535  1.00  0.00     0.210 C 
ENDBRANCH   7  25
TORSDOF 6
ENDMDL
MODEL 4
REMARK VINA RESULT:      -7.0      3.471      4.843
REMARK  6 active torsions:
REMARK  status: ('A' for Active; 'I' for Inactive)
REMARK    1  A    between atoms: C2_2  and  C3_3 
REMARK    2  A    between atoms: C3_3  and  C4_4 
REMARK    3  A    between atoms: C3_3  and  N1_9 
REMARK    4  A    between atoms: C5_5  and  C6_7 
REMARK    5  A    between atoms: N1_9  and  C7_10 
REMARK    6  A    between atoms: C11_16  and  O1_17 
ROOT
HETATM    1  C7  UNL     1      25.873   2.618  50.788  1.00  0.00     0.145 A 
HETATM    2  N2  UNL     1      27.087   2.678  51.356  1.00  0.00    -0.223 NA
HETATM    3  C8  UNL     1      27.433   2.198  52.535  1.00  0.00     0.236 A 
HETATM    4  N3  UNL     1      26.469   1.582  53.246  1.00  0.00    -0.241 NA
HETATM    5  C9  UNL     1      25.215   1.469  52.762  1.00  0.00     0.077 A 
HETATM    6  C10 UNL     1      24.284   0.828  53.546  1.00  0.00     0.072 A 
HETATM    7  C11 UNL     1      22.992   0.692  53.089  1.00  0.00     0.106 A 
HETATM    8  C13 UNL     1      22.683   1.214  51.844  1.00  0.00     0.136 A 
HETATM    9  C14 UNL     1      23.615   1.863  51.045  1.00  0.00     0.121 A 
HETATM   10  C15 UNL     1      24.899   1.985  51.526  1.00  0.00     0.075 A 
HETATM   11  O2  UNL     1      23.292   2.377  49.807  1.00  0.00    -0.345 OA
HETATM   12  C16 UNL     1      21.980   2.320  49.292  1.00  0.00     0.202 C 
HETATM   13  C17 UNL     1      20.937   2.068  50.345  1.00  0.00     0.202 C 
HETATM   14  O3  UNL     1      21.393   1.114  51.315  1.00  0.00    -0.344 OA
ENDROOT
BRANCH   1  15
HETATM   15  N1  UNL     1      25.615   3.181  49.503  1.00  0.00    -0.334 N 
HETATM   16  H6  UNL     1      25.218   2.842  48.599  1.00  0.00     0.168 HD
BRANCH  15  17
HETATM   17  C3  UNL     1      26.001   4.547  49.465  1.00  0.00     0.077 C 
BRANCH  17  18
HETATM   18  C2  UNL     1      27.162   4.742  48.856  1.00  0.00    -0.126 C 
HETATM   19  C1  UNL     1      28.294   5.287  48.461  1.00  0.00     0.099 C 
ENDBRANCH  17  18
BRANCH  17  20
HETATM   20  C4  UNL     1      25.318   5.714  49.980  1.00  0.00     0.060 C 
HETATM   21  C5  UNL     1      24.338   6.208  50.720  1.00  0.00     0.043 C 
HETATM   22 CL1  UNL     1      23.935   7.909  51.025  1.00  0.00    -0.086 Cl
BRANCH  21  23
HETATM   23  C6  UNL     1      23.325   5.454  51.476  1.00  0.00     0.273 C 
HETATM   24  F1  UNL     1      23.845   4.862  52.609  1.00  0.00    -0.250 F 
ENDBRANCH  21  23
ENDBRANCH  17  20
ENDBRANCH  15  17
ENDBRANCH   1  15
BRANCH   7  25
HETATM   25  O1  UNL     1      21.982   0.068  53.795  1.00  0.00    -0.353 OA
HETATM   26  C12 UNL     1      21.994  -1.259  54.246  1.00  0.00     0.210 C 
ENDBRANCH   7  25
TORSDOF 6
ENDMDL
MODEL 5
REMARK VINA RESULT:      -7.0      3.739      6.617
REMARK  6 active torsions:
REMARK  status: ('A' for Active; 'I' for Inactive)
REMARK    1  A    between atoms: C2_2  and  C3_3 
REMARK    2  A    between atoms: C3_3  and  C4_4 
REMARK    3  A    between atoms: C3_3  and  N1_9 
REMARK    4  A    between atoms: C5_5  and  C6_7 
REMARK    5  A    between atoms: N1_9  and  C7_10 
REMARK    6  A    between atoms: C11_16  and  O1_17 
ROOT
HETATM    1  C7  UNL     1      24.388   2.045  51.577  1.00  0.00     0.145 A 
HETATM    2  N2  UNL     1      24.826   2.966  50.705  1.00  0.00    -0.223 NA
HETATM    3  C8  UNL     1      26.083   3.277  50.448  1.00  0.00     0.236 A 
HETATM    4  N3  UNL     1      27.027   2.600  51.130  1.00  0.00    -0.241 NA
HETATM    5  C9  UNL     1      26.688   1.653  52.029  1.00  0.00     0.077 A 
HETATM    6  C10 UNL     1      27.708   1.005  52.687  1.00  0.00     0.072 A 
HETATM    7  C11 UNL     1      27.405   0.031  53.613  1.00  0.00     0.106 A 
HETATM    8  C13 UNL     1      26.070  -0.256  53.844  1.00  0.00     0.136 A 
HETATM    9  C14 UNL     1      25.033   0.392  53.185  1.00  0.00     0.121 A 
HETATM   10  C15 UNL     1      25.364   1.362  52.264  1.00  0.00     0.075 A 
HETATM   11  O2  UNL     1      23.709   0.095  53.426  1.00  0.00    -0.345 OA
HETATM   12  C16 UNL     1      23.318  -0.854  54.393  1.00  0.00     0.202 C 
HETATM   13  C17 UNL     1      24.397  -1.162  55.394  1.00  0.00     0.202 C 
HETATM   14  O3  UNL     1      25.687  -1.231  54.769  1.00  0.00    -0.344 OA
ENDROOT
BRANCH   1  15
HETATM   15  N1  UNL     1      22.997   1.799  51.774  1.00  0.00    -0.334 N 
HETATM   16  H6  UNL     1      22.414   1.301  52.483  1.00  0.00     0.168 HD
BRANCH  15  17
HETATM   17  C3  UNL     1      22.229   2.391  50.737  1.00  0.00     0.077 C 
BRANCH  17  18
HETATM   18  C2  UNL     1      21.927   1.541  49.765  1.00  0.00    -0.126 C 
HETATM   19  C1  UNL     1      21.619   1.046  48.584  1.00  0.00     0.099 C 
ENDBRANCH  17  18
BRANCH  17  20
HETATM   20  C4  UNL     1      21.744   3.747  50.606  1.00  0.00     0.060 C 
HETATM   21  C5  UNL     1      21.884   5.026  50.916  1.00  0.00     0.043 C 
HETATM   22 CL1  UNL     1      20.881   6.401  50.413  1.00  0.00    -0.086 Cl
BRANCH  21  23
HETATM   23  C6  UNL     1      22.920   5.627  51.771  1.00  0.00     0.273 C 
HETATM   24  F1  UNL     1      23.149   4.895  52.918  1.00  0.00    -0.250 F 
ENDBRANCH  21  23
ENDBRANCH  17  20
ENDBRANCH  15  17
ENDBRANCH   1  15
BRANCH   7  25
HETATM   25  O1  UNL     1      28.349  -0.678  54.329  1.00  0.00    -0.353 OA
HETATM   26  C12 UNL     1      29.648  -0.982  53.899  1.00  0.00     0.210 C 
ENDBRANCH   7  25
TORSDOF 6
ENDMDL
MODEL 6
REMARK VINA RESULT:      -6.9      3.884      6.599
REMARK  6 active torsions:
REMARK  status: ('A' for Active; 'I' for Inactive)
REMARK    1  A    between atoms: C2_2  and  C3_3 
REMARK    2  A    between atoms: C3_3  and  C4_4 
REMARK    3  A    between atoms: C3_3  and  N1_9 
REMARK    4  A    between atoms: C5_5  and  C6_7 
REMARK    5  A    between atoms: N1_9  and  C7_10 
REMARK    6  A    between atoms: C11_16  and  O1_17 
ROOT
HETATM    1  C7  UNL     1      22.672   0.582  53.356  1.00  0.00     0.145 A 
HETATM    2  N2  UNL     1      22.141  -0.316  54.201  1.00  0.00    -0.223 NA
HETATM    3  C8  UNL     1      22.798  -1.176  54.956  1.00  0.00     0.236 A 
HETATM    4  N3  UNL     1      24.142  -1.153  54.873  1.00  0.00    -0.241 NA
HETATM    5  C9  UNL     1      24.772  -0.287  54.053  1.00  0.00     0.077 A 
HETATM    6  C10 UNL     1      26.147  -0.324  54.021  1.00  0.00     0.072 A 
HETATM    7  C11 UNL     1      26.828   0.544  53.197  1.00  0.00     0.106 A 
HETATM    8  C13 UNL     1      26.090   1.426  52.426  1.00  0.00     0.136 A 
HETATM    9  C14 UNL     1      24.702   1.472  52.450  1.00  0.00     0.121 A 
HETATM   10  C15 UNL     1      24.046   0.593  53.283  1.00  0.00     0.075 A 
HETATM   11  O2  UNL     1      23.981   2.356  51.677  1.00  0.00    -0.345 OA
HETATM   12  C16 UNL     1      24.605   3.241  50.773  1.00  0.00     0.202 C 
HETATM   13  C17 UNL     1      26.010   2.840  50.421  1.00  0.00     0.202 C 
HETATM   14  O3  UNL     1      26.713   2.335  51.566  1.00  0.00    -0.344 OA
ENDROOT
BRANCH   1  15
HETATM   15  N1  UNL     1      21.857   1.461  52.583  1.00  0.00    -0.334 N 
HETATM   16  H6  UNL     1      21.806   2.491  52.418  1.00  0.00     0.168 HD
BRANCH  15  17
HETATM   17  C3  UNL     1      20.873   0.733  51.863  1.00  0.00     0.077 C 
BRANCH  17  18
HETATM   18  C2  UNL     1      21.058   0.769  50.551  1.00  0.00    -0.126 C 
HETATM   19  C1  UNL     1      21.606   0.949  49.366  1.00  0.00     0.099 C 
ENDBRANCH  17  18
BRANCH  17  20
HETATM   20  C4  UNL     1      19.739  -0.020  52.352  1.00  0.00     0.060 C 
HETATM   21  C5  UNL     1      18.455  -0.319  52.239  1.00  0.00     0.043 C 
HETATM   22 CL1  UNL     1      17.489  -1.434  53.226  1.00  0.00    -0.086 Cl
BRANCH  21  23
HETATM   23  C6  UNL     1      17.500   0.212  51.253  1.00  0.00     0.273 C 
HETATM   24  F1  UNL     1      17.875  -0.062  49.954  1.00  0.00    -0.250 F 
ENDBRANCH  21  23
ENDBRANCH  17  20
ENDBRANCH  15  17
ENDBRANCH   1  15
BRANCH   7  25
HETATM   25  O1  UNL     1      28.204   0.590  53.088  1.00  0.00    -0.353 OA
HETATM   26  C12 UNL     1      29.083   1.159  54.020  1.00  0.00     0.210 C 
ENDBRANCH   7  25
TORSDOF 6
ENDMDL
MODEL 7
REMARK VINA RESULT:      -6.8      3.933      5.629
REMARK  6 active torsions:
REMARK  status: ('A' for Active; 'I' for Inactive)
REMARK    1  A    between atoms: C2_2  and  C3_3 
REMARK    2  A    between atoms: C3_3  and  C4_4 
REMARK    3  A    between atoms: C3_3  and  N1_9 
REMARK    4  A    between atoms: C5_5  and  C6_7 
REMARK    5  A    between atoms: N1_9  and  C7_10 
REMARK    6  A    between atoms: C11_16  and  O1_17 
ROOT
HETATM    1  C7  UNL     1      23.576   3.978  51.682  1.00  0.00     0.145 A 
HETATM    2  N2  UNL     1      22.468   4.728  51.576  1.00  0.00    -0.223 NA
HETATM    3  C8  UNL     1      21.236   4.363  51.876  1.00  0.00     0.236 A 
HETATM    4  N3  UNL     1      21.069   3.109  52.338  1.00  0.00    -0.241 NA
HETATM    5  C9  UNL     1      22.121   2.278  52.481  1.00  0.00     0.077 A 
HETATM    6  C10 UNL     1      21.872   1.011  52.957  1.00  0.00     0.072 A 
HETATM    7  C11 UNL     1      22.919   0.130  53.118  1.00  0.00     0.106 A 
HETATM    8  C13 UNL     1      24.192   0.564  52.789  1.00  0.00     0.136 A 
HETATM    9  C14 UNL     1      24.454   1.840  52.307  1.00  0.00     0.121 A 
HETATM   10  C15 UNL     1      23.389   2.700  52.156  1.00  0.00     0.075 A 
HETATM   11  O2  UNL     1      25.728   2.257  51.984  1.00  0.00    -0.345 OA
HETATM   12  C16 UNL     1      26.843   1.398  52.075  1.00  0.00     0.202 C 
HETATM   13  C17 UNL     1      26.470  -0.058  52.121  1.00  0.00     0.202 C 
HETATM   14  O3  UNL     1      25.302  -0.274  52.925  1.00  0.00    -0.344 OA
ENDROOT
BRANCH   1  15
HETATM   15  N1  UNL     1      24.861   4.481  51.320  1.00  0.00    -0.334 N 
HETATM   16  H6  UNL     1      25.715   4.800  51.829  1.00  0.00     0.168 HD
BRANCH  15  17
HETATM   17  C3  UNL     1      24.993   4.557  49.909  1.00  0.00     0.077 C 
BRANCH  17  18
HETATM   18  C2  UNL     1      26.256   4.601  49.507  1.00  0.00    -0.126 C 
HETATM   19  C1  UNL     1      27.328   4.755  48.757  1.00  0.00     0.099 C 
ENDBRANCH  17  18
BRANCH  17  20
HETATM   20  C4  UNL     1      23.970   4.588  48.886  1.00  0.00     0.060 C 
HETATM   21  C5  UNL     1      23.029   3.941  48.218  1.00  0.00     0.043 C 
HETATM   22 CL1  UNL     1      21.973   4.551  46.928  1.00  0.00    -0.086 Cl
BRANCH  21  23
HETATM   23  C6  UNL     1      22.626   2.535  48.382  1.00  0.00     0.273 C 
HETATM   24  F1  UNL     1      22.864   1.783  47.250  1.00  0.00    -0.250 F 
ENDBRANCH  21  23
ENDBRANCH  17  20
ENDBRANCH  15  17
ENDBRANCH   1  15
BRANCH   7  25
HETATM   25  O1  UNL     1      22.779  -1.162  53.587  1.00  0.00    -0.353 OA
HETATM   26  C12 UNL     1      21.808  -1.605  54.495  1.00  0.00     0.210 C 
ENDBRANCH   7  25
TORSDOF 6
ENDMDL
MODEL 8
REMARK VINA RESULT:      -6.6      3.351      4.537
REMARK  6 active torsions:
REMARK  status: ('A' for Active; 'I' for Inactive)
REMARK    1  A    between atoms: C2_2  and  C3_3 
REMARK    2  A    between atoms: C3_3  and  C4_4 
REMARK    3  A    between atoms: C3_3  and  N1_9 
REMARK    4  A    between atoms: C5_5  and  C6_7 
REMARK    5  A    between atoms: N1_9  and  C7_10 
REMARK    6  A    between atoms: C11_16  and  O1_17 
ROOT
HETATM    1  C7  UNL     1      25.135   2.623  50.822  1.00  0.00     0.145 A 
HETATM    2  N2  UNL     1      26.417   2.816  51.169  1.00  0.00    -0.223 NA
HETATM    3  C8  UNL     1      27.068   2.225  52.152  1.00  0.00     0.236 A 
HETATM    4  N3  UNL     1      26.377   1.332  52.887  1.00  0.00    -0.241 NA
HETATM    5  C9  UNL     1      25.082   1.068  52.619  1.00  0.00     0.077 A 
HETATM    6  C10 UNL     1      24.441   0.145  53.414  1.00  0.00     0.072 A 
HETATM    7  C11 UNL     1      23.119  -0.154  53.173  1.00  0.00     0.106 A 
HETATM    8  C13 UNL     1      22.483   0.495  52.128  1.00  0.00     0.136 A 
HETATM    9  C14 UNL     1      23.120   1.428  51.319  1.00  0.00     0.121 A 
HETATM   10  C15 UNL     1      24.443   1.709  51.582  1.00  0.00     0.075 A 
HETATM   11  O2  UNL     1      22.474   2.066  50.283  1.00  0.00    -0.345 OA
HETATM   12  C16 UNL     1      21.108   1.849  50.005  1.00  0.00     0.202 C 
HETATM   13  C17 UNL     1      20.356   1.240  51.156  1.00  0.00     0.202 C 
HETATM   14  O3  UNL     1      21.142   0.243  51.825  1.00  0.00    -0.344 OA
ENDROOT
BRANCH   1  15
HETATM   15  N1  UNL     1      24.535   3.329  49.738  1.00  0.00    -0.334 N 
HETATM   16  H6  UNL     1      24.036   3.072  48.857  1.00  0.00     0.168 HD
BRANCH  15  17
HETATM   17  C3  UNL     1      24.654   4.731  49.922  1.00  0.00     0.077 C 
BRANCH  17  18
HETATM   18  C2  UNL     1      23.923   5.187  50.930  1.00  0.00    -0.126 C 
HETATM   19  C1  UNL     1      22.956   5.329  51.813  1.00  0.00     0.099 C 
ENDBRANCH  17  18
BRANCH  17  20
HETATM   20  C4  UNL     1      25.441   5.696  49.185  1.00  0.00     0.060 C 
HETATM   21  C5  UNL     1      26.598   6.009  48.625  1.00  0.00     0.043 C 
HETATM   22 CL1  UNL     1      27.041   7.496  47.763  1.00  0.00    -0.086 Cl
BRANCH  21  23
HETATM   23  C6  UNL     1      27.819   5.189  48.582  1.00  0.00     0.273 C 
HETATM   24  F1  UNL     1      27.547   3.836  48.586  1.00  0.00    -0.250 F 
ENDBRANCH  21  23
ENDBRANCH  17  20
ENDBRANCH  15  17
ENDBRANCH   1  15
BRANCH   7  25
HETATM   25  O1  UNL     1      22.383  -1.062  53.910  1.00  0.00    -0.353 OA
HETATM   26  C12 UNL     1      22.610  -1.408  55.249  1.00  0.00     0.210 C 
ENDBRANCH   7  25
TORSDOF 6
ENDMDL
MODEL 9
REMARK VINA RESULT:      -6.5      3.983      5.593
REMARK  6 active torsions:
REMARK  status: ('A' for Active; 'I' for Inactive)
REMARK    1  A    between atoms: C2_2  and  C3_3 
REMARK    2  A    between atoms: C3_3  and  C4_4 
REMARK    3  A    between atoms: C3_3  and  N1_9 
REMARK    4  A    between atoms: C5_5  and  C6_7 
REMARK    5  A    between atoms: N1_9  and  C7_10 
REMARK    6  A    between atoms: C11_16  and  O1_17 
ROOT
HETATM    1  C7  UNL     1      23.261   3.802  51.358  1.00  0.00     0.145 A 
HETATM    2  N2  UNL     1      22.257   4.280  50.606  1.00  0.00    -0.223 NA
HETATM    3  C8  UNL     1      21.123   3.670  50.320  1.00  0.00     0.236 A 
HETATM    4  N3  UNL     1      20.951   2.437  50.835  1.00  0.00    -0.241 NA
HETATM    5  C9  UNL     1      21.901   1.868  51.604  1.00  0.00     0.077 A 
HETATM    6  C10 UNL     1      21.655   0.606  52.094  1.00  0.00     0.072 A 
HETATM    7  C11 UNL     1      22.599  -0.011  52.883  1.00  0.00     0.106 A 
HETATM    8  C13 UNL     1      23.772   0.675  53.153  1.00  0.00     0.136 A 
HETATM    9  C14 UNL     1      24.031   1.949  52.664  1.00  0.00     0.121 A 
HETATM   10  C15 UNL     1      23.069   2.542  51.877  1.00  0.00     0.075 A 
HETATM   11  O2  UNL     1      25.203   2.619  52.942  1.00  0.00    -0.345 OA
HETATM   12  C16 UNL     1      26.238   2.035  53.702  1.00  0.00     0.202 C 
HETATM   13  C17 UNL     1      26.138   0.537  53.791  1.00  0.00     0.202 C 
HETATM   14  O3  UNL     1      24.776   0.112  53.946  1.00  0.00    -0.344 OA
ENDROOT
BRANCH   1  15
HETATM   15  N1  UNL     1      24.448   4.556  51.594  1.00  0.00    -0.334 N 
HETATM   16  H6  UNL     1      24.966   4.902  52.433  1.00  0.00     0.168 HD
BRANCH  15  17
HETATM   17  C3  UNL     1      25.069   4.915  50.369  1.00  0.00     0.077 C 
BRANCH  17  18
HETATM   18  C2  UNL     1      25.707   3.905  49.795  1.00  0.00    -0.126 C 
HETATM   19  C1  UNL     1      26.610   2.985  49.522  1.00  0.00     0.099 C 
ENDBRANCH  17  18
BRANCH  17  20
HETATM   20  C4  UNL     1      25.095   6.190  49.686  1.00  0.00     0.060 C 
HETATM   21  C5  UNL     1      25.799   7.105  49.041  1.00  0.00     0.043 C 
HETATM   22 CL1  UNL     1      25.243   8.642  48.348  1.00  0.00    -0.086 Cl
BRANCH  21  23
HETATM   23  C6  UNL     1      27.240   7.074  48.740  1.00  0.00     0.273 C 
HETATM   24  F1  UNL     1      27.608   5.942  48.041  1.00  0.00    -0.250 F 
ENDBRANCH  21  23
ENDBRANCH  17  20
ENDBRANCH  15  17
ENDBRANCH   1  15
BRANCH   7  25
HETATM   25  O1  UNL     1      22.453  -1.274  53.424  1.00  0.00    -0.353 OA
HETATM   26  C12 UNL     1      21.476  -1.662  54.350  1.00  0.00     0.210 C 
ENDBRANCH   7  25
TORSDOF 6
ENDMDL
