MODEL 1
REMARK VINA RESULT:      -8.3      0.000      0.000
REMARK  1 active torsions:
REMARK  status: ('A' for Active; 'I' for Inactive)
REMARK    1  A    between atoms: S1_1  and  C1_2 
ROOT
HETATM    1  C1  UNL     1      22.112   3.442  51.126  1.00  0.00     0.075 C 
HETATM    2  C2  UNL     1      21.380   2.321  51.006  1.00  0.00     0.072 C 
HETATM    3  C3  UNL     1      19.918   2.397  50.760  1.00  0.00     0.174 C 
HETATM    4  N1  UNL     1      19.175   1.746  51.838  1.00  0.00    -0.236 NA
HETATM    5  N2  UNL     1      17.817   1.687  51.415  1.00  0.00    -0.256 NA
HETATM    6  C4  UNL     1      17.953   0.401  50.739  1.00  0.00     0.130 C 
HETATM    7  C5  UNL     1      19.219   0.320  51.578  1.00  0.00     0.111 C 
HETATM    8  C6  UNL     1      19.053  -0.453  52.819  1.00  0.00    -0.008 C 
HETATM    9  C7  UNL     1      20.111  -0.758  53.612  1.00  0.00    -0.023 C 
HETATM   10  C8  UNL     1      21.376  -0.207  53.041  1.00  0.00     0.053 C 
HETATM   11  C9  UNL     1      22.598  -0.372  53.634  1.00  0.00     0.016 C 
HETATM   12  C10 UNL     1      23.637   0.275  52.847  1.00  0.00    -0.024 C 
HETATM   13  C11 UNL     1      25.064   0.360  53.070  1.00  0.00    -0.028 A 
HETATM   14  C12 UNL     1      25.666  -0.217  54.159  1.00  0.00     0.013 A 
HETATM   15  C13 UNL     1      27.015  -0.182  54.444  1.00  0.00     0.024 A 
HETATM   16  C14 UNL     1      27.856   0.483  53.578  1.00  0.00     0.034 A 
HETATM   17 CL1  UNL     1      29.580   0.576  53.866  1.00  0.00    -0.084 Cl
HETATM   18  C15 UNL     1      27.285   1.072  52.480  1.00  0.00     0.024 A 
HETATM   19  C16 UNL     1      25.936   1.007  52.241  1.00  0.00     0.013 A 
HETATM   20  C17 UNL     1      23.231   0.885  51.754  1.00  0.00     0.150 C 
HETATM   21  O1  UNL     1      22.047   1.093  51.120  1.00  0.00    -0.325 OA
HETATM   22  H5  UNL     1      17.130   1.692  52.200  1.00  0.00     0.140 HD
ENDROOT
BRANCH   1  23
HETATM   23  S1  UNL     1      23.800   3.949  51.408  1.00  0.00    -0.152 SA
HETATM   24  H1  UNL     1      24.619   2.976  50.788  1.00  0.00     0.106 HD
ENDBRANCH   1  23
TORSDOF 1
ENDMDL
MODEL 2
REMARK VINA RESULT:      -8.2      3.448      5.079
REMARK  1 active torsions:
REMARK  status: ('A' for Active; 'I' for Inactive)
REMARK    1  A    between atoms: S1_1  and  C1_2 
ROOT
HETATM    1  C1  UNL     1      20.415   2.783  52.341  1.00  0.00     0.075 C 
HETATM    2  C2  UNL     1      21.031   1.589  52.386  1.00  0.00     0.072 C 
HETATM    3  C3  UNL     1      20.581   0.543  53.338  1.00  0.00     0.174 C 
HETATM    4  N1  UNL     1      21.657   0.176  54.255  1.00  0.00    -0.236 NA
HETATM    5  N2  UNL     1      21.202  -0.962  54.979  1.00  0.00    -0.256 NA
HETATM    6  C4  UNL     1      21.701  -1.934  54.011  1.00  0.00     0.130 C 
HETATM    7  C5  UNL     1      22.522  -0.744  53.541  1.00  0.00     0.111 C 
HETATM    8  C6  UNL     1      23.890  -0.721  54.086  1.00  0.00    -0.008 C 
HETATM    9  C7  UNL     1      24.810   0.179  53.657  1.00  0.00    -0.023 C 
HETATM   10  C8  UNL     1      24.228   1.074  52.614  1.00  0.00     0.053 C 
HETATM   11  C9  UNL     1      24.938   2.071  52.003  1.00  0.00     0.016 C 
HETATM   12  C10 UNL     1      24.106   2.770  51.035  1.00  0.00    -0.024 C 
HETATM   13  C11 UNL     1      24.419   3.875  50.156  1.00  0.00    -0.028 A 
HETATM   14  C12 UNL     1      25.663   4.453  50.128  1.00  0.00     0.013 A 
HETATM   15  C13 UNL     1      26.042   5.505  49.322  1.00  0.00     0.024 A 
HETATM   16  C14 UNL     1      25.112   6.047  48.460  1.00  0.00     0.034 A 
HETATM   17 CL1  UNL     1      25.510   7.385  47.404  1.00  0.00    -0.084 Cl
HETATM   18  C15 UNL     1      23.859   5.493  48.465  1.00  0.00     0.024 A 
HETATM   19  C16 UNL     1      23.532   4.444  49.287  1.00  0.00     0.013 A 
HETATM   20  C17 UNL     1      22.866   2.341  50.931  1.00  0.00     0.150 C 
HETATM   21  O1  UNL     1      22.102   1.375  51.507  1.00  0.00    -0.325 OA
HETATM   22  H5  UNL     1      21.617  -1.049  55.932  1.00  0.00     0.140 HD
ENDROOT
BRANCH   1  23
HETATM   23  S1  UNL     1      20.504   4.335  51.462  1.00  0.00    -0.152 SA
HETATM   24  H1  UNL     1      19.613   5.217  52.118  1.00  0.00     0.106 HD
ENDBRANCH   1  23
TORSDOF 1
ENDMDL
MODEL 3
REMARK VINA RESULT:      -8.1      4.102      6.874
REMARK  1 active torsions:
REMARK  status: ('A' for Active; 'I' for Inactive)
REMARK    1  A    between atoms: S1_1  and  C1_2 
ROOT
HETATM    1  C1  UNL     1      22.723   1.642  50.159  1.00  0.00     0.075 C 
HETATM    2  C2  UNL     1      23.363   1.773  51.334  1.00  0.00     0.072 C 
HETATM    3  C3  UNL     1      24.812   2.094  51.373  1.00  0.00     0.174 C 
HETATM    4  N1  UNL     1      25.560   1.040  52.055  1.00  0.00    -0.236 NA
HETATM    5  N2  UNL     1      26.886   1.530  52.224  1.00  0.00    -0.256 NA
HETATM    6  C4  UNL     1      26.622   2.168  53.509  1.00  0.00     0.130 C 
HETATM    7  C5  UNL     1      25.399   1.264  53.478  1.00  0.00     0.111 C 
HETATM    8  C6  UNL     1      25.572   0.014  54.238  1.00  0.00    -0.008 C 
HETATM    9  C7  UNL     1      24.538  -0.838  54.447  1.00  0.00    -0.023 C 
HETATM   10  C8  UNL     1      23.289  -0.319  53.815  1.00  0.00     0.053 C 
HETATM   11  C9  UNL     1      22.091  -0.978  53.876  1.00  0.00     0.016 C 
HETATM   12  C10 UNL     1      21.062  -0.229  53.169  1.00  0.00    -0.024 C 
HETATM   13  C11 UNL     1      19.659  -0.522  52.974  1.00  0.00    -0.028 A 
HETATM   14  C12 UNL     1      19.074  -1.654  53.482  1.00  0.00     0.013 A 
HETATM   15  C13 UNL     1      17.748  -2.006  53.342  1.00  0.00     0.024 A 
HETATM   16  C14 UNL     1      16.913  -1.168  52.633  1.00  0.00     0.034 A 
HETATM   17 CL1  UNL     1      15.218  -1.541  52.406  1.00  0.00    -0.084 Cl
HETATM   18  C15 UNL     1      17.468  -0.029  52.111  1.00  0.00     0.024 A 
HETATM   19  C16 UNL     1      18.795   0.276  52.280  1.00  0.00     0.013 A 
HETATM   20  C17 UNL     1      21.454   0.897  52.613  1.00  0.00     0.150 C 
HETATM   21  O1  UNL     1      22.615   1.596  52.506  1.00  0.00    -0.325 OA
HETATM   22  H5  UNL     1      27.612   0.781  52.254  1.00  0.00     0.140 HD
ENDROOT
BRANCH   1  23
HETATM   23  S1  UNL     1      21.093   1.286  49.522  1.00  0.00    -0.152 SA
HETATM   24  H1  UNL     1      21.242   1.098  48.128  1.00  0.00     0.106 HD
ENDBRANCH   1  23
TORSDOF 1
ENDMDL
MODEL 4
REMARK VINA RESULT:      -7.9      6.784      8.323
REMARK  1 active torsions:
REMARK  status: ('A' for Active; 'I' for Inactive)
REMARK    1  A    between atoms: S1_1  and  C1_2 
ROOT
HETATM    1  C1  UNL     1      26.599   8.988  50.069  1.00  0.00     0.075 C 
HETATM    2  C2  UNL     1      25.704   8.077  49.651  1.00  0.00     0.072 C 
HETATM    3  C3  UNL     1      24.365   7.988  50.287  1.00  0.00     0.174 C 
HETATM    4  N1  UNL     1      24.156   6.668  50.877  1.00  0.00    -0.236 NA
HETATM    5  N2  UNL     1      22.789   6.612  51.270  1.00  0.00    -0.256 NA
HETATM    6  C4  UNL     1      22.310   6.109  49.987  1.00  0.00     0.130 C 
HETATM    7  C5  UNL     1      23.782   5.778  49.795  1.00  0.00     0.111 C 
HETATM    8  C6  UNL     1      24.116   4.380  50.114  1.00  0.00    -0.008 C 
HETATM    9  C7  UNL     1      25.346   3.868  49.855  1.00  0.00    -0.023 C 
HETATM   10  C8  UNL     1      26.229   4.901  49.238  1.00  0.00     0.053 C 
HETATM   11  C9  UNL     1      27.524   4.654  48.870  1.00  0.00     0.016 C 
HETATM   12  C10 UNL     1      28.128   5.849  48.299  1.00  0.00    -0.024 C 
HETATM   13  C11 UNL     1      29.457   6.065  47.770  1.00  0.00    -0.028 A 
HETATM   14  C12 UNL     1      30.399   5.068  47.741  1.00  0.00     0.013 A 
HETATM   15  C13 UNL     1      31.684   5.192  47.255  1.00  0.00     0.024 A 
HETATM   16  C14 UNL     1      32.086   6.410  46.749  1.00  0.00     0.034 A 
HETATM   17 CL1  UNL     1      33.699   6.651  46.115  1.00  0.00    -0.084 Cl
HETATM   18  C15 UNL     1      31.167   7.426  46.765  1.00  0.00     0.024 A 
HETATM   19  C16 UNL     1      29.899   7.252  47.260  1.00  0.00     0.013 A 
HETATM   20  C17 UNL     1      27.355   6.913  48.250  1.00  0.00     0.150 C 
HETATM   21  O1  UNL     1      26.080   7.226  48.603  1.00  0.00    -0.325 OA
HETATM   22  H5  UNL     1      22.609   5.977  52.079  1.00  0.00     0.140 HD
ENDROOT
BRANCH   1  23
HETATM   23  S1  UNL     1      28.261   9.535  49.713  1.00  0.00    -0.152 SA
HETATM   24  H1  UNL     1      29.081   9.022  50.746  1.00  0.00     0.106 HD
ENDBRANCH   1  23
TORSDOF 1
ENDMDL
MODEL 5
REMARK VINA RESULT:      -7.8      4.255      6.958
REMARK  1 active torsions:
REMARK  status: ('A' for Active; 'I' for Inactive)
REMARK    1  A    between atoms: S1_1  and  C1_2 
ROOT
HETATM    1  C1  UNL     1      26.290   2.813  50.857  1.00  0.00     0.075 C 
HETATM    2  C2  UNL     1      26.379   2.330  52.108  1.00  0.00     0.072 C 
HETATM    3  C3  UNL     1      27.609   1.634  52.562  1.00  0.00     0.174 C 
HETATM    4  N1  UNL     1      27.312   0.262  52.966  1.00  0.00    -0.236 NA
HETATM    5  N2  UNL     1      28.495  -0.247  53.573  1.00  0.00    -0.256 NA
HETATM    6  C4  UNL     1      28.156   0.216  54.915  1.00  0.00     0.130 C 
HETATM    7  C5  UNL     1      26.766   0.327  54.308  1.00  0.00     0.111 C 
HETATM    8  C6  UNL     1      25.906  -0.834  54.591  1.00  0.00    -0.008 C 
HETATM    9  C7  UNL     1      24.591  -0.841  54.261  1.00  0.00    -0.023 C 
HETATM   10  C8  UNL     1      24.203   0.444  53.607  1.00  0.00     0.053 C 
HETATM   11  C9  UNL     1      22.932   0.711  53.177  1.00  0.00     0.016 C 
HETATM   12  C10 UNL     1      22.863   2.038  52.583  1.00  0.00    -0.024 C 
HETATM   13  C11 UNL     1      21.743   2.748  52.005  1.00  0.00    -0.028 A 
HETATM   14  C12 UNL     1      20.487   2.199  51.943  1.00  0.00     0.013 A 
HETATM   15  C13 UNL     1      19.370   2.808  51.411  1.00  0.00     0.024 A 
HETATM   16  C14 UNL     1      19.495   4.077  50.887  1.00  0.00     0.034 A 
HETATM   17 CL1  UNL     1      18.128   4.920  50.191  1.00  0.00    -0.084 Cl
HETATM   18  C15 UNL     1      20.737   4.653  50.933  1.00  0.00     0.024 A 
HETATM   19  C16 UNL     1      21.818   4.005  51.476  1.00  0.00     0.013 A 
HETATM   20  C17 UNL     1      23.992   2.713  52.559  1.00  0.00     0.150 C 
HETATM   21  O1  UNL     1      25.276   2.507  52.955  1.00  0.00    -0.325 OA
HETATM   22  H5  UNL     1      28.602  -1.282  53.487  1.00  0.00     0.140 HD
ENDROOT
BRANCH   1  23
HETATM   23  S1  UNL     1      25.139   3.686  49.807  1.00  0.00    -0.152 SA
HETATM   24  H1  UNL     1      24.119   2.762  49.477  1.00  0.00     0.106 HD
ENDBRANCH   1  23
TORSDOF 1
ENDMDL
MODEL 6
REMARK VINA RESULT:      -7.7      5.448      6.757
REMARK  1 active torsions:
REMARK  status: ('A' for Active; 'I' for Inactive)
REMARK    1  A    between atoms: S1_1  and  C1_2 
ROOT
HETATM    1  C1  UNL     1      24.041   7.518  50.617  1.00  0.00     0.075 C 
HETATM    2  C2  UNL     1      23.589   6.284  50.334  1.00  0.00     0.072 C 
HETATM    3  C3  UNL     1      22.428   5.719  51.067  1.00  0.00     0.174 C 
HETATM    4  N1  UNL     1      22.802   4.494  51.770  1.00  0.00    -0.236 NA
HETATM    5  N2  UNL     1      21.594   3.924  52.262  1.00  0.00    -0.256 NA
HETATM    6  C4  UNL     1      21.324   3.145  51.058  1.00  0.00     0.130 C 
HETATM    7  C5  UNL     1      22.794   3.427  50.788  1.00  0.00     0.111 C 
HETATM    8  C6  UNL     1      23.687   2.327  51.189  1.00  0.00    -0.008 C 
HETATM    9  C7  UNL     1      25.009   2.339  50.884  1.00  0.00    -0.023 C 
HETATM   10  C8  UNL     1      25.366   3.576  50.129  1.00  0.00     0.053 C 
HETATM   11  C9  UNL     1      26.634   3.845  49.691  1.00  0.00     0.016 C 
HETATM   12  C10 UNL     1      26.672   5.119  48.990  1.00  0.00    -0.024 C 
HETATM   13  C11 UNL     1      27.775   5.806  48.354  1.00  0.00    -0.028 A 
HETATM   14  C12 UNL     1      29.043   5.284  48.334  1.00  0.00     0.013 A 
HETATM   15  C13 UNL     1      30.146   5.872  47.751  1.00  0.00     0.024 A 
HETATM   16  C14 UNL     1      29.992   7.092  47.127  1.00  0.00     0.034 A 
HETATM   17 CL1  UNL     1      31.339   7.908  46.364  1.00  0.00    -0.084 Cl
HETATM   18  C15 UNL     1      28.736   7.641  47.130  1.00  0.00     0.024 A 
HETATM   19  C16 UNL     1      27.670   7.013  47.724  1.00  0.00     0.013 A 
HETATM   20  C17 UNL     1      25.528   5.764  48.913  1.00  0.00     0.150 C 
HETATM   21  O1  UNL     1      24.249   5.563  49.330  1.00  0.00    -0.325 OA
HETATM   22  H5  UNL     1      21.719   3.354  53.127  1.00  0.00     0.140 HD
ENDROOT
BRANCH   1  23
HETATM   23  S1  UNL     1      25.316   8.658  50.104  1.00  0.00    -0.152 SA
HETATM   24  H1  UNL     1      25.577   9.493  51.216  1.00  0.00     0.106 HD
ENDBRANCH   1  23
TORSDOF 1
ENDMDL
MODEL 7
REMARK VINA RESULT:      -7.4      4.150      6.697
REMARK  1 active torsions:
REMARK  status: ('A' for Active; 'I' for Inactive)
REMARK    1  A    between atoms: S1_1  and  C1_2 
ROOT
HETATM    1  C1  UNL     1      26.519   2.767  50.888  1.00  0.00     0.075 C 
HETATM    2  C2  UNL     1      26.066   2.202  52.020  1.00  0.00     0.072 C 
HETATM    3  C3  UNL     1      26.685   0.958  52.543  1.00  0.00     0.174 C 
HETATM    4  N1  UNL     1      25.702  -0.120  52.620  1.00  0.00    -0.236 NA
HETATM    5  N2  UNL     1      26.329  -1.191  53.318  1.00  0.00    -0.256 NA
HETATM    6  C4  UNL     1      25.922  -0.733  54.642  1.00  0.00     0.130 C 
HETATM    7  C5  UNL     1      24.935   0.094  53.832  1.00  0.00     0.111 C 
HETATM    8  C6  UNL     1      23.599  -0.516  53.733  1.00  0.00    -0.008 C 
HETATM    9  C7  UNL     1      22.554   0.151  53.181  1.00  0.00    -0.023 C 
HETATM   10  C8  UNL     1      22.974   1.509  52.726  1.00  0.00     0.053 C 
HETATM   11  C9  UNL     1      22.117   2.398  52.136  1.00  0.00     0.016 C 
HETATM   12  C10 UNL     1      22.813   3.632  51.803  1.00  0.00    -0.024 C 
HETATM   13  C11 UNL     1      22.325   4.844  51.183  1.00  0.00    -0.028 A 
HETATM   14  C12 UNL     1      21.017   4.988  50.797  1.00  0.00     0.013 A 
HETATM   15  C13 UNL     1      20.473   6.107  50.202  1.00  0.00     0.024 A 
HETATM   16  C14 UNL     1      21.290   7.190  49.960  1.00  0.00     0.034 A 
HETATM   17 CL1  UNL     1      20.681   8.648  49.207  1.00  0.00    -0.084 Cl
HETATM   18  C15 UNL     1      22.604   7.078  50.333  1.00  0.00     0.024 A 
HETATM   19  C16 UNL     1      23.096   5.941  50.924  1.00  0.00     0.013 A 
HETATM   20  C17 UNL     1      24.093   3.667  52.108  1.00  0.00     0.150 C 
HETATM   21  O1  UNL     1      24.997   2.827  52.677  1.00  0.00    -0.325 OA
HETATM   22  H5  UNL     1      25.967  -2.134  53.056  1.00  0.00     0.140 HD
ENDROOT
BRANCH   1  23
HETATM   23  S1  UNL     1      26.196   4.174  49.837  1.00  0.00    -0.152 SA
HETATM   24  H1  UNL     1      26.356   3.724  48.506  1.00  0.00     0.106 HD
ENDBRANCH   1  23
TORSDOF 1
ENDMDL
MODEL 8
REMARK VINA RESULT:      -7.3      4.253      6.957
REMARK  1 active torsions:
REMARK  status: ('A' for Active; 'I' for Inactive)
REMARK    1  A    between atoms: S1_1  and  C1_2 
ROOT
HETATM    1  C1  UNL     1      22.330   1.987  52.588  1.00  0.00     0.075 C 
HETATM    2  C2  UNL     1      23.420   1.243  52.337  1.00  0.00     0.072 C 
HETATM    3  C3  UNL     1      23.870   0.212  53.307  1.00  0.00     0.174 C 
HETATM    4  N1  UNL     1      25.223   0.499  53.781  1.00  0.00    -0.236 NA
HETATM    5  N2  UNL     1      25.638  -0.637  54.531  1.00  0.00    -0.256 NA
HETATM    6  C4  UNL     1      26.196  -1.347  53.384  1.00  0.00     0.130 C 
HETATM    7  C5  UNL     1      26.135   0.036  52.754  1.00  0.00     0.111 C 
HETATM    8  C6  UNL     1      27.414   0.763  52.808  1.00  0.00    -0.008 C 
HETATM    9  C7  UNL     1      27.587   1.943  52.162  1.00  0.00    -0.023 C 
HETATM   10  C8  UNL     1      26.341   2.340  51.442  1.00  0.00     0.053 C 
HETATM   11  C9  UNL     1      26.237   3.486  50.702  1.00  0.00     0.016 C 
HETATM   12  C10 UNL     1      24.907   3.600  50.123  1.00  0.00    -0.024 C 
HETATM   13  C11 UNL     1      24.341   4.624  49.272  1.00  0.00    -0.028 A 
HETATM   14  C12 UNL     1      25.064   5.718  48.870  1.00  0.00     0.013 A 
HETATM   15  C13 UNL     1      24.601   6.735  48.062  1.00  0.00     0.024 A 
HETATM   16  C14 UNL     1      23.302   6.676  47.604  1.00  0.00     0.034 A 
HETATM   17 CL1  UNL     1      22.635   7.925  46.576  1.00  0.00    -0.084 Cl
HETATM   18  C15 UNL     1      22.553   5.595  47.989  1.00  0.00     0.024 A 
HETATM   19  C16 UNL     1      23.062   4.608  48.795  1.00  0.00     0.013 A 
HETATM   20  C17 UNL     1      24.073   2.624  50.410  1.00  0.00     0.150 C 
HETATM   21  O1  UNL     1      24.106   1.476  51.137  1.00  0.00    -0.325 OA
HETATM   22  H5  UNL     1      26.329  -0.417  55.281  1.00  0.00     0.140 HD
ENDROOT
BRANCH   1  23
HETATM   23  S1  UNL     1      21.366   3.294  51.846  1.00  0.00    -0.152 SA
HETATM   24  H1  UNL     1      21.868   4.509  52.370  1.00  0.00     0.106 HD
ENDBRANCH   1  23
TORSDOF 1
ENDMDL
MODEL 9
REMARK VINA RESULT:      -7.3      4.392      5.879
REMARK  1 active torsions:
REMARK  status: ('A' for Active; 'I' for Inactive)
REMARK    1  A    between atoms: S1_1  and  C1_2 
ROOT
HETATM    1  C1  UNL     1      21.494   5.305  51.211  1.00  0.00     0.075 C 
HETATM    2  C2  UNL     1      21.726   3.992  51.038  1.00  0.00     0.072 C 
HETATM    3  C3  UNL     1      21.006   2.984  51.856  1.00  0.00     0.174 C 
HETATM    4  N1  UNL     1      21.945   2.177  52.632  1.00  0.00    -0.236 NA
HETATM    5  N2  UNL     1      21.187   1.121  53.212  1.00  0.00    -0.256 NA
HETATM    6  C4  UNL     1      21.350   0.214  52.081  1.00  0.00     0.130 C 
HETATM    7  C5  UNL     1      22.479   1.172  51.733  1.00  0.00     0.111 C 
HETATM    8  C6  UNL     1      23.803   0.708  52.178  1.00  0.00    -0.008 C 
HETATM    9  C7  UNL     1      24.939   1.357  51.821  1.00  0.00    -0.023 C 
HETATM   10  C8  UNL     1      24.626   2.538  50.963  1.00  0.00     0.053 C 
HETATM   11  C9  UNL     1      25.588   3.369  50.456  1.00  0.00     0.016 C 
HETATM   12  C10 UNL     1      24.979   4.426  49.661  1.00  0.00    -0.024 C 
HETATM   13  C11 UNL     1      25.588   5.518  48.933  1.00  0.00    -0.028 A 
HETATM   14  C12 UNL     1      26.947   5.704  48.901  1.00  0.00     0.013 A 
HETATM   15  C13 UNL     1      27.604   6.715  48.233  1.00  0.00     0.024 A 
HETATM   16  C14 UNL     1      26.858   7.635  47.527  1.00  0.00     0.034 A 
HETATM   17 CL1  UNL     1      27.612   8.950  46.652  1.00  0.00    -0.084 Cl
HETATM   18  C15 UNL     1      25.497   7.477  47.539  1.00  0.00     0.024 A 
HETATM   19  C16 UNL     1      24.891   6.452  48.220  1.00  0.00     0.013 A 
HETATM   20  C17 UNL     1      23.666   4.400  49.583  1.00  0.00     0.150 C 
HETATM   21  O1  UNL     1      22.662   3.619  50.064  1.00  0.00    -0.325 OA
HETATM   22  H5  UNL     1      21.580   0.765  54.112  1.00  0.00     0.140 HD
ENDROOT
BRANCH   1  23
HETATM   23  S1  UNL     1      22.022   6.883  50.564  1.00  0.00    -0.152 SA
HETATM   24  H1  UNL     1      22.938   7.414  51.503  1.00  0.00     0.106 HD
ENDBRANCH   1  23
TORSDOF 1
ENDMDL
