MODEL 1
REMARK VINA RESULT:      -6.4      0.000      0.000
REMARK  8 active torsions:
REMARK  status: ('A' for Active; 'I' for Inactive)
REMARK    1  A    between atoms: C2_2  and  S1_3 
REMARK    2  A    between atoms: S1_3  and  N1_6 
REMARK    3  A    between atoms: N1_6  and  C3_7 
REMARK    4  A    between atoms: C4_8  and  C5_9 
REMARK    5  A    between atoms: C8_14  and  N4_15 
REMARK    6  A    between atoms: N4_15  and  C9_16 
REMARK    7  A    between atoms: C9_16  and  C10_17 
REMARK    8  A    between atoms: C11_18  and  C12_19 
ROOT
HETATM    1  C5  UNL     1      23.813  -0.348  53.654  1.00  0.00     0.028 A 
HETATM    2  C6  UNL     1      23.774  -1.088  54.815  1.00  0.00     0.133 A 
HETATM    3  N2  UNL     1      22.574  -1.348  55.349  1.00  0.00    -0.253 NA
HETATM    4  C7  UNL     1      21.456  -0.888  54.746  1.00  0.00     0.234 A 
HETATM    5  N3  UNL     1      21.504  -0.167  53.612  1.00  0.00    -0.224 NA
HETATM    6  C8  UNL     1      22.676   0.125  53.034  1.00  0.00     0.136 A 
ENDROOT
BRANCH   1   7
HETATM    7  C4  UNL     1      25.126  -0.072  53.084  1.00  0.00     0.034 C 
HETATM    8  C3  UNL     1      25.955   0.758  53.692  1.00  0.00     0.101 C 
BRANCH   8   9
HETATM    9  N1  UNL     1      27.262   1.146  53.291  1.00  0.00    -0.292 N 
HETATM   10  H4  UNL     1      27.552   1.713  52.452  1.00  0.00     0.178 HD
BRANCH   9  11
HETATM   11  S1  UNL     1      28.460   0.551  54.404  1.00  0.00     0.251 S 
HETATM   12  O1  UNL     1      29.168   1.770  54.949  1.00  0.00    -0.201 OA
HETATM   13  O2  UNL     1      27.861  -0.273  55.483  1.00  0.00    -0.201 OA
BRANCH  11  14
HETATM   14  C2  UNL     1      29.603  -0.355  53.428  1.00  0.00     0.121 C 
HETATM   15  C1  UNL     1      29.412  -1.666  53.336  1.00  0.00     0.025 C 
ENDBRANCH  11  14
ENDBRANCH   9  11
ENDBRANCH   8   9
ENDBRANCH   1   7
BRANCH   6  16
HETATM   16  N4  UNL     1      22.722   0.885  51.835  1.00  0.00    -0.371 N 
HETATM   17  H9  UNL     1      23.086   0.483  50.944  1.00  0.00     0.161 HD
BRANCH  16  18
HETATM   18  C9  UNL     1      22.268   2.267  51.770  1.00  0.00     0.148 C 
BRANCH  18  19
HETATM   19  C10 UNL     1      23.208   3.099  52.556  1.00  0.00    -0.011 C 
HETATM   20  C11 UNL     1      24.198   3.799  52.019  1.00  0.00    -0.018 C 
BRANCH  20  21
HETATM   21  C12 UNL     1      24.580   3.910  50.585  1.00  0.00     0.112 C 
HETATM   22 BR1  UNL     1      26.328   3.109  50.282  1.00  0.00    -0.092 Br
ENDBRANCH  20  21
ENDBRANCH  18  19
ENDBRANCH  16  18
ENDBRANCH   6  16
TORSDOF 8
ENDMDL
MODEL 2
REMARK VINA RESULT:      -6.4      1.895      2.028
REMARK  8 active torsions:
REMARK  status: ('A' for Active; 'I' for Inactive)
REMARK    1  A    between atoms: C2_2  and  S1_3 
REMARK    2  A    between atoms: S1_3  and  N1_6 
REMARK    3  A    between atoms: N1_6  and  C3_7 
REMARK    4  A    between atoms: C4_8  and  C5_9 
REMARK    5  A    between atoms: C8_14  and  N4_15 
REMARK    6  A    between atoms: N4_15  and  C9_16 
REMARK    7  A    between atoms: C9_16  and  C10_17 
REMARK    8  A    between atoms: C11_18  and  C12_19 
ROOT
HETATM    1  C5  UNL     1      24.110  -0.619  54.308  1.00  0.00     0.028 A 
HETATM    2  C6  UNL     1      23.307  -1.200  55.265  1.00  0.00     0.133 A 
HETATM    3  N2  UNL     1      21.981  -1.096  55.113  1.00  0.00    -0.253 NA
HETATM    4  C7  UNL     1      21.475  -0.438  54.047  1.00  0.00     0.234 A 
HETATM    5  N3  UNL     1      22.267   0.125  53.118  1.00  0.00    -0.224 NA
HETATM    6  C8  UNL     1      23.600   0.055  53.218  1.00  0.00     0.136 A 
ENDROOT
BRANCH   1   7
HETATM    7  C4  UNL     1      25.551  -0.739  54.486  1.00  0.00     0.034 C 
HETATM    8  C3  UNL     1      26.251   0.277  54.958  1.00  0.00     0.101 C 
BRANCH   8   9
HETATM    9  N1  UNL     1      27.651   0.346  55.197  1.00  0.00    -0.292 N 
HETATM   10  H4  UNL     1      28.195  -0.012  56.024  1.00  0.00     0.178 HD
BRANCH   9  11
HETATM   11  S1  UNL     1      28.470   1.146  53.886  1.00  0.00     0.251 S 
HETATM   12  O1  UNL     1      27.522   1.101  52.709  1.00  0.00    -0.201 OA
HETATM   13  O2  UNL     1      28.860   2.533  54.233  1.00  0.00    -0.201 OA
BRANCH  11  14
HETATM   14  C2  UNL     1      29.856   0.136  53.510  1.00  0.00     0.121 C 
HETATM   15  C1  UNL     1      29.659  -1.177  53.493  1.00  0.00     0.025 C 
ENDBRANCH  11  14
ENDBRANCH   9  11
ENDBRANCH   8   9
ENDBRANCH   1   7
BRANCH   6  16
HETATM   16  N4  UNL     1      24.432   0.650  52.233  1.00  0.00    -0.371 N 
HETATM   17  H9  UNL     1      25.273   0.161  51.857  1.00  0.00     0.161 HD
BRANCH  16  18
HETATM   18  C9  UNL     1      24.169   1.974  51.687  1.00  0.00     0.148 C 
BRANCH  18  19
HETATM   19  C10 UNL     1      24.300   2.961  52.784  1.00  0.00    -0.011 C 
HETATM   20  C11 UNL     1      23.569   4.064  52.873  1.00  0.00    -0.018 C 
BRANCH  20  21
HETATM   21  C12 UNL     1      22.507   4.546  51.949  1.00  0.00     0.112 C 
HETATM   22 BR1  UNL     1      20.874   3.516  52.192  1.00  0.00    -0.092 Br
ENDBRANCH  20  21
ENDBRANCH  18  19
ENDBRANCH  16  18
ENDBRANCH   6  16
TORSDOF 8
ENDMDL
MODEL 3
REMARK VINA RESULT:      -6.3      1.672      1.933
REMARK  8 active torsions:
REMARK  status: ('A' for Active; 'I' for Inactive)
REMARK    1  A    between atoms: C2_2  and  S1_3 
REMARK    2  A    between atoms: S1_3  and  N1_6 
REMARK    3  A    between atoms: N1_6  and  C3_7 
REMARK    4  A    between atoms: C4_8  and  C5_9 
REMARK    5  A    between atoms: C8_14  and  N4_15 
REMARK    6  A    between atoms: N4_15  and  C9_16 
REMARK    7  A    between atoms: C9_16  and  C10_17 
REMARK    8  A    between atoms: C11_18  and  C12_19 
ROOT
HETATM    1  C5  UNL     1      23.238  -0.227  53.573  1.00  0.00     0.028 A 
HETATM    2  C6  UNL     1      23.208  -1.006  54.708  1.00  0.00     0.133 A 
HETATM    3  N2  UNL     1      22.038  -1.558  55.054  1.00  0.00    -0.253 NA
HETATM    4  C7  UNL     1      20.941  -1.342  54.295  1.00  0.00     0.234 A 
HETATM    5  N3  UNL     1      20.981  -0.580  53.188  1.00  0.00    -0.224 NA
HETATM    6  C8  UNL     1      22.122  -0.001  52.794  1.00  0.00     0.136 A 
ENDROOT
BRANCH   1   7
HETATM    7  C4  UNL     1      24.517   0.368  53.208  1.00  0.00     0.034 C 
HETATM    8  C3  UNL     1      25.574  -0.397  53.004  1.00  0.00     0.101 C 
BRANCH   8   9
HETATM    9  N1  UNL     1      26.891  -0.001  52.645  1.00  0.00    -0.292 N 
HETATM   10  H4  UNL     1      27.327   0.042  51.687  1.00  0.00     0.178 HD
BRANCH   9  11
HETATM   11  S1  UNL     1      27.813   0.450  54.050  1.00  0.00     0.251 S 
HETATM   12  O1  UNL     1      27.595   1.935  54.235  1.00  0.00    -0.201 OA
HETATM   13  O2  UNL     1      27.418  -0.324  55.251  1.00  0.00    -0.201 OA
BRANCH  11  14
HETATM   14  C2  UNL     1      29.494   0.195  53.614  1.00  0.00     0.121 C 
HETATM   15  C1  UNL     1      29.951  -1.050  53.678  1.00  0.00     0.025 C 
ENDBRANCH  11  14
ENDBRANCH   9  11
ENDBRANCH   8   9
ENDBRANCH   1   7
BRANCH   6  16
HETATM   16  N4  UNL     1      22.160   0.801  51.623  1.00  0.00    -0.371 N 
HETATM   17  H9  UNL     1      23.037   1.269  51.306  1.00  0.00     0.161 HD
BRANCH  16  18
HETATM   18  C9  UNL     1      20.985   1.024  50.792  1.00  0.00     0.148 C 
BRANCH  18  19
HETATM   19  C10 UNL     1      21.352   0.732  49.387  1.00  0.00    -0.011 C 
HETATM   20  C11 UNL     1      21.829   1.641  48.546  1.00  0.00    -0.018 C 
BRANCH  20  21
HETATM   21  C12 UNL     1      22.096   3.083  48.798  1.00  0.00     0.112 C 
HETATM   22 BR1  UNL     1      23.910   3.335  49.455  1.00  0.00    -0.092 Br
ENDBRANCH  20  21
ENDBRANCH  18  19
ENDBRANCH  16  18
ENDBRANCH   6  16
TORSDOF 8
ENDMDL
MODEL 4
REMARK VINA RESULT:      -6.2      3.142      5.522
REMARK  8 active torsions:
REMARK  status: ('A' for Active; 'I' for Inactive)
REMARK    1  A    between atoms: C2_2  and  S1_3 
REMARK    2  A    between atoms: S1_3  and  N1_6 
REMARK    3  A    between atoms: N1_6  and  C3_7 
REMARK    4  A    between atoms: C4_8  and  C5_9 
REMARK    5  A    between atoms: C8_14  and  N4_15 
REMARK    6  A    between atoms: N4_15  and  C9_16 
REMARK    7  A    between atoms: C9_16  and  C10_17 
REMARK    8  A    between atoms: C11_18  and  C12_19 
ROOT
HETATM    1  C5  UNL     1      26.248   0.784  53.689  1.00  0.00     0.028 A 
HETATM    2  C6  UNL     1      26.776  -0.119  54.586  1.00  0.00     0.133 A 
HETATM    3  N2  UNL     1      28.074  -0.005  54.894  1.00  0.00    -0.253 NA
HETATM    4  C7  UNL     1      28.815   0.974  54.331  1.00  0.00     0.234 A 
HETATM    5  N3  UNL     1      28.291   1.851  53.457  1.00  0.00    -0.224 NA
HETATM    6  C8  UNL     1      26.999   1.784  53.109  1.00  0.00     0.136 A 
ENDROOT
BRANCH   1   7
HETATM    7  C4  UNL     1      24.834   0.647  53.361  1.00  0.00     0.034 C 
HETATM    8  C3  UNL     1      24.265  -0.544  53.351  1.00  0.00     0.101 C 
BRANCH   8   9
HETATM    9  N1  UNL     1      22.912  -0.871  53.058  1.00  0.00    -0.292 N 
HETATM   10  H4  UNL     1      22.450  -0.977  52.117  1.00  0.00     0.178 HD
BRANCH   9  11
HETATM   11  S1  UNL     1      21.995  -1.103  54.518  1.00  0.00     0.251 S 
HETATM   12  O1  UNL     1      21.068  -2.267  54.251  1.00  0.00    -0.201 OA
HETATM   13  O2  UNL     1      22.866  -1.344  55.694  1.00  0.00    -0.201 OA
BRANCH  11  14
HETATM   14  C2  UNL     1      21.018   0.344  54.697  1.00  0.00     0.121 C 
HETATM   15  C1  UNL     1      20.682   0.986  53.584  1.00  0.00     0.025 C 
ENDBRANCH  11  14
ENDBRANCH   9  11
ENDBRANCH   8   9
ENDBRANCH   1   7
BRANCH   6  16
HETATM   16  N4  UNL     1      26.449   2.714  52.188  1.00  0.00    -0.371 N 
HETATM   17  H9  UNL     1      25.947   3.570  52.506  1.00  0.00     0.161 HD
BRANCH  16  18
HETATM   18  C9  UNL     1      26.548   2.534  50.746  1.00  0.00     0.148 C 
BRANCH  18  19
HETATM   19  C10 UNL     1      25.644   3.510  50.095  1.00  0.00    -0.011 C 
HETATM   20  C11 UNL     1      26.058   4.458  49.265  1.00  0.00    -0.018 C 
BRANCH  20  21
HETATM   21  C12 UNL     1      27.446   4.750  48.814  1.00  0.00     0.112 C 
HETATM   22 BR1  UNL     1      27.615   6.618  48.298  1.00  0.00    -0.092 Br
ENDBRANCH  20  21
ENDBRANCH  18  19
ENDBRANCH  16  18
ENDBRANCH   6  16
TORSDOF 8
ENDMDL
MODEL 5
REMARK VINA RESULT:      -6.2      1.641      1.842
REMARK  8 active torsions:
REMARK  status: ('A' for Active; 'I' for Inactive)
REMARK    1  A    between atoms: C2_2  and  S1_3 
REMARK    2  A    between atoms: S1_3  and  N1_6 
REMARK    3  A    between atoms: N1_6  and  C3_7 
REMARK    4  A    between atoms: C4_8  and  C5_9 
REMARK    5  A    between atoms: C8_14  and  N4_15 
REMARK    6  A    between atoms: N4_15  and  C9_16 
REMARK    7  A    between atoms: C9_16  and  C10_17 
REMARK    8  A    between atoms: C11_18  and  C12_19 
ROOT
HETATM    1  C5  UNL     1      23.010  -0.380  53.832  1.00  0.00     0.028 A 
HETATM    2  C6  UNL     1      22.611  -1.213  54.854  1.00  0.00     0.133 A 
HETATM    3  N2  UNL     1      21.318  -1.556  54.910  1.00  0.00    -0.253 NA
HETATM    4  C7  UNL     1      20.457  -1.087  53.980  1.00  0.00     0.234 A 
HETATM    5  N3  UNL     1      20.856  -0.276  52.986  1.00  0.00    -0.224 NA
HETATM    6  C8  UNL     1      22.136   0.103  52.881  1.00  0.00     0.136 A 
ENDROOT
BRANCH   1   7
HETATM    7  C4  UNL     1      24.420  -0.013  53.783  1.00  0.00     0.034 C 
HETATM    8  C3  UNL     1      25.316  -0.724  54.444  1.00  0.00     0.101 C 
BRANCH   8   9
HETATM    9  N1  UNL     1      26.721  -0.522  54.515  1.00  0.00    -0.292 N 
HETATM   10  H4  UNL     1      27.289  -0.124  55.308  1.00  0.00     0.178 HD
BRANCH   9  11
HETATM   11  S1  UNL     1      27.501  -1.032  53.046  1.00  0.00     0.251 S 
HETATM   12  O1  UNL     1      27.182  -2.502  52.891  1.00  0.00    -0.201 OA
HETATM   13  O2  UNL     1      27.059  -0.241  51.873  1.00  0.00    -0.201 OA
BRANCH  11  14
HETATM   14  C2  UNL     1      29.223  -0.876  53.347  1.00  0.00     0.121 C 
HETATM   15  C1  UNL     1      29.660   0.313  53.746  1.00  0.00     0.025 C 
ENDBRANCH  11  14
ENDBRANCH   9  11
ENDBRANCH   8   9
ENDBRANCH   1   7
BRANCH   6  16
HETATM   16  N4  UNL     1      22.553   0.959  51.828  1.00  0.00    -0.371 N 
HETATM   17  H9  UNL     1      23.110   0.605  51.020  1.00  0.00     0.161 HD
BRANCH  16  18
HETATM   18  C9  UNL     1      22.234   2.380  51.805  1.00  0.00     0.148 C 
BRANCH  18  19
HETATM   19  C10 UNL     1      23.399   3.124  52.336  1.00  0.00    -0.011 C 
HETATM   20  C11 UNL     1      24.468   3.431  51.614  1.00  0.00    -0.018 C 
BRANCH  20  21
HETATM   21  C12 UNL     1      24.739   3.121  50.184  1.00  0.00     0.112 C 
HETATM   22 BR1  UNL     1      26.373   3.997  49.594  1.00  0.00    -0.092 Br
ENDBRANCH  20  21
ENDBRANCH  18  19
ENDBRANCH  16  18
ENDBRANCH   6  16
TORSDOF 8
ENDMDL
MODEL 6
REMARK VINA RESULT:      -6.1      2.425      3.459
REMARK  8 active torsions:
REMARK  status: ('A' for Active; 'I' for Inactive)
REMARK    1  A    between atoms: C2_2  and  S1_3 
REMARK    2  A    between atoms: S1_3  and  N1_6 
REMARK    3  A    between atoms: N1_6  and  C3_7 
REMARK    4  A    between atoms: C4_8  and  C5_9 
REMARK    5  A    between atoms: C8_14  and  N4_15 
REMARK    6  A    between atoms: N4_15  and  C9_16 
REMARK    7  A    between atoms: C9_16  and  C10_17 
REMARK    8  A    between atoms: C11_18  and  C12_19 
ROOT
HETATM    1  C5  UNL     1      23.567   3.045  52.595  1.00  0.00     0.028 A 
HETATM    2  C6  UNL     1      22.817   1.889  52.577  1.00  0.00     0.133 A 
HETATM    3  N2  UNL     1      21.502   2.002  52.355  1.00  0.00    -0.253 NA
HETATM    4  C7  UNL     1      20.955   3.223  52.158  1.00  0.00     0.234 A 
HETATM    5  N3  UNL     1      21.695   4.345  52.176  1.00  0.00    -0.224 NA
HETATM    6  C8  UNL     1      23.015   4.293  52.395  1.00  0.00     0.136 A 
ENDROOT
BRANCH   1   7
HETATM    7  C4  UNL     1      24.997   2.907  52.838  1.00  0.00     0.034 C 
HETATM    8  C3  UNL     1      25.435   2.145  53.825  1.00  0.00     0.101 C 
BRANCH   8   9
HETATM    9  N1  UNL     1      26.779   1.892  54.210  1.00  0.00    -0.292 N 
HETATM   10  H4  UNL     1      27.506   2.575  54.547  1.00  0.00     0.178 HD
BRANCH   9  11
HETATM   11  S1  UNL     1      27.162   0.201  54.067  1.00  0.00     0.251 S 
HETATM   12  O1  UNL     1      26.291  -0.513  55.075  1.00  0.00    -0.201 OA
HETATM   13  O2  UNL     1      26.951  -0.307  52.691  1.00  0.00    -0.201 OA
BRANCH  11  14
HETATM   14  C2  UNL     1      28.833   0.050  54.585  1.00  0.00     0.121 C 
HETATM   15  C1  UNL     1      29.661  -0.595  53.772  1.00  0.00     0.025 C 
ENDBRANCH  11  14
ENDBRANCH   9  11
ENDBRANCH   8   9
ENDBRANCH   1   7
BRANCH   6  16
HETATM   16  N4  UNL     1      23.793   5.481  52.412  1.00  0.00    -0.371 N 
HETATM   17  H9  UNL     1      24.304   5.790  53.267  1.00  0.00     0.161 HD
BRANCH  16  18
HETATM   18  C9  UNL     1      23.929   6.341  51.246  1.00  0.00     0.148 C 
BRANCH  18  19
HETATM   19  C10 UNL     1      24.972   5.766  50.365  1.00  0.00    -0.011 C 
HETATM   20  C11 UNL     1      24.708   5.089  49.256  1.00  0.00    -0.018 C 
BRANCH  20  21
HETATM   21  C12 UNL     1      23.382   4.765  48.663  1.00  0.00     0.112 C 
HETATM   22 BR1  UNL     1      23.023   2.857  48.798  1.00  0.00    -0.092 Br
ENDBRANCH  20  21
ENDBRANCH  18  19
ENDBRANCH  16  18
ENDBRANCH   6  16
TORSDOF 8
ENDMDL
MODEL 7
REMARK VINA RESULT:      -6.1      2.982      5.455
REMARK  8 active torsions:
REMARK  status: ('A' for Active; 'I' for Inactive)
REMARK    1  A    between atoms: C2_2  and  S1_3 
REMARK    2  A    between atoms: S1_3  and  N1_6 
REMARK    3  A    between atoms: N1_6  and  C3_7 
REMARK    4  A    between atoms: C4_8  and  C5_9 
REMARK    5  A    between atoms: C8_14  and  N4_15 
REMARK    6  A    between atoms: N4_15  and  C9_16 
REMARK    7  A    between atoms: C9_16  and  C10_17 
REMARK    8  A    between atoms: C11_18  and  C12_19 
ROOT
HETATM    1  C5  UNL     1      26.447   0.797  53.666  1.00  0.00     0.028 A 
HETATM    2  C6  UNL     1      26.995  -0.087  54.570  1.00  0.00     0.133 A 
HETATM    3  N2  UNL     1      28.299   0.035  54.850  1.00  0.00    -0.253 NA
HETATM    4  C7  UNL     1      29.028   1.003  54.251  1.00  0.00     0.234 A 
HETATM    5  N3  UNL     1      28.484   1.861  53.371  1.00  0.00    -0.224 NA
HETATM    6  C8  UNL     1      27.186   1.787  53.051  1.00  0.00     0.136 A 
ENDROOT
BRANCH   1   7
HETATM    7  C4  UNL     1      25.028   0.653  53.370  1.00  0.00     0.034 C 
HETATM    8  C3  UNL     1      24.448  -0.531  53.446  1.00  0.00     0.101 C 
BRANCH   8   9
HETATM    9  N1  UNL     1      23.089  -0.864  53.197  1.00  0.00    -0.292 N 
HETATM   10  H4  UNL     1      22.589  -0.939  52.273  1.00  0.00     0.178 HD
BRANCH   9  11
HETATM   11  S1  UNL     1      22.236  -1.165  54.683  1.00  0.00     0.251 S 
HETATM   12  O1  UNL     1      21.410  -2.409  54.448  1.00  0.00    -0.201 OA
HETATM   13  O2  UNL     1      23.156  -1.318  55.836  1.00  0.00    -0.201 OA
BRANCH  11  14
HETATM   14  C2  UNL     1      21.139   0.191  54.881  1.00  0.00     0.121 C 
HETATM   15  C1  UNL     1      20.523   0.633  53.790  1.00  0.00     0.025 C 
ENDBRANCH  11  14
ENDBRANCH   9  11
ENDBRANCH   8   9
ENDBRANCH   1   7
BRANCH   6  16
HETATM   16  N4  UNL     1      26.616   2.696  52.122  1.00  0.00    -0.371 N 
HETATM   17  H9  UNL     1      26.195   3.600  52.427  1.00  0.00     0.161 HD
BRANCH  16  18
HETATM   18  C9  UNL     1      26.582   2.430  50.691  1.00  0.00     0.148 C 
BRANCH  18  19
HETATM   19  C10 UNL     1      25.895   3.562  50.026  1.00  0.00    -0.011 C 
HETATM   20  C11 UNL     1      24.581   3.632  49.862  1.00  0.00    -0.018 C 
BRANCH  20  21
HETATM   21  C12 UNL     1      23.543   2.651  50.281  1.00  0.00     0.112 C 
HETATM   22 BR1  UNL     1      22.667   3.243  51.915  1.00  0.00    -0.092 Br
ENDBRANCH  20  21
ENDBRANCH  18  19
ENDBRANCH  16  18
ENDBRANCH   6  16
TORSDOF 8
ENDMDL
MODEL 8
REMARK VINA RESULT:      -6.0      2.398      2.920
REMARK  8 active torsions:
REMARK  status: ('A' for Active; 'I' for Inactive)
REMARK    1  A    between atoms: C2_2  and  S1_3 
REMARK    2  A    between atoms: S1_3  and  N1_6 
REMARK    3  A    between atoms: N1_6  and  C3_7 
REMARK    4  A    between atoms: C4_8  and  C5_9 
REMARK    5  A    between atoms: C8_14  and  N4_15 
REMARK    6  A    between atoms: N4_15  and  C9_16 
REMARK    7  A    between atoms: C9_16  and  C10_17 
REMARK    8  A    between atoms: C11_18  and  C12_19 
ROOT
HETATM    1  C5  UNL     1      23.959  -0.430  53.752  1.00  0.00     0.028 A 
HETATM    2  C6  UNL     1      23.815  -1.165  54.908  1.00  0.00     0.133 A 
HETATM    3  N2  UNL     1      22.585  -1.276  55.427  1.00  0.00    -0.253 NA
HETATM    4  C7  UNL     1      21.540  -0.677  54.814  1.00  0.00     0.234 A 
HETATM    5  N3  UNL     1      21.691   0.037  53.686  1.00  0.00    -0.224 NA
HETATM    6  C8  UNL     1      22.896   0.183  53.122  1.00  0.00     0.136 A 
ENDROOT
BRANCH   1   7
HETATM    7  C4  UNL     1      25.302  -0.317  53.198  1.00  0.00     0.034 C 
HETATM    8  C3  UNL     1      26.100   0.664  53.580  1.00  0.00     0.101 C 
BRANCH   8   9
HETATM    9  N1  UNL     1      27.429   0.933  53.155  1.00  0.00    -0.292 N 
HETATM   10  H4  UNL     1      27.757   1.334  52.238  1.00  0.00     0.178 HD
BRANCH   9  11
HETATM   11  S1  UNL     1      28.579   0.508  54.390  1.00  0.00     0.251 S 
HETATM   12  O1  UNL     1      29.242   1.800  54.809  1.00  0.00    -0.201 OA
HETATM   13  O2  UNL     1      27.941  -0.187  55.534  1.00  0.00    -0.201 OA
BRANCH  11  14
HETATM   14  C2  UNL     1      29.782  -0.489  53.590  1.00  0.00     0.121 C 
HETATM   15  C1  UNL     1      29.431  -1.734  53.289  1.00  0.00     0.025 C 
ENDBRANCH  11  14
ENDBRANCH   9  11
ENDBRANCH   8   9
ENDBRANCH   1   7
BRANCH   6  16
HETATM   16  N4  UNL     1      23.051   0.937  51.928  1.00  0.00    -0.371 N 
HETATM   17  H9  UNL     1      23.919   0.883  51.353  1.00  0.00     0.161 HD
BRANCH  16  18
HETATM   18  C9  UNL     1      22.014   1.831  51.431  1.00  0.00     0.148 C 
BRANCH  18  19
HETATM   19  C10 UNL     1      21.305   1.146  50.326  1.00  0.00    -0.011 C 
HETATM   20  C11 UNL     1      20.014   0.844  50.354  1.00  0.00    -0.018 C 
BRANCH  20  21
HETATM   21  C12 UNL     1      19.027   1.104  51.437  1.00  0.00     0.112 C 
HETATM   22 BR1  UNL     1      17.597  -0.215  51.387  1.00  0.00    -0.092 Br
ENDBRANCH  20  21
ENDBRANCH  18  19
ENDBRANCH  16  18
ENDBRANCH   6  16
TORSDOF 8
ENDMDL
MODEL 9
REMARK VINA RESULT:      -5.9      3.885      5.860
REMARK  8 active torsions:
REMARK  status: ('A' for Active; 'I' for Inactive)
REMARK    1  A    between atoms: C2_2  and  S1_3 
REMARK    2  A    between atoms: S1_3  and  N1_6 
REMARK    3  A    between atoms: N1_6  and  C3_7 
REMARK    4  A    between atoms: C4_8  and  C5_9 
REMARK    5  A    between atoms: C8_14  and  N4_15 
REMARK    6  A    between atoms: N4_15  and  C9_16 
REMARK    7  A    between atoms: C9_16  and  C10_17 
REMARK    8  A    between atoms: C11_18  and  C12_19 
ROOT
HETATM    1  C5  UNL     1      27.277   0.962  52.832  1.00  0.00     0.028 A 
HETATM    2  C6  UNL     1      28.417   1.630  53.223  1.00  0.00     0.133 A 
HETATM    3  N2  UNL     1      28.985   1.269  54.380  1.00  0.00    -0.253 NA
HETATM    4  C7  UNL     1      28.438   0.279  55.118  1.00  0.00     0.234 A 
HETATM    5  N3  UNL     1      27.326  -0.369  54.728  1.00  0.00    -0.224 NA
HETATM    6  C8  UNL     1      26.713  -0.050  53.581  1.00  0.00     0.136 A 
ENDROOT
BRANCH   1   7
HETATM    7  C4  UNL     1      26.668   1.365  51.570  1.00  0.00     0.034 C 
HETATM    8  C3  UNL     1      26.455   2.642  51.312  1.00  0.00     0.101 C 
BRANCH   8   9
HETATM    9  N1  UNL     1      25.877   3.220  50.149  1.00  0.00    -0.292 N 
HETATM   10  H4  UNL     1      26.345   3.472  49.239  1.00  0.00     0.178 HD
BRANCH   9  11
HETATM   11  S1  UNL     1      24.175   3.504  50.370  1.00  0.00     0.251 S 
HETATM   12  O1  UNL     1      23.834   4.701  49.512  1.00  0.00    -0.201 OA
HETATM   13  O2  UNL     1      23.359   2.317  50.018  1.00  0.00    -0.201 OA
BRANCH  11  14
HETATM   14  C2  UNL     1      23.989   3.967  52.053  1.00  0.00     0.121 C 
HETATM   15  C1  UNL     1      22.788   4.384  52.435  1.00  0.00     0.025 C 
ENDBRANCH  11  14
ENDBRANCH   9  11
ENDBRANCH   8   9
ENDBRANCH   1   7
BRANCH   6  16
HETATM   16  N4  UNL     1      25.540  -0.737  53.172  1.00  0.00    -0.371 N 
HETATM   17  H9  UNL     1      25.553  -1.427  52.391  1.00  0.00     0.161 HD
BRANCH  16  18
HETATM   18  C9  UNL     1      24.249  -0.525  53.812  1.00  0.00     0.148 C 
BRANCH  18  19
HETATM   19  C10 UNL     1      23.428   0.330  52.924  1.00  0.00    -0.011 C 
HETATM   20  C11 UNL     1      22.166   0.653  53.173  1.00  0.00    -0.018 C 
BRANCH  20  21
HETATM   21  C12 UNL     1      21.323   0.259  54.334  1.00  0.00     0.112 C 
HETATM   22 BR1  UNL     1      20.796  -1.609  54.190  1.00  0.00    -0.092 Br
ENDBRANCH  20  21
ENDBRANCH  18  19
ENDBRANCH  16  18
ENDBRANCH   6  16
TORSDOF 8
ENDMDL
