MODEL 1
REMARK VINA RESULT:      -7.9      0.000      0.000
REMARK  4 active torsions:
REMARK  status: ('A' for Active; 'I' for Inactive)
REMARK    1  A    between atoms: S1_2  and  C2_3 
REMARK    2  A    between atoms: N1_11  and  N2_12 
REMARK    3  A    between atoms: N2_12  and  C10_13 
REMARK    4  A    between atoms: C11_14  and  O1_15 
ROOT
HETATM    1  C2  UNL     1      23.076   2.394  51.991  1.00  0.00    -0.009 C 
HETATM    2  C3  UNL     1      23.536   3.637  52.157  1.00  0.00    -0.000 C 
HETATM    3  C4  UNL     1      24.102   3.735  53.337  1.00  0.00    -0.013 C 
HETATM    4  C5  UNL     1      24.883   2.674  53.554  1.00  0.00     0.013 C 
HETATM    5  C6  UNL     1      25.406   1.930  52.409  1.00  0.00    -0.002 C 
HETATM    6  C7  UNL     1      25.330   0.703  51.988  1.00  0.00    -0.015 C 
HETATM    7  C8  UNL     1      24.555  -0.233  52.789  1.00  0.00     0.070 C 
HETATM    8  C9  UNL     1      25.020  -0.388  54.213  1.00  0.00     0.048 C 
HETATM    9  N1  UNL     1      26.197  -0.586  54.698  1.00  0.00    -0.181 NA
HETATM   10  C12 UNL     1      23.628  -0.216  54.670  1.00  0.00     0.072 C 
HETATM   11  C13 UNL     1      22.827  -1.440  54.952  1.00  0.00     0.179 C 
HETATM   12  O2  UNL     1      21.642  -1.161  54.230  1.00  0.00    -0.390 OA
HETATM   13  C14 UNL     1      22.222  -0.933  52.962  1.00  0.00     0.179 C 
HETATM   14  C15 UNL     1      23.242   0.188  53.255  1.00  0.00     0.009 C 
HETATM   15  C16 UNL     1      22.751   1.546  53.143  1.00  0.00     0.060 C 
ENDROOT
BRANCH   9  16
HETATM   16  N2  UNL     1      27.294  -0.691  53.838  1.00  0.00    -0.259 N 
HETATM   17  H8  UNL     1      27.246  -1.493  53.173  1.00  0.00     0.191 HD
BRANCH  16  18
HETATM   18  C10 UNL     1      28.451   0.140  53.752  1.00  0.00     0.175 A 
HETATM   19  C11 UNL     1      28.803   1.475  53.838  1.00  0.00     0.188 A 
HETATM   20  N3  UNL     1      29.799   0.548  53.593  1.00  0.00    -0.315 N 
HETATM   21  H10 UNL     1      30.728   0.117  53.410  1.00  0.00     0.169 HD
BRANCH  19  22
HETATM   22  O1  UNL     1      28.435   2.800  54.031  1.00  0.00    -0.343 OA
HETATM   23  H9  UNL     1      27.487   3.091  54.244  1.00  0.00     0.219 HD
ENDBRANCH  19  22
ENDBRANCH  16  18
ENDBRANCH   9  16
BRANCH   1  24
HETATM   24  S1  UNL     1      22.805   1.705  50.388  1.00  0.00    -0.138 SA
HETATM   25  C1  UNL     1      23.314   2.925  49.150  1.00  0.00     0.095 C 
ENDBRANCH   1  24
TORSDOF 4
ENDMDL
MODEL 2
REMARK VINA RESULT:      -7.3      1.342      1.545
REMARK  4 active torsions:
REMARK  status: ('A' for Active; 'I' for Inactive)
REMARK    1  A    between atoms: S1_2  and  C2_3 
REMARK    2  A    between atoms: N1_11  and  N2_12 
REMARK    3  A    between atoms: N2_12  and  C10_13 
REMARK    4  A    between atoms: C11_14  and  O1_15 
ROOT
HETATM    1  C2  UNL     1      22.750   3.633  51.292  1.00  0.00    -0.009 C 
HETATM    2  C3  UNL     1      23.171   4.798  51.791  1.00  0.00    -0.000 C 
HETATM    3  C4  UNL     1      23.419   4.655  53.073  1.00  0.00    -0.013 C 
HETATM    4  C5  UNL     1      24.104   3.527  53.278  1.00  0.00     0.013 C 
HETATM    5  C6  UNL     1      24.890   2.962  52.182  1.00  0.00    -0.002 C 
HETATM    6  C7  UNL     1      24.905   1.834  51.538  1.00  0.00    -0.015 C 
HETATM    7  C8  UNL     1      23.938   0.822  51.936  1.00  0.00     0.070 C 
HETATM    8  C9  UNL     1      24.023   0.394  53.377  1.00  0.00     0.048 C 
HETATM    9  N1  UNL     1      25.035   0.044  54.094  1.00  0.00    -0.181 NA
HETATM   10  C12 UNL     1      22.563   0.568  53.499  1.00  0.00     0.072 C 
HETATM   11  C13 UNL     1      21.699  -0.635  53.344  1.00  0.00     0.179 C 
HETATM   12  O2  UNL     1      20.741  -0.163  52.415  1.00  0.00    -0.390 OA
HETATM   13  C14 UNL     1      21.628   0.246  51.394  1.00  0.00     0.179 C 
HETATM   14  C15 UNL     1      22.557   1.235  52.131  1.00  0.00     0.009 C 
HETATM   15  C16 UNL     1      22.130   2.619  52.151  1.00  0.00     0.060 C 
ENDROOT
BRANCH   9  16
HETATM   16  N2  UNL     1      26.313   0.024  53.529  1.00  0.00    -0.259 N 
HETATM   17  H8  UNL     1      26.402  -0.583  52.686  1.00  0.00     0.191 HD
BRANCH  16  18
HETATM   18  C10 UNL     1      27.491   0.712  53.947  1.00  0.00     0.175 A 
HETATM   19  C11 UNL     1      28.260   1.804  53.592  1.00  0.00     0.188 A 
HETATM   20  N3  UNL     1      28.651   1.055  54.685  1.00  0.00    -0.315 N 
HETATM   21  H10 UNL     1      29.181   0.709  55.511  1.00  0.00     0.169 HD
BRANCH  19  22
HETATM   22  O1  UNL     1      28.488   2.884  52.749  1.00  0.00    -0.343 OA
HETATM   23  H9  UNL     1      28.349   3.850  53.029  1.00  0.00     0.219 HD
ENDBRANCH  19  22
ENDBRANCH  16  18
ENDBRANCH   9  16
BRANCH   1  24
HETATM   24  S1  UNL     1      22.887   3.250  49.573  1.00  0.00    -0.138 SA
HETATM   25  C1  UNL     1      23.762   4.608  48.756  1.00  0.00     0.095 C 
ENDBRANCH   1  24
TORSDOF 4
ENDMDL
MODEL 3
REMARK VINA RESULT:      -7.1      1.995      2.179
REMARK  4 active torsions:
REMARK  status: ('A' for Active; 'I' for Inactive)
REMARK    1  A    between atoms: S1_2  and  C2_3 
REMARK    2  A    between atoms: N1_11  and  N2_12 
REMARK    3  A    between atoms: N2_12  and  C10_13 
REMARK    4  A    between atoms: C11_14  and  O1_15 
ROOT
HETATM    1  C2  UNL     1      22.401   3.562  51.436  1.00  0.00    -0.009 C 
HETATM    2  C3  UNL     1      22.992   4.682  51.859  1.00  0.00    -0.000 C 
HETATM    3  C4  UNL     1      23.460   4.494  53.071  1.00  0.00    -0.013 C 
HETATM    4  C5  UNL     1      24.083   3.314  53.138  1.00  0.00     0.013 C 
HETATM    5  C6  UNL     1      24.611   2.719  51.911  1.00  0.00    -0.002 C 
HETATM    6  C7  UNL     1      24.424   1.607  51.265  1.00  0.00    -0.015 C 
HETATM    7  C8  UNL     1      23.472   0.659  51.827  1.00  0.00     0.070 C 
HETATM    8  C9  UNL     1      23.788   0.195  53.223  1.00  0.00     0.048 C 
HETATM    9  N1  UNL     1      24.884  -0.243  53.739  1.00  0.00    -0.181 NA
HETATM   10  C12 UNL     1      22.392   0.471  53.613  1.00  0.00     0.072 C 
HETATM   11  C13 UNL     1      21.426  -0.663  53.610  1.00  0.00     0.179 C 
HETATM   12  O2  UNL     1      20.352  -0.104  52.877  1.00  0.00    -0.390 OA
HETATM   13  C14 UNL     1      21.066   0.263  51.714  1.00  0.00     0.179 C 
HETATM   14  C15 UNL     1      22.185   1.166  52.276  1.00  0.00     0.009 C 
HETATM   15  C16 UNL     1      21.874   2.577  52.386  1.00  0.00     0.060 C 
ENDROOT
BRANCH   9  16
HETATM   16  N2  UNL     1      26.032  -0.343  52.948  1.00  0.00    -0.259 N 
HETATM   17  H8  UNL     1      25.906  -0.028  51.962  1.00  0.00     0.191 HD
BRANCH  16  18
HETATM   18  C10 UNL     1      27.331  -0.813  53.305  1.00  0.00     0.175 A 
HETATM   19  C11 UNL     1      28.108  -1.952  53.207  1.00  0.00     0.188 A 
HETATM   20  N3  UNL     1      28.648  -0.842  53.829  1.00  0.00    -0.315 N 
HETATM   21  H10 UNL     1      29.304  -0.207  54.327  1.00  0.00     0.169 HD
BRANCH  19  22
HETATM   22  O1  UNL     1      28.255  -3.268  52.789  1.00  0.00    -0.343 OA
HETATM   23  H9  UNL     1      28.349  -4.051  53.429  1.00  0.00     0.219 HD
ENDBRANCH  19  22
ENDBRANCH  16  18
ENDBRANCH   9  16
BRANCH   1  24
HETATM   24  S1  UNL     1      22.191   3.208  49.718  1.00  0.00    -0.138 SA
HETATM   25  C1  UNL     1      23.185   4.387  48.769  1.00  0.00     0.095 C 
ENDBRANCH   1  24
TORSDOF 4
ENDMDL
MODEL 4
REMARK VINA RESULT:      -6.9      3.424      5.973
REMARK  4 active torsions:
REMARK  status: ('A' for Active; 'I' for Inactive)
REMARK    1  A    between atoms: S1_2  and  C2_3 
REMARK    2  A    between atoms: N1_11  and  N2_12 
REMARK    3  A    between atoms: N2_12  and  C10_13 
REMARK    4  A    between atoms: C11_14  and  O1_15 
ROOT
HETATM    1  C2  UNL     1      22.467   2.673  50.488  1.00  0.00    -0.009 C 
HETATM    2  C3  UNL     1      21.761   2.420  49.383  1.00  0.00    -0.000 C 
HETATM    3  C4  UNL     1      21.625   1.121  49.244  1.00  0.00    -0.013 C 
HETATM    4  C5  UNL     1      21.296   0.572  50.416  1.00  0.00     0.013 C 
HETATM    5  C6  UNL     1      20.648   1.400  51.432  1.00  0.00    -0.002 C 
HETATM    6  C7  UNL     1      20.919   1.750  52.653  1.00  0.00    -0.015 C 
HETATM    7  C8  UNL     1      22.150   1.239  53.240  1.00  0.00     0.070 C 
HETATM    8  C9  UNL     1      22.258  -0.262  53.281  1.00  0.00     0.048 C 
HETATM    9  N1  UNL     1      21.421  -1.157  53.680  1.00  0.00    -0.181 NA
HETATM   10  C12 UNL     1      23.615  -0.164  52.709  1.00  0.00     0.072 C 
HETATM   11  C13 UNL     1      24.773  -0.199  53.644  1.00  0.00     0.179 C 
HETATM   12  O2  UNL     1      25.514   0.923  53.202  1.00  0.00    -0.390 OA
HETATM   13  C14 UNL     1      24.499   1.899  53.319  1.00  0.00     0.179 C 
HETATM   14  C15 UNL     1      23.367   1.314  52.447  1.00  0.00     0.009 C 
HETATM   15  C16 UNL     1      23.388   1.676  51.044  1.00  0.00     0.060 C 
ENDROOT
BRANCH   9  16
HETATM   16  N2  UNL     1      20.175  -0.769  54.179  1.00  0.00    -0.259 N 
HETATM   17  H8  UNL     1      20.217  -0.075  54.956  1.00  0.00     0.191 HD
BRANCH  16  18
HETATM   18  C10 UNL     1      18.874  -1.190  53.771  1.00  0.00     0.175 A 
HETATM   19  C11 UNL     1      18.009  -1.066  52.699  1.00  0.00     0.188 A 
HETATM   20  N3  UNL     1      17.601  -1.813  53.788  1.00  0.00    -0.315 N 
HETATM   21  H10 UNL     1      17.032  -2.407  54.424  1.00  0.00     0.169 HD
BRANCH  19  22
HETATM   22  O1  UNL     1      17.735  -0.561  51.435  1.00  0.00    -0.343 OA
HETATM   23  H9  UNL     1      16.889  -0.048  51.210  1.00  0.00     0.219 HD
ENDBRANCH  19  22
ENDBRANCH  16  18
ENDBRANCH   9  16
BRANCH   1  24
HETATM   24  S1  UNL     1      22.361   4.221  51.330  1.00  0.00    -0.138 SA
HETATM   25  C1  UNL     1      20.889   5.093  50.734  1.00  0.00     0.095 C 
ENDBRANCH   1  24
TORSDOF 4
ENDMDL
MODEL 5
REMARK VINA RESULT:      -6.9      2.920      4.519
REMARK  4 active torsions:
REMARK  status: ('A' for Active; 'I' for Inactive)
REMARK    1  A    between atoms: S1_2  and  C2_3 
REMARK    2  A    between atoms: N1_11  and  N2_12 
REMARK    3  A    between atoms: N2_12  and  C10_13 
REMARK    4  A    between atoms: C11_14  and  O1_15 
ROOT
HETATM    1  C2  UNL     1      22.193   3.510  50.897  1.00  0.00    -0.009 C 
HETATM    2  C3  UNL     1      21.375   2.455  50.915  1.00  0.00    -0.000 C 
HETATM    3  C4  UNL     1      22.024   1.397  50.486  1.00  0.00    -0.013 C 
HETATM    4  C5  UNL     1      23.232   1.346  51.055  1.00  0.00     0.013 C 
HETATM    5  C6  UNL     1      23.447   2.028  52.330  1.00  0.00    -0.002 C 
HETATM    6  C7  UNL     1      24.238   2.966  52.758  1.00  0.00    -0.015 C 
HETATM    7  C8  UNL     1      25.178   3.537  51.804  1.00  0.00     0.070 C 
HETATM    8  C9  UNL     1      26.124   2.549  51.176  1.00  0.00     0.048 C 
HETATM    9  N1  UNL     1      26.859   1.632  51.705  1.00  0.00    -0.181 NA
HETATM   10  C12 UNL     1      25.804   3.108  49.849  1.00  0.00     0.072 C 
HETATM   11  C13 UNL     1      26.723   4.132  49.279  1.00  0.00     0.179 C 
HETATM   12  O2  UNL     1      25.805   5.138  48.894  1.00  0.00    -0.390 OA
HETATM   13  C14 UNL     1      25.172   5.327  50.143  1.00  0.00     0.179 C 
HETATM   14  C15 UNL     1      24.677   3.906  50.488  1.00  0.00     0.009 C 
HETATM   15  C16 UNL     1      23.357   3.553  50.006  1.00  0.00     0.060 C 
ENDROOT
BRANCH   9  16
HETATM   16  N2  UNL     1      26.846   1.445  53.090  1.00  0.00    -0.259 N 
HETATM   17  H8  UNL     1      26.089   1.962  53.589  1.00  0.00     0.191 HD
BRANCH  16  18
HETATM   18  C10 UNL     1      27.717   0.655  53.899  1.00  0.00     0.175 A 
HETATM   19  C11 UNL     1      29.049   0.294  53.977  1.00  0.00     0.188 A 
HETATM   20  N3  UNL     1      28.178  -0.203  54.928  1.00  0.00    -0.315 N 
HETATM   21  H10 UNL     1      27.793  -0.716  55.747  1.00  0.00     0.169 HD
BRANCH  19  22
HETATM   22  O1  UNL     1      30.341   0.369  53.474  1.00  0.00    -0.343 OA
HETATM   23  H9  UNL     1      30.550   0.502  52.490  1.00  0.00     0.219 HD
ENDBRANCH  19  22
ENDBRANCH  16  18
ENDBRANCH   9  16
BRANCH   1  24
HETATM   24  S1  UNL     1      21.915   4.925  51.918  1.00  0.00    -0.138 SA
HETATM   25  C1  UNL     1      21.593   6.347  50.844  1.00  0.00     0.095 C 
ENDBRANCH   1  24
TORSDOF 4
ENDMDL
MODEL 6
REMARK VINA RESULT:      -6.7      4.140      5.709
REMARK  4 active torsions:
REMARK  status: ('A' for Active; 'I' for Inactive)
REMARK    1  A    between atoms: S1_2  and  C2_3 
REMARK    2  A    between atoms: N1_11  and  N2_12 
REMARK    3  A    between atoms: N2_12  and  C10_13 
REMARK    4  A    between atoms: C11_14  and  O1_15 
ROOT
HETATM    1  C2  UNL     1      22.212   0.869  52.452  1.00  0.00    -0.009 C 
HETATM    2  C3  UNL     1      23.126   0.357  53.281  1.00  0.00    -0.000 C 
HETATM    3  C4  UNL     1      24.316   0.478  52.740  1.00  0.00    -0.013 C 
HETATM    4  C5  UNL     1      24.457   1.703  52.226  1.00  0.00     0.013 C 
HETATM    5  C6  UNL     1      23.636   2.794  52.750  1.00  0.00    -0.002 C 
HETATM    6  C7  UNL     1      22.770   3.624  52.251  1.00  0.00    -0.015 C 
HETATM    7  C8  UNL     1      22.483   3.518  50.828  1.00  0.00     0.070 C 
HETATM    8  C9  UNL     1      23.677   3.685  49.926  1.00  0.00     0.048 C 
HETATM    9  N1  UNL     1      24.604   4.580  49.910  1.00  0.00    -0.181 NA
HETATM   10  C12 UNL     1      23.274   2.468  49.194  1.00  0.00     0.072 C 
HETATM   11  C13 UNL     1      22.486   2.633  47.942  1.00  0.00     0.179 C 
HETATM   12  O2  UNL     1      21.425   1.724  48.167  1.00  0.00    -0.390 OA
HETATM   13  C14 UNL     1      20.969   2.242  49.400  1.00  0.00     0.179 C 
HETATM   14  C15 UNL     1      22.239   2.195  50.276  1.00  0.00     0.009 C 
HETATM   15  C16 UNL     1      22.465   0.966  51.011  1.00  0.00     0.060 C 
ENDROOT
BRANCH   9  16
HETATM   16  N2  UNL     1      24.585   5.615  50.849  1.00  0.00    -0.259 N 
HETATM   17  H8  UNL     1      24.242   5.335  51.794  1.00  0.00     0.191 HD
BRANCH  16  18
HETATM   18  C10 UNL     1      24.967   6.980  50.689  1.00  0.00     0.175 A 
HETATM   19  C11 UNL     1      26.047   7.734  50.269  1.00  0.00     0.188 A 
HETATM   20  N3  UNL     1      24.912   8.396  50.695  1.00  0.00    -0.315 N 
HETATM   21  H10 UNL     1      24.239   9.149  50.945  1.00  0.00     0.169 HD
BRANCH  19  22
HETATM   22  O1  UNL     1      27.343   7.796  49.772  1.00  0.00    -0.343 OA
HETATM   23  H9  UNL     1      27.631   8.442  49.044  1.00  0.00     0.219 HD
ENDBRANCH  19  22
ENDBRANCH  16  18
ENDBRANCH   9  16
BRANCH   1  24
HETATM   24  S1  UNL     1      20.640   1.433  53.028  1.00  0.00    -0.138 SA
HETATM   25  C1  UNL     1      19.359   0.368  52.318  1.00  0.00     0.095 C 
ENDBRANCH   1  24
TORSDOF 4
ENDMDL
MODEL 7
REMARK VINA RESULT:      -6.5      9.999     12.333
REMARK  4 active torsions:
REMARK  status: ('A' for Active; 'I' for Inactive)
REMARK    1  A    between atoms: S1_2  and  C2_3 
REMARK    2  A    between atoms: N1_11  and  N2_12 
REMARK    3  A    between atoms: N2_12  and  C10_13 
REMARK    4  A    between atoms: C11_14  and  O1_15 
ROOT
HETATM    1  C2  UNL     1      33.572   4.731  45.985  1.00  0.00    -0.009 C 
HETATM    2  C3  UNL     1      33.325   3.490  46.411  1.00  0.00    -0.000 C 
HETATM    3  C4  UNL     1      33.281   3.484  47.724  1.00  0.00    -0.013 C 
HETATM    4  C5  UNL     1      32.559   4.520  48.157  1.00  0.00     0.013 C 
HETATM    5  C6  UNL     1      31.563   5.115  47.266  1.00  0.00    -0.002 C 
HETATM    6  C7  UNL     1      31.360   6.295  46.761  1.00  0.00    -0.015 C 
HETATM    7  C8  UNL     1      32.302   7.347  47.114  1.00  0.00     0.070 C 
HETATM    8  C9  UNL     1      32.423   7.622  48.589  1.00  0.00     0.048 C 
HETATM    9  N1  UNL     1      31.520   7.807  49.489  1.00  0.00    -0.181 NA
HETATM   10  C12 UNL     1      33.892   7.570  48.462  1.00  0.00     0.072 C 
HETATM   11  C13 UNL     1      34.628   8.856  48.309  1.00  0.00     0.179 C 
HETATM   12  O2  UNL     1      35.453   8.566  47.196  1.00  0.00    -0.390 OA
HETATM   13  C14 UNL     1      34.443   8.180  46.286  1.00  0.00     0.179 C 
HETATM   14  C15 UNL     1      33.723   7.044  47.044  1.00  0.00     0.009 C 
HETATM   15  C16 UNL     1      34.248   5.708  46.845  1.00  0.00     0.060 C 
ENDROOT
BRANCH   9  16
HETATM   16  N2  UNL     1      30.168   7.767  49.136  1.00  0.00    -0.259 N 
HETATM   17  H8  UNL     1      29.820   6.820  48.871  1.00  0.00     0.191 HD
BRANCH  16  18
HETATM   18  C10 UNL     1      29.220   8.832  49.089  1.00  0.00     0.175 A 
HETATM   19  C11 UNL     1      28.293   9.458  49.901  1.00  0.00     0.188 A 
HETATM   20  N3  UNL     1      28.446   9.916  48.606  1.00  0.00    -0.315 N 
HETATM   21  H10 UNL     1      28.332  10.464  47.729  1.00  0.00     0.169 HD
BRANCH  19  22
HETATM   22  O1  UNL     1      27.657   9.565  51.131  1.00  0.00    -0.343 OA
HETATM   23  H9  UNL     1      27.256  10.430  51.479  1.00  0.00     0.219 HD
ENDBRANCH  19  22
ENDBRANCH  16  18
ENDBRANCH   9  16
BRANCH   1  24
HETATM   24  S1  UNL     1      33.127   5.267  44.362  1.00  0.00    -0.138 SA
HETATM   25  C1  UNL     1      34.648   5.559  43.423  1.00  0.00     0.095 C 
ENDBRANCH   1  24
TORSDOF 4
ENDMDL
MODEL 8
REMARK VINA RESULT:      -6.1      3.790      5.499
REMARK  4 active torsions:
REMARK  status: ('A' for Active; 'I' for Inactive)
REMARK    1  A    between atoms: S1_2  and  C2_3 
REMARK    2  A    between atoms: N1_11  and  N2_12 
REMARK    3  A    between atoms: N2_12  and  C10_13 
REMARK    4  A    between atoms: C11_14  and  O1_15 
ROOT
HETATM    1  C2  UNL     1      23.923   4.108  50.226  1.00  0.00    -0.009 C 
HETATM    2  C3  UNL     1      24.219   5.169  50.982  1.00  0.00    -0.000 C 
HETATM    3  C4  UNL     1      23.142   5.553  51.629  1.00  0.00    -0.013 C 
HETATM    4  C5  UNL     1      22.520   4.489  52.143  1.00  0.00     0.013 C 
HETATM    5  C6  UNL     1      23.286   3.270  52.397  1.00  0.00    -0.002 C 
HETATM    6  C7  UNL     1      23.221   2.035  52.001  1.00  0.00    -0.015 C 
HETATM    7  C8  UNL     1      22.154   1.684  51.075  1.00  0.00     0.070 C 
HETATM    8  C9  UNL     1      20.762   1.956  51.578  1.00  0.00     0.048 C 
HETATM    9  N1  UNL     1      20.200   1.667  52.702  1.00  0.00    -0.181 NA
HETATM   10  C12 UNL     1      20.446   2.623  50.301  1.00  0.00     0.072 C 
HETATM   11  C13 UNL     1      19.755   1.829  49.248  1.00  0.00     0.179 C 
HETATM   12  O2  UNL     1      20.566   2.105  48.121  1.00  0.00    -0.390 OA
HETATM   13  C14 UNL     1      21.808   1.698  48.658  1.00  0.00     0.179 C 
HETATM   14  C15 UNL     1      21.922   2.557  49.935  1.00  0.00     0.009 C 
HETATM   15  C16 UNL     1      22.549   3.854  49.780  1.00  0.00     0.060 C 
ENDROOT
BRANCH   9  16
HETATM   16  N2  UNL     1      20.922   0.984  53.684  1.00  0.00    -0.259 N 
HETATM   17  H8  UNL     1      21.634   1.565  54.179  1.00  0.00     0.191 HD
BRANCH  16  18
HETATM   18  C10 UNL     1      20.818  -0.379  54.092  1.00  0.00     0.175 A 
HETATM   19  C11 UNL     1      21.534  -1.331  54.793  1.00  0.00     0.188 A 
HETATM   20  N3  UNL     1      20.307  -1.690  54.267  1.00  0.00    -0.315 N 
HETATM   21  H10 UNL     1      19.463  -2.239  54.007  1.00  0.00     0.169 HD
BRANCH  19  22
HETATM   22  O1  UNL     1      22.666  -1.686  55.514  1.00  0.00    -0.343 OA
HETATM   23  H9  UNL     1      23.093  -1.089  56.215  1.00  0.00     0.219 HD
ENDBRANCH  19  22
ENDBRANCH  16  18
ENDBRANCH   9  16
BRANCH   1  24
HETATM   24  S1  UNL     1      25.161   2.965  49.696  1.00  0.00    -0.138 SA
HETATM   25  C1  UNL     1      26.591   3.126  50.794  1.00  0.00     0.095 C 
ENDBRANCH   1  24
TORSDOF 4
ENDMDL
MODEL 9
REMARK VINA RESULT:      -5.9      2.288      4.532
REMARK  4 active torsions:
REMARK  status: ('A' for Active; 'I' for Inactive)
REMARK    1  A    between atoms: S1_2  and  C2_3 
REMARK    2  A    between atoms: N1_11  and  N2_12 
REMARK    3  A    between atoms: N2_12  and  C10_13 
REMARK    4  A    between atoms: C11_14  and  O1_15 
ROOT
HETATM    1  C2  UNL     1      21.581   2.603  51.038  1.00  0.00    -0.009 C 
HETATM    2  C3  UNL     1      20.665   1.633  50.991  1.00  0.00    -0.000 C 
HETATM    3  C4  UNL     1      21.266   0.477  50.822  1.00  0.00    -0.013 C 
HETATM    4  C5  UNL     1      22.321   0.394  51.637  1.00  0.00     0.013 C 
HETATM    5  C6  UNL     1      22.349   1.209  52.851  1.00  0.00    -0.002 C 
HETATM    6  C7  UNL     1      23.136   2.121  53.337  1.00  0.00    -0.015 C 
HETATM    7  C8  UNL     1      24.306   2.485  52.550  1.00  0.00     0.070 C 
HETATM    8  C9  UNL     1      25.245   1.349  52.245  1.00  0.00     0.048 C 
HETATM    9  N1  UNL     1      25.752   0.445  53.011  1.00  0.00    -0.181 NA
HETATM   10  C12 UNL     1      25.262   1.764  50.829  1.00  0.00     0.072 C 
HETATM   11  C13 UNL     1      26.384   2.625  50.365  1.00  0.00     0.179 C 
HETATM   12  O2  UNL     1      25.680   3.651  49.691  1.00  0.00    -0.390 OA
HETATM   13  C14 UNL     1      24.832   4.048  50.750  1.00  0.00     0.179 C 
HETATM   14  C15 UNL     1      24.124   2.729  51.128  1.00  0.00     0.009 C 
HETATM   15  C16 UNL     1      22.898   2.434  50.415  1.00  0.00     0.060 C 
ENDROOT
BRANCH   9  16
HETATM   16  N2  UNL     1      25.440   0.434  54.373  1.00  0.00    -0.259 N 
HETATM   17  H8  UNL     1      25.579   1.349  54.855  1.00  0.00     0.191 HD
BRANCH  16  18
HETATM   18  C10 UNL     1      24.965  -0.644  55.177  1.00  0.00     0.175 A 
HETATM   19  C11 UNL     1      23.782  -1.285  55.496  1.00  0.00     0.188 A 
HETATM   20  N3  UNL     1      24.951  -1.740  56.077  1.00  0.00    -0.315 N 
HETATM   21  H10 UNL     1      25.624  -2.289  56.648  1.00  0.00     0.169 HD
BRANCH  19  22
HETATM   22  O1  UNL     1      22.406  -1.401  55.347  1.00  0.00    -0.343 OA
HETATM   23  H9  UNL     1      21.905  -2.278  55.453  1.00  0.00     0.219 HD
ENDBRANCH  19  22
ENDBRANCH  16  18
ENDBRANCH   9  16
BRANCH   1  24
HETATM   24  S1  UNL     1      21.260   4.152  51.823  1.00  0.00    -0.138 SA
HETATM   25  C1  UNL     1      21.198   5.435  50.547  1.00  0.00     0.095 C 
ENDBRANCH   1  24
TORSDOF 4
ENDMDL
