MODEL 1
REMARK VINA RESULT:      -8.3      0.000      0.000
REMARK  4 active torsions:
REMARK  status: ('A' for Active; 'I' for Inactive)
REMARK    1  A    between atoms: C2_2  and  C3_3 
REMARK       I    between atoms: C3_3  and  N1_5 
REMARK    2  A    between atoms: N1_5  and  C4_6 
REMARK    3  A    between atoms: C9_13  and  N4_14 
REMARK    4  A    between atoms: N4_14  and  C10_15 
ROOT
HETATM    1  C4  UNL     1      24.221  -0.485  53.798  1.00  0.00     0.036 A 
HETATM    2  C5  UNL     1      25.010  -0.687  54.906  1.00  0.00     0.032 A 
HETATM    3  C6  UNL     1      26.212  -0.094  55.116  1.00  0.00     0.035 A 
HETATM    4  C7  UNL     1      26.722   0.771  54.200  1.00  0.00     0.072 A 
HETATM    5  N2  UNL     1      27.907   1.397  54.343  1.00  0.00    -0.241 NA
HETATM    6  C8  UNL     1      28.348   2.241  53.392  1.00  0.00     0.236 A 
HETATM    7  N3  UNL     1      27.591   2.460  52.288  1.00  0.00    -0.224 NA
HETATM    8  C9  UNL     1      26.416   1.868  52.103  1.00  0.00     0.142 A 
HETATM    9  C16 UNL     1      25.968   1.006  53.074  1.00  0.00     0.041 A 
HETATM   10  C17 UNL     1      24.751   0.391  52.884  1.00  0.00     0.047 A 
ENDROOT
BRANCH   8  11
HETATM   11  N4  UNL     1      25.717   2.176  50.912  1.00  0.00    -0.339 N 
HETATM   12  H8  UNL     1      25.047   1.649  50.320  1.00  0.00     0.167 HD
BRANCH  11  13
HETATM   13  C10 UNL     1      25.888   3.446  50.299  1.00  0.00     0.051 A 
HETATM   14  C11 UNL     1      26.848   3.764  49.361  1.00  0.00     0.031 A 
HETATM   15  C12 UNL     1      26.947   5.030  48.817  1.00  0.00     0.002 A 
HETATM   16  C13 UNL     1      26.056   6.004  49.227  1.00  0.00     0.002 A 
HETATM   17  C14 UNL     1      25.090   5.698  50.164  1.00  0.00     0.021 A 
HETATM   18  C15 UNL     1      25.001   4.421  50.704  1.00  0.00     0.037 A 
HETATM   19 BR1  UNL     1      23.598   4.238  51.982  1.00  0.00    -0.049 Br
ENDBRANCH  11  13
ENDBRANCH   8  11
BRANCH   1  20
HETATM   20  N1  UNL     1      22.963  -1.067  53.516  1.00  0.00    -0.324 N 
HETATM   21  C3  UNL     1      21.731  -0.859  54.143  1.00  0.00     0.241 C 
HETATM   22  O1  UNL     1      21.642  -0.059  55.097  1.00  0.00    -0.269 OA
HETATM   23  H4  UNL     1      22.869  -1.757  52.747  1.00  0.00     0.169 HD
BRANCH  21  24
HETATM   24  C2  UNL     1      20.469  -1.496  53.799  1.00  0.00     0.048 C 
HETATM   25  C1  UNL     1      20.120  -0.239  53.583  1.00  0.00     0.037 C 
ENDBRANCH  21  24
ENDBRANCH   1  20
TORSDOF 4
ENDMDL
MODEL 2
REMARK VINA RESULT:      -8.3      2.716      4.904
REMARK  4 active torsions:
REMARK  status: ('A' for Active; 'I' for Inactive)
REMARK    1  A    between atoms: C2_2  and  C3_3 
REMARK       I    between atoms: C3_3  and  N1_5 
REMARK    2  A    between atoms: N1_5  and  C4_6 
REMARK    3  A    between atoms: C9_13  and  N4_14 
REMARK    4  A    between atoms: N4_14  and  C10_15 
ROOT
HETATM    1  C4  UNL     1      24.882  -0.773  54.376  1.00  0.00     0.036 A 
HETATM    2  C5  UNL     1      24.040  -1.360  55.291  1.00  0.00     0.032 A 
HETATM    3  C6  UNL     1      22.686  -1.294  55.246  1.00  0.00     0.035 A 
HETATM    4  C7  UNL     1      22.062  -0.614  54.249  1.00  0.00     0.072 A 
HETATM    5  N2  UNL     1      20.723  -0.508  54.141  1.00  0.00    -0.241 NA
HETATM    6  C8  UNL     1      20.177   0.185  53.124  1.00  0.00     0.236 A 
HETATM    7  N3  UNL     1      20.982   0.774  52.207  1.00  0.00    -0.224 NA
HETATM    8  C9  UNL     1      22.307   0.697  52.270  1.00  0.00     0.142 A 
HETATM    9  C16 UNL     1      22.863  -0.009  53.308  1.00  0.00     0.041 A 
HETATM   10  C17 UNL     1      24.236  -0.090  53.375  1.00  0.00     0.047 A 
ENDROOT
BRANCH   8  11
HETATM   11  N4  UNL     1      23.043   1.353  51.254  1.00  0.00    -0.339 N 
HETATM   12  H8  UNL     1      23.568   1.021  50.424  1.00  0.00     0.167 HD
BRANCH  11  13
HETATM   13  C10 UNL     1      23.158   2.769  51.267  1.00  0.00     0.051 A 
HETATM   14  C11 UNL     1      23.413   3.545  52.379  1.00  0.00     0.031 A 
HETATM   15  C12 UNL     1      23.506   4.922  52.303  1.00  0.00     0.002 A 
HETATM   16  C13 UNL     1      23.336   5.536  51.077  1.00  0.00     0.002 A 
HETATM   17  C14 UNL     1      23.081   4.770  49.956  1.00  0.00     0.021 A 
HETATM   18  C15 UNL     1      22.990   3.386  50.045  1.00  0.00     0.037 A 
HETATM   19 BR1  UNL     1      22.624   2.545  48.374  1.00  0.00    -0.049 Br
ENDBRANCH  11  13
ENDBRANCH   8  11
BRANCH   1  20
HETATM   20  N1  UNL     1      26.296  -0.800  54.362  1.00  0.00    -0.324 N 
HETATM   21  C3  UNL     1      27.204   0.228  54.634  1.00  0.00     0.241 C 
HETATM   22  O1  UNL     1      26.788   1.364  54.943  1.00  0.00    -0.269 OA
HETATM   23  H4  UNL     1      26.798  -1.676  54.123  1.00  0.00     0.169 HD
BRANCH  21  24
HETATM   24  C2  UNL     1      28.655   0.130  54.600  1.00  0.00     0.048 C 
HETATM   25  C1  UNL     1      28.387  -0.525  53.483  1.00  0.00     0.037 C 
ENDBRANCH  21  24
ENDBRANCH   1  20
TORSDOF 4
ENDMDL
MODEL 3
REMARK VINA RESULT:      -8.2      2.461      4.506
REMARK  4 active torsions:
REMARK  status: ('A' for Active; 'I' for Inactive)
REMARK    1  A    between atoms: C2_2  and  C3_3 
REMARK       I    between atoms: C3_3  and  N1_5 
REMARK    2  A    between atoms: N1_5  and  C4_6 
REMARK    3  A    between atoms: C9_13  and  N4_14 
REMARK    4  A    between atoms: N4_14  and  C10_15 
ROOT
HETATM    1  C4  UNL     1      25.043   0.656  53.653  1.00  0.00     0.036 A 
HETATM    2  C5  UNL     1      24.078  -0.304  53.456  1.00  0.00     0.032 A 
HETATM    3  C6  UNL     1      22.962  -0.132  52.704  1.00  0.00     0.035 A 
HETATM    4  C7  UNL     1      22.729   1.051  52.078  1.00  0.00     0.072 A 
HETATM    5  N2  UNL     1      21.643   1.292  51.316  1.00  0.00    -0.241 NA
HETATM    6  C8  UNL     1      21.480   2.492  50.728  1.00  0.00     0.236 A 
HETATM    7  N3  UNL     1      22.415   3.457  50.905  1.00  0.00    -0.224 NA
HETATM    8  C9  UNL     1      23.502   3.268  51.646  1.00  0.00     0.142 A 
HETATM    9  C16 UNL     1      23.667   2.043  52.246  1.00  0.00     0.041 A 
HETATM   10  C17 UNL     1      24.792   1.845  53.015  1.00  0.00     0.047 A 
ENDROOT
BRANCH   8  11
HETATM   11  N4  UNL     1      24.406   4.350  51.757  1.00  0.00    -0.339 N 
HETATM   12  H8  UNL     1      24.599   5.047  52.500  1.00  0.00     0.167 HD
BRANCH  11  13
HETATM   13  C10 UNL     1      25.292   4.644  50.686  1.00  0.00     0.051 A 
HETATM   14  C11 UNL     1      26.217   3.775  50.145  1.00  0.00     0.031 A 
HETATM   15  C12 UNL     1      27.045   4.146  49.104  1.00  0.00     0.002 A 
HETATM   16  C13 UNL     1      26.943   5.425  48.592  1.00  0.00     0.002 A 
HETATM   17  C14 UNL     1      26.021   6.304  49.124  1.00  0.00     0.021 A 
HETATM   18  C15 UNL     1      25.193   5.920  50.172  1.00  0.00     0.037 A 
HETATM   19 BR1  UNL     1      24.011   7.301  50.744  1.00  0.00    -0.049 Br
ENDBRANCH  11  13
ENDBRANCH   8  11
BRANCH   1  20
HETATM   20  N1  UNL     1      26.226   0.545  54.421  1.00  0.00    -0.324 N 
HETATM   21  C3  UNL     1      27.510   0.166  54.017  1.00  0.00     0.241 C 
HETATM   22  O1  UNL     1      27.728  -0.133  52.825  1.00  0.00    -0.269 OA
HETATM   23  H4  UNL     1      26.212   0.761  55.435  1.00  0.00     0.169 HD
BRANCH  21  24
HETATM   24  C2  UNL     1      28.689   0.073  54.865  1.00  0.00     0.048 C 
HETATM   25  C1  UNL     1      29.188  -0.481  53.773  1.00  0.00     0.037 C 
ENDBRANCH  21  24
ENDBRANCH   1  20
TORSDOF 4
ENDMDL
MODEL 4
REMARK VINA RESULT:      -8.1      3.406      5.637
REMARK  4 active torsions:
REMARK  status: ('A' for Active; 'I' for Inactive)
REMARK    1  A    between atoms: C2_2  and  C3_3 
REMARK       I    between atoms: C3_3  and  N1_5 
REMARK    2  A    between atoms: N1_5  and  C4_6 
REMARK    3  A    between atoms: C9_13  and  N4_14 
REMARK    4  A    between atoms: N4_14  and  C10_15 
ROOT
HETATM    1  C4  UNL     1      22.170   1.278  51.984  1.00  0.00     0.036 A 
HETATM    2  C5  UNL     1      21.175   0.736  52.764  1.00  0.00     0.032 A 
HETATM    3  C6  UNL     1      21.386  -0.077  53.828  1.00  0.00     0.035 A 
HETATM    4  C7  UNL     1      22.650  -0.414  54.197  1.00  0.00     0.072 A 
HETATM    5  N2  UNL     1      22.934  -1.215  55.243  1.00  0.00    -0.241 NA
HETATM    6  C8  UNL     1      24.213  -1.506  55.548  1.00  0.00     0.236 A 
HETATM    7  N3  UNL     1      25.214  -0.985  54.796  1.00  0.00    -0.224 NA
HETATM    8  C9  UNL     1      24.985  -0.191  53.757  1.00  0.00     0.142 A 
HETATM    9  C16 UNL     1      23.680   0.104  53.447  1.00  0.00     0.041 A 
HETATM   10  C17 UNL     1      23.440   0.927  52.370  1.00  0.00     0.047 A 
ENDROOT
BRANCH   8  11
HETATM   11  N4  UNL     1      26.112   0.291  53.049  1.00  0.00    -0.339 N 
HETATM   12  H8  UNL     1      26.269   1.102  52.423  1.00  0.00     0.167 HD
BRANCH  11  13
HETATM   13  C10 UNL     1      27.350  -0.401  53.135  1.00  0.00     0.051 A 
HETATM   14  C11 UNL     1      27.528  -1.757  52.952  1.00  0.00     0.031 A 
HETATM   15  C12 UNL     1      28.771  -2.350  53.058  1.00  0.00     0.002 A 
HETATM   16  C13 UNL     1      29.865  -1.561  53.356  1.00  0.00     0.002 A 
HETATM   17  C14 UNL     1      29.700  -0.203  53.541  1.00  0.00     0.021 A 
HETATM   18  C15 UNL     1      28.444   0.383  53.432  1.00  0.00     0.037 A 
HETATM   19 BR1  UNL     1      28.461   2.265  53.735  1.00  0.00    -0.049 Br
ENDBRANCH  11  13
ENDBRANCH   8  11
BRANCH   1  20
HETATM   20  N1  UNL     1      22.022   2.129  50.863  1.00  0.00    -0.324 N 
HETATM   21  C3  UNL     1      21.666   1.809  49.550  1.00  0.00     0.241 C 
HETATM   22  O1  UNL     1      21.428   0.624  49.238  1.00  0.00    -0.269 OA
HETATM   23  H4  UNL     1      22.186   3.149  50.959  1.00  0.00     0.169 HD
BRANCH  21  24
HETATM   24  C2  UNL     1      21.533   2.740  48.441  1.00  0.00     0.048 C 
HETATM   25  C1  UNL     1      22.356   1.875  47.873  1.00  0.00     0.037 C 
ENDBRANCH  21  24
ENDBRANCH   1  20
TORSDOF 4
ENDMDL
MODEL 5
REMARK VINA RESULT:      -7.8      3.740      7.567
REMARK  4 active torsions:
REMARK  status: ('A' for Active; 'I' for Inactive)
REMARK    1  A    between atoms: C2_2  and  C3_3 
REMARK       I    between atoms: C3_3  and  N1_5 
REMARK    2  A    between atoms: N1_5  and  C4_6 
REMARK    3  A    between atoms: C9_13  and  N4_14 
REMARK    4  A    between atoms: N4_14  and  C10_15 
ROOT
HETATM    1  C4  UNL     1      26.690   4.889  49.107  1.00  0.00     0.036 A 
HETATM    2  C5  UNL     1      25.547   5.652  49.150  1.00  0.00     0.032 A 
HETATM    3  C6  UNL     1      24.431   5.330  49.850  1.00  0.00     0.035 A 
HETATM    4  C7  UNL     1      24.383   4.184  50.580  1.00  0.00     0.072 A 
HETATM    5  N2  UNL     1      23.309   3.802  51.301  1.00  0.00    -0.241 NA
HETATM    6  C8  UNL     1      23.335   2.651  51.998  1.00  0.00     0.236 A 
HETATM    7  N3  UNL     1      24.450   1.879  51.975  1.00  0.00    -0.224 NA
HETATM    8  C9  UNL     1      25.532   2.213  51.281  1.00  0.00     0.142 A 
HETATM    9  C16 UNL     1      25.504   3.388  50.569  1.00  0.00     0.041 A 
HETATM   10  C17 UNL     1      26.625   3.736  49.849  1.00  0.00     0.047 A 
ENDROOT
BRANCH   8  11
HETATM   11  N4  UNL     1      26.634   1.327  51.333  1.00  0.00    -0.339 N 
HETATM   12  H8  UNL     1      27.021   0.629  50.672  1.00  0.00     0.167 HD
BRANCH  11  13
HETATM   13  C10 UNL     1      27.461   1.294  52.488  1.00  0.00     0.051 A 
HETATM   14  C11 UNL     1      28.177   2.359  52.995  1.00  0.00     0.031 A 
HETATM   15  C12 UNL     1      28.963   2.238  54.124  1.00  0.00     0.002 A 
HETATM   16  C13 UNL     1      29.033   1.014  54.762  1.00  0.00     0.002 A 
HETATM   17  C14 UNL     1      28.322  -0.060  54.265  1.00  0.00     0.021 A 
HETATM   18  C15 UNL     1      27.534   0.074  53.127  1.00  0.00     0.037 A 
HETATM   19 BR1  UNL     1      26.653  -1.540  52.626  1.00  0.00    -0.049 Br
ENDBRANCH  11  13
ENDBRANCH   8  11
BRANCH   1  20
HETATM   20  N1  UNL     1      27.885   5.163  48.400  1.00  0.00    -0.324 N 
HETATM   21  C3  UNL     1      28.554   6.379  48.232  1.00  0.00     0.241 C 
HETATM   22  O1  UNL     1      28.098   7.420  48.748  1.00  0.00    -0.269 OA
HETATM   23  H4  UNL     1      28.390   4.399  47.913  1.00  0.00     0.169 HD
BRANCH  21  24
HETATM   24  C2  UNL     1      29.786   6.590  47.488  1.00  0.00     0.048 C 
HETATM   25  C1  UNL     1      30.058   5.394  47.981  1.00  0.00     0.037 C 
ENDBRANCH  21  24
ENDBRANCH   1  20
TORSDOF 4
ENDMDL
MODEL 6
REMARK VINA RESULT:      -7.8      1.812      2.600
REMARK  4 active torsions:
REMARK  status: ('A' for Active; 'I' for Inactive)
REMARK    1  A    between atoms: C2_2  and  C3_3 
REMARK       I    between atoms: C3_3  and  N1_5 
REMARK    2  A    between atoms: N1_5  and  C4_6 
REMARK    3  A    between atoms: C9_13  and  N4_14 
REMARK    4  A    between atoms: N4_14  and  C10_15 
ROOT
HETATM    1  C4  UNL     1      22.425  -1.122  54.323  1.00  0.00     0.036 A 
HETATM    2  C5  UNL     1      23.104  -1.578  55.429  1.00  0.00     0.032 A 
HETATM    3  C6  UNL     1      24.396  -1.284  55.715  1.00  0.00     0.035 A 
HETATM    4  C7  UNL     1      25.122  -0.487  54.887  1.00  0.00     0.072 A 
HETATM    5  N2  UNL     1      26.409  -0.153  55.109  1.00  0.00    -0.241 NA
HETATM    6  C8  UNL     1      27.063   0.641  54.241  1.00  0.00     0.236 A 
HETATM    7  N3  UNL     1      26.419   1.105  53.142  1.00  0.00    -0.224 NA
HETATM    8  C9  UNL     1      25.151   0.804  52.880  1.00  0.00     0.142 A 
HETATM    9  C16 UNL     1      24.485  -0.007  53.767  1.00  0.00     0.041 A 
HETATM   10  C17 UNL     1      23.171  -0.319  53.497  1.00  0.00     0.047 A 
ENDROOT
BRANCH   8  11
HETATM   11  N4  UNL     1      24.587   1.348  51.702  1.00  0.00    -0.339 N 
HETATM   12  H8  UNL     1      24.423   0.973  50.749  1.00  0.00     0.167 HD
BRANCH  11  13
HETATM   13  C10 UNL     1      24.107   2.685  51.699  1.00  0.00     0.051 A 
HETATM   14  C11 UNL     1      23.003   3.145  52.388  1.00  0.00     0.031 A 
HETATM   15  C12 UNL     1      22.602   4.465  52.326  1.00  0.00     0.002 A 
HETATM   16  C13 UNL     1      23.329   5.349  51.552  1.00  0.00     0.002 A 
HETATM   17  C14 UNL     1      24.436   4.902  50.858  1.00  0.00     0.021 A 
HETATM   18  C15 UNL     1      24.830   3.571  50.928  1.00  0.00     0.037 A 
HETATM   19 BR1  UNL     1      26.377   3.186  49.884  1.00  0.00    -0.049 Br
ENDBRANCH  11  13
ENDBRANCH   8  11
BRANCH   1  20
HETATM   20  N1  UNL     1      21.083  -1.388  53.964  1.00  0.00    -0.324 N 
HETATM   21  C3  UNL     1      20.109  -0.513  53.472  1.00  0.00     0.241 C 
HETATM   22  O1  UNL     1      20.383   0.692  53.295  1.00  0.00    -0.269 OA
HETATM   23  H4  UNL     1      20.699  -2.347  54.053  1.00  0.00     0.169 HD
BRANCH  21  24
HETATM   24  C2  UNL     1      18.740  -0.855  53.121  1.00  0.00     0.048 C 
HETATM   25  C1  UNL     1      18.973   0.026  52.164  1.00  0.00     0.037 C 
ENDBRANCH  21  24
ENDBRANCH   1  20
TORSDOF 4
ENDMDL
MODEL 7
REMARK VINA RESULT:      -7.7      2.956      5.485
REMARK  4 active torsions:
REMARK  status: ('A' for Active; 'I' for Inactive)
REMARK    1  A    between atoms: C2_2  and  C3_3 
REMARK       I    between atoms: C3_3  and  N1_5 
REMARK    2  A    between atoms: N1_5  and  C4_6 
REMARK    3  A    between atoms: C9_13  and  N4_14 
REMARK    4  A    between atoms: N4_14  and  C10_15 
ROOT
HETATM    1  C4  UNL     1      22.439   1.016  51.623  1.00  0.00     0.036 A 
HETATM    2  C5  UNL     1      21.397   0.832  52.502  1.00  0.00     0.032 A 
HETATM    3  C6  UNL     1      21.499   0.202  53.698  1.00  0.00     0.035 A 
HETATM    4  C7  UNL     1      22.691  -0.304  54.111  1.00  0.00     0.072 A 
HETATM    5  N2  UNL     1      22.866  -0.940  55.286  1.00  0.00    -0.241 NA
HETATM    6  C8  UNL     1      24.079  -1.415  55.626  1.00  0.00     0.236 A 
HETATM    7  N3  UNL     1      25.125  -1.249  54.780  1.00  0.00    -0.224 NA
HETATM    8  C9  UNL     1      25.002  -0.628  53.612  1.00  0.00     0.142 A 
HETATM    9  C16 UNL     1      23.764  -0.144  53.265  1.00  0.00     0.041 A 
HETATM   10  C17 UNL     1      23.635   0.499  52.055  1.00  0.00     0.047 A 
ENDROOT
BRANCH   8  11
HETATM   11  N4  UNL     1      26.165  -0.515  52.814  1.00  0.00    -0.339 N 
HETATM   12  H8  UNL     1      26.459  -0.940  51.915  1.00  0.00     0.167 HD
BRANCH  11  13
HETATM   13  C10 UNL     1      27.228   0.332  53.228  1.00  0.00     0.051 A 
HETATM   14  C11 UNL     1      27.137   1.692  53.442  1.00  0.00     0.031 A 
HETATM   15  C12 UNL     1      28.225   2.443  53.841  1.00  0.00     0.002 A 
HETATM   16  C13 UNL     1      29.439   1.811  54.031  1.00  0.00     0.002 A 
HETATM   17  C14 UNL     1      29.544   0.451  53.821  1.00  0.00     0.021 A 
HETATM   18  C15 UNL     1      28.442  -0.295  53.419  1.00  0.00     0.037 A 
HETATM   19 BR1  UNL     1      28.828  -2.147  53.184  1.00  0.00    -0.049 Br
ENDBRANCH  11  13
ENDBRANCH   8  11
BRANCH   1  20
HETATM   20  N1  UNL     1      22.404   1.660  50.364  1.00  0.00    -0.324 N 
HETATM   21  C3  UNL     1      22.922   2.905  49.993  1.00  0.00     0.241 C 
HETATM   22  O1  UNL     1      23.516   3.611  50.834  1.00  0.00    -0.269 OA
HETATM   23  H4  UNL     1      21.944   1.201  49.556  1.00  0.00     0.169 HD
BRANCH  21  24
HETATM   24  C2  UNL     1      22.850   3.511  48.673  1.00  0.00     0.048 C 
HETATM   25  C1  UNL     1      23.953   4.101  49.099  1.00  0.00     0.037 C 
ENDBRANCH  21  24
ENDBRANCH   1  20
TORSDOF 4
ENDMDL
MODEL 8
REMARK VINA RESULT:      -7.5      3.009      5.562
REMARK  4 active torsions:
REMARK  status: ('A' for Active; 'I' for Inactive)
REMARK    1  A    between atoms: C2_2  and  C3_3 
REMARK       I    between atoms: C3_3  and  N1_5 
REMARK    2  A    between atoms: N1_5  and  C4_6 
REMARK    3  A    between atoms: C9_13  and  N4_14 
REMARK    4  A    between atoms: N4_14  and  C10_15 
ROOT
HETATM    1  C4  UNL     1      26.233   2.538  51.560  1.00  0.00     0.036 A 
HETATM    2  C5  UNL     1      27.055   1.570  52.088  1.00  0.00     0.032 A 
HETATM    3  C6  UNL     1      26.628   0.514  52.824  1.00  0.00     0.035 A 
HETATM    4  C7  UNL     1      25.306   0.348  53.090  1.00  0.00     0.072 A 
HETATM    5  N2  UNL     1      24.811  -0.676  53.813  1.00  0.00    -0.241 NA
HETATM    6  C8  UNL     1      23.487  -0.773  54.036  1.00  0.00     0.236 A 
HETATM    7  N3  UNL     1      22.653   0.168  53.528  1.00  0.00    -0.224 NA
HETATM    8  C9  UNL     1      23.092   1.195  52.809  1.00  0.00     0.142 A 
HETATM    9  C16 UNL     1      24.443   1.292  52.583  1.00  0.00     0.041 A 
HETATM   10  C17 UNL     1      24.901   2.357  51.838  1.00  0.00     0.047 A 
ENDROOT
BRANCH   8  11
HETATM   11  N4  UNL     1      22.125   2.111  52.332  1.00  0.00    -0.339 N 
HETATM   12  H8  UNL     1      21.555   2.849  52.786  1.00  0.00     0.167 HD
BRANCH  11  13
HETATM   13  C10 UNL     1      21.777   2.120  50.955  1.00  0.00     0.051 A 
HETATM   14  C11 UNL     1      21.598   1.003  50.164  1.00  0.00     0.031 A 
HETATM   15  C12 UNL     1      21.262   1.102  48.828  1.00  0.00     0.002 A 
HETATM   16  C13 UNL     1      21.102   2.355  48.270  1.00  0.00     0.002 A 
HETATM   17  C14 UNL     1      21.278   3.481  49.050  1.00  0.00     0.021 A 
HETATM   18  C15 UNL     1      21.616   3.369  50.394  1.00  0.00     0.037 A 
HETATM   19 BR1  UNL     1      21.813   5.053  51.265  1.00  0.00    -0.049 Br
ENDBRANCH  11  13
ENDBRANCH   8  11
BRANCH   1  20
HETATM   20  N1  UNL     1      26.608   3.662  50.787  1.00  0.00    -0.324 N 
HETATM   21  C3  UNL     1      25.986   4.207  49.659  1.00  0.00     0.241 C 
HETATM   22  O1  UNL     1      24.945   3.687  49.206  1.00  0.00    -0.269 OA
HETATM   23  H4  UNL     1      27.455   4.206  51.035  1.00  0.00     0.169 HD
BRANCH  21  24
HETATM   24  C2  UNL     1      26.428   5.371  48.908  1.00  0.00     0.048 C 
HETATM   25  C1  UNL     1      27.509   4.622  48.764  1.00  0.00     0.037 C 
ENDBRANCH  21  24
ENDBRANCH   1  20
TORSDOF 4
ENDMDL
MODEL 9
REMARK VINA RESULT:      -7.5      6.127      9.115
REMARK  4 active torsions:
REMARK  status: ('A' for Active; 'I' for Inactive)
REMARK    1  A    between atoms: C2_2  and  C3_3 
REMARK       I    between atoms: C3_3  and  N1_5 
REMARK    2  A    between atoms: N1_5  and  C4_6 
REMARK    3  A    between atoms: C9_13  and  N4_14 
REMARK    4  A    between atoms: N4_14  and  C10_15 
ROOT
HETATM    1  C4  UNL     1      28.210   5.898  48.312  1.00  0.00     0.036 A 
HETATM    2  C5  UNL     1      27.778   7.121  47.856  1.00  0.00     0.032 A 
HETATM    3  C6  UNL     1      28.582   8.190  47.634  1.00  0.00     0.035 A 
HETATM    4  C7  UNL     1      29.920   8.105  47.861  1.00  0.00     0.072 A 
HETATM    5  N2  UNL     1      30.778   9.125  47.663  1.00  0.00    -0.241 NA
HETATM    6  C8  UNL     1      32.091   8.965  47.911  1.00  0.00     0.236 A 
HETATM    7  N3  UNL     1      32.546   7.770  48.361  1.00  0.00    -0.224 NA
HETATM    8  C9  UNL     1      31.740   6.735  48.572  1.00  0.00     0.142 A 
HETATM    9  C16 UNL     1      30.400   6.900  48.318  1.00  0.00     0.041 A 
HETATM   10  C17 UNL     1      29.563   5.828  48.536  1.00  0.00     0.047 A 
ENDROOT
BRANCH   8  11
HETATM   11  N4  UNL     1      32.332   5.539  49.043  1.00  0.00    -0.339 N 
HETATM   12  H8  UNL     1      32.458   5.128  49.986  1.00  0.00     0.167 HD
BRANCH  11  13
HETATM   13  C10 UNL     1      32.911   4.626  48.122  1.00  0.00     0.051 A 
HETATM   14  C11 UNL     1      32.216   3.780  47.282  1.00  0.00     0.031 A 
HETATM   15  C12 UNL     1      32.861   2.918  46.417  1.00  0.00     0.002 A 
HETATM   16  C13 UNL     1      34.242   2.903  46.395  1.00  0.00     0.002 A 
HETATM   17  C14 UNL     1      34.950   3.745  47.229  1.00  0.00     0.021 A 
HETATM   18  C15 UNL     1      34.290   4.609  48.095  1.00  0.00     0.037 A 
HETATM   19 BR1  UNL     1      35.472   5.666  49.152  1.00  0.00    -0.049 Br
ENDBRANCH  11  13
ENDBRANCH   8  11
BRANCH   1  20
HETATM   20  N1  UNL     1      27.431   4.745  48.564  1.00  0.00    -0.324 N 
HETATM   21  C3  UNL     1      26.296   4.603  49.368  1.00  0.00     0.241 C 
HETATM   22  O1  UNL     1      25.840   5.587  49.986  1.00  0.00    -0.269 OA
HETATM   23  H4  UNL     1      27.680   3.840  48.122  1.00  0.00     0.169 HD
BRANCH  21  24
HETATM   24  C2  UNL     1      25.539   3.380  49.584  1.00  0.00     0.048 C 
HETATM   25  C1  UNL     1      26.542   3.138  50.410  1.00  0.00     0.037 C 
ENDBRANCH  21  24
ENDBRANCH   1  20
TORSDOF 4
ENDMDL
