MODEL 1
REMARK VINA RESULT:      -6.8      0.000      0.000
REMARK  5 active torsions:
REMARK  status: ('A' for Active; 'I' for Inactive)
REMARK    1  A    between atoms: C2_2  and  C3_3 
REMARK       I    between atoms: C3_3  and  N1_5 
REMARK    2  A    between atoms: N1_5  and  C4_6 
REMARK    3  A    between atoms: C4_6  and  C5_7 
REMARK    4  A    between atoms: C12_16  and  C13_17 
REMARK    5  A    between atoms: C13_17  and  N3_18 
ROOT
HETATM    1  C5  UNL     1      22.680   3.843  47.864  1.00  0.00     0.114 A 
HETATM    2  C6  UNL     1      23.639   4.358  49.062  1.00  0.00     0.086 A 
HETATM    3  C7  UNL     1      22.946   4.763  48.243  1.00  0.00     0.044 A 
HETATM    4  O2  UNL     1      22.124   4.962  47.258  1.00  0.00     0.000 OA
HETATM    5  C8  UNL     1      20.908   5.706  47.536  1.00  0.00     0.000 C 
HETATM    6  C9  UNL     1      23.712   3.910  49.203  1.00  0.00    -0.009 A 
HETATM    7  C10 UNL     1      24.271   3.269  49.940  1.00  0.00     0.046 A 
HETATM    8  N2  UNL     1      24.888   2.551  50.789  1.00  0.00    -0.351 N 
HETATM    9  C11 UNL     1      26.159   2.865  51.326  1.00  0.00     0.152 C 
HETATM   10  C12 UNL     1      24.796   1.405  51.554  1.00  0.00     0.222 C 
HETATM   11  N4  UNL     1      23.660   1.916  51.799  1.00  0.00    -0.170 NA
HETATM   12  N5  UNL     1      22.503   1.873  52.400  1.00  0.00    -0.239 N 
HETATM   13  C16 UNL     1      21.707   1.077  53.131  1.00  0.00     0.032 A 
HETATM   14  C17 UNL     1      21.600  -0.274  53.717  1.00  0.00     0.070 C 
HETATM   15  C18 UNL     1      20.501   1.717  53.460  1.00  0.00     0.029 A 
HETATM   16  C19 UNL     1      20.503   3.025  52.903  1.00  0.00     0.035 A 
HETATM   17  C20 UNL     1      21.773   2.979  52.291  1.00  0.00     0.075 A 
HETATM   18  C21 UNL     1      21.814   4.288  51.590  1.00  0.00     0.308 C 
HETATM   19  N6  UNL     1      22.161   5.356  51.048  1.00  0.00    -0.404 NA
HETATM   20  C22 UNL     1      23.468   5.938  50.872  1.00  0.00     0.228 C 
HETATM   21  N7  UNL     1      23.910   5.725  49.485  1.00  0.00    -0.390 N 
HETATM   22  H29 UNL     1      24.377   6.104  48.605  1.00  0.00     0.156 HD
ENDROOT
BRANCH   1  23
HETATM   23  C4  UNL     1      22.420   2.592  47.430  1.00  0.00     0.073 C 
BRANCH  23  24
HETATM   24  N1  UNL     1      21.011   2.355  47.843  1.00  0.00    -0.357 N 
HETATM   25  C3  UNL     1      20.970   1.405  48.891  1.00  0.00     0.240 C 
HETATM   26  O1  UNL     1      21.608   0.604  49.659  1.00  0.00    -0.269 OA
HETATM   27  H4  UNL     1      20.032   2.684  47.581  1.00  0.00     0.162 HD
BRANCH  25  28
HETATM   28  C2  UNL     1      19.784   1.024  49.547  1.00  0.00     0.064 C 
HETATM   29  C1  UNL     1      18.841   0.659  50.348  1.00  0.00     0.017 C 
ENDBRANCH  25  28
ENDBRANCH  23  24
ENDBRANCH   1  23
BRANCH  10  30
HETATM   30  C13 UNL     1      24.507   0.307  52.364  1.00  0.00     0.333 C 
BRANCH  30  31
HETATM   31  N3  UNL     1      25.659   0.134  53.329  1.00  0.00     0.084 N 
HETATM   32  C14 UNL     1      26.662  -0.654  52.568  1.00  0.00     0.309 C 
HETATM   33  C15 UNL     1      25.237  -0.667  54.465  1.00  0.00     0.309 C 
ENDBRANCH  30  31
ENDBRANCH  10  30
TORSDOF 5
ENDMDL
MODEL 2
REMARK VINA RESULT:      -6.7      9.249     12.122
REMARK  5 active torsions:
REMARK  status: ('A' for Active; 'I' for Inactive)
REMARK    1  A    between atoms: C2_2  and  C3_3 
REMARK       I    between atoms: C3_3  and  N1_5 
REMARK    2  A    between atoms: N1_5  and  C4_6 
REMARK    3  A    between atoms: C4_6  and  C5_7 
REMARK    4  A    between atoms: C12_16  and  C13_17 
REMARK    5  A    between atoms: C13_17  and  N3_18 
ROOT
HETATM    1  C5  UNL     1      30.004  11.165  49.037  1.00  0.00     0.114 A 
HETATM    2  C6  UNL     1      29.712   9.589  49.268  1.00  0.00     0.086 A 
HETATM    3  C7  UNL     1      29.160  10.591  49.175  1.00  0.00     0.044 A 
HETATM    4  O2  UNL     1      28.782  11.825  49.038  1.00  0.00     0.000 OA
HETATM    5  C8  UNL     1      27.847  12.127  47.967  1.00  0.00     0.000 C 
HETATM    6  C9  UNL     1      30.171   9.489  49.196  1.00  0.00    -0.009 A 
HETATM    7  C10 UNL     1      30.928   8.657  49.190  1.00  0.00     0.046 A 
HETATM    8  N2  UNL     1      31.776   7.710  49.162  1.00  0.00    -0.351 N 
HETATM    9  C11 UNL     1      31.711   6.556  49.980  1.00  0.00     0.152 C 
HETATM   10  C12 UNL     1      32.917   7.254  48.531  1.00  0.00     0.222 C 
HETATM   11  N4  UNL     1      32.225   7.572  47.516  1.00  0.00    -0.170 NA
HETATM   12  N5  UNL     1      32.088   7.669  46.222  1.00  0.00    -0.239 N 
HETATM   13  C16 UNL     1      32.760   7.565  45.065  1.00  0.00     0.032 A 
HETATM   14  C17 UNL     1      34.093   7.294  44.490  1.00  0.00     0.070 C 
HETATM   15  C18 UNL     1      31.932   7.831  43.963  1.00  0.00     0.029 A 
HETATM   16  C19 UNL     1      30.623   8.136  44.428  1.00  0.00     0.035 A 
HETATM   17  C20 UNL     1      30.867   8.001  45.810  1.00  0.00     0.075 A 
HETATM   18  C21 UNL     1      29.559   8.408  46.386  1.00  0.00     0.308 C 
HETATM   19  N6  UNL     1      28.548   8.551  47.101  1.00  0.00    -0.404 NA
HETATM   20  C22 UNL     1      28.198   7.949  48.363  1.00  0.00     0.228 C 
HETATM   21  N7  UNL     1      28.431   8.919  49.444  1.00  0.00    -0.390 N 
HETATM   22  H29 UNL     1      28.105   9.374  50.352  1.00  0.00     0.156 HD
ENDROOT
BRANCH   1  23
HETATM   23  C4  UNL     1      31.172  11.825  48.890  1.00  0.00     0.073 C 
BRANCH  23  24
HETATM   24  N1  UNL     1      31.283  12.033  47.422  1.00  0.00    -0.357 N 
HETATM   25  C3  UNL     1      32.446  11.394  46.932  1.00  0.00     0.240 C 
HETATM   26  O1  UNL     1      33.502  10.715  47.182  1.00  0.00    -0.269 OA
HETATM   27  H4  UNL     1      30.752  12.523  46.638  1.00  0.00     0.162 HD
BRANCH  25  28
HETATM   28  C2  UNL     1      32.790  11.349  45.567  1.00  0.00     0.064 C 
HETATM   29  C1  UNL     1      33.325  11.228  44.399  1.00  0.00     0.017 C 
ENDBRANCH  25  28
ENDBRANCH  23  24
ENDBRANCH   1  23
BRANCH  10  30
HETATM   30  C13 UNL     1      33.978   6.858  47.718  1.00  0.00     0.333 C 
BRANCH  30  31
HETATM   31  N3  UNL     1      34.329   5.433  48.086  1.00  0.00     0.084 N 
HETATM   32  C14 UNL     1      35.473   5.565  49.024  1.00  0.00     0.309 C 
HETATM   33  C15 UNL     1      34.801   4.720  46.911  1.00  0.00     0.309 C 
ENDBRANCH  30  31
ENDBRANCH  10  30
TORSDOF 5
ENDMDL
MODEL 3
REMARK VINA RESULT:      -6.7      2.258      6.507
REMARK  5 active torsions:
REMARK  status: ('A' for Active; 'I' for Inactive)
REMARK    1  A    between atoms: C2_2  and  C3_3 
REMARK       I    between atoms: C3_3  and  N1_5 
REMARK    2  A    between atoms: N1_5  and  C4_6 
REMARK    3  A    between atoms: C4_6  and  C5_7 
REMARK    4  A    between atoms: C12_16  and  C13_17 
REMARK    5  A    between atoms: C13_17  and  N3_18 
ROOT
HETATM    1  C5  UNL     1      24.861   2.471  50.944  1.00  0.00     0.114 A 
HETATM    2  C6  UNL     1      23.283   2.184  50.718  1.00  0.00     0.086 A 
HETATM    3  C7  UNL     1      24.104   2.059  51.509  1.00  0.00     0.044 A 
HETATM    4  O2  UNL     1      25.190   2.033  52.220  1.00  0.00     0.000 OA
HETATM    5  C8  UNL     1      25.168   2.706  53.508  1.00  0.00     0.000 C 
HETATM    6  C9  UNL     1      23.297   2.413  50.301  1.00  0.00    -0.009 A 
HETATM    7  C10 UNL     1      22.684   2.698  49.401  1.00  0.00     0.046 A 
HETATM    8  N2  UNL     1      21.981   3.037  48.397  1.00  0.00    -0.351 N 
HETATM    9  C11 UNL     1      20.912   2.271  47.877  1.00  0.00     0.152 C 
HETATM   10  C12 UNL     1      21.782   4.034  47.463  1.00  0.00     0.222 C 
HETATM   11  N4  UNL     1      21.841   4.739  48.517  1.00  0.00    -0.170 NA
HETATM   12  N5  UNL     1      21.805   5.903  49.107  1.00  0.00    -0.239 N 
HETATM   13  C16 UNL     1      21.788   7.223  48.866  1.00  0.00     0.032 A 
HETATM   14  C17 UNL     1      21.821   8.231  47.787  1.00  0.00     0.070 C 
HETATM   15  C18 UNL     1      21.756   7.963  50.059  1.00  0.00     0.029 A 
HETATM   16  C19 UNL     1      21.755   7.066  51.162  1.00  0.00     0.035 A 
HETATM   17  C20 UNL     1      21.788   5.858  50.436  1.00  0.00     0.075 A 
HETATM   18  C21 UNL     1      21.894   4.856  51.528  1.00  0.00     0.308 C 
HETATM   19  N6  UNL     1      21.830   3.831  52.235  1.00  0.00    -0.404 NA
HETATM   20  C22 UNL     1      21.254   2.537  51.964  1.00  0.00     0.228 C 
HETATM   21  N7  UNL     1      22.328   1.586  51.639  1.00  0.00    -0.390 N 
HETATM   22  H29 UNL     1      22.751   0.613  51.743  1.00  0.00     0.156 HD
ENDROOT
BRANCH   1  23
HETATM   23  C4  UNL     1      25.781   3.002  50.111  1.00  0.00     0.073 C 
BRANCH  23  24
HETATM   24  N1  UNL     1      26.027   4.359  50.669  1.00  0.00    -0.357 N 
HETATM   25  C3  UNL     1      25.558   5.342  49.767  1.00  0.00     0.240 C 
HETATM   26  O1  UNL     1      25.023   5.616  48.637  1.00  0.00    -0.269 OA
HETATM   27  H4  UNL     1      26.455   4.804  51.538  1.00  0.00     0.162 HD
BRANCH  25  28
HETATM   28  C2  UNL     1      25.583   6.723  50.043  1.00  0.00     0.064 C 
HETATM   29  C1  UNL     1      25.453   8.005  50.102  1.00  0.00     0.017 C 
ENDBRANCH  25  28
ENDBRANCH  23  24
ENDBRANCH   1  23
BRANCH  10  30
HETATM   30  C13 UNL     1      21.607   5.174  46.678  1.00  0.00     0.333 C 
BRANCH  30  31
HETATM   31  N3  UNL     1      22.081   4.844  45.280  1.00  0.00     0.084 N 
HETATM   32  C14 UNL     1      22.115   6.154  44.582  1.00  0.00     0.309 C 
HETATM   33  C15 UNL     1      21.098   4.010  44.608  1.00  0.00     0.309 C 
ENDBRANCH  30  31
ENDBRANCH  10  30
TORSDOF 5
ENDMDL
MODEL 4
REMARK VINA RESULT:      -6.6      3.568      6.156
REMARK  5 active torsions:
REMARK  status: ('A' for Active; 'I' for Inactive)
REMARK    1  A    between atoms: C2_2  and  C3_3 
REMARK       I    between atoms: C3_3  and  N1_5 
REMARK    2  A    between atoms: N1_5  and  C4_6 
REMARK    3  A    between atoms: C4_6  and  C5_7 
REMARK    4  A    between atoms: C12_16  and  C13_17 
REMARK    5  A    between atoms: C13_17  and  N3_18 
ROOT
HETATM    1  C5  UNL     1      26.673   7.247  48.950  1.00  0.00     0.114 A 
HETATM    2  C6  UNL     1      25.408   7.328  49.958  1.00  0.00     0.086 A 
HETATM    3  C7  UNL     1      26.052   7.998  49.284  1.00  0.00     0.044 A 
HETATM    4  O2  UNL     1      26.910   8.527  48.467  1.00  0.00     0.000 OA
HETATM    5  C8  UNL     1      26.388   9.234  47.309  1.00  0.00     0.000 C 
HETATM    6  C9  UNL     1      25.406   6.855  50.000  1.00  0.00    -0.009 A 
HETATM    7  C10 UNL     1      24.905   5.992  50.522  1.00  0.00     0.046 A 
HETATM    8  N2  UNL     1      24.322   5.020  51.098  1.00  0.00    -0.351 N 
HETATM    9  C11 UNL     1      23.757   5.083  52.394  1.00  0.00     0.152 C 
HETATM   10  C12 UNL     1      23.919   3.709  50.935  1.00  0.00     0.222 C 
HETATM   11  N4  UNL     1      23.501   4.197  49.841  1.00  0.00    -0.170 NA
HETATM   12  N5  UNL     1      22.901   4.054  48.691  1.00  0.00    -0.239 N 
HETATM   13  C16 UNL     1      22.408   3.132  47.850  1.00  0.00     0.032 A 
HETATM   14  C17 UNL     1      22.236   1.678  47.655  1.00  0.00     0.070 C 
HETATM   15  C18 UNL     1      21.869   3.723  46.696  1.00  0.00     0.029 A 
HETATM   16  C19 UNL     1      22.021   5.134  46.783  1.00  0.00     0.035 A 
HETATM   17  C20 UNL     1      22.661   5.188  48.038  1.00  0.00     0.075 A 
HETATM   18  C21 UNL     1      22.953   6.639  48.162  1.00  0.00     0.308 C 
HETATM   19  N6  UNL     1      23.171   7.795  48.577  1.00  0.00    -0.404 NA
HETATM   20  C22 UNL     1      23.213   8.319  49.919  1.00  0.00     0.228 C 
HETATM   21  N7  UNL     1      24.615   8.493  50.328  1.00  0.00    -0.390 N 
HETATM   22  H29 UNL     1      25.362   9.082  50.810  1.00  0.00     0.156 HD
ENDROOT
BRANCH   1  23
HETATM   23  C4  UNL     1      27.443   6.196  48.598  1.00  0.00     0.073 C 
BRANCH  23  24
HETATM   24  N1  UNL     1      28.820   6.620  48.966  1.00  0.00    -0.357 N 
HETATM   25  C3  UNL     1      29.762   5.710  48.434  1.00  0.00     0.240 C 
HETATM   26  O1  UNL     1      29.986   4.633  47.780  1.00  0.00    -0.269 OA
HETATM   27  H4  UNL     1      29.300   7.399  49.513  1.00  0.00     0.162 HD
BRANCH  25  28
HETATM   28  C2  UNL     1      31.156   5.879  48.550  1.00  0.00     0.064 C 
HETATM   29  C1  UNL     1      32.409   5.892  48.858  1.00  0.00     0.017 C 
ENDBRANCH  25  28
ENDBRANCH  23  24
ENDBRANCH   1  23
BRANCH  10  30
HETATM   30  C13 UNL     1      23.455   2.443  50.580  1.00  0.00     0.333 C 
BRANCH  30  31
HETATM   31  N3  UNL     1      24.109   1.440  51.503  1.00  0.00     0.084 N 
HETATM   32  C14 UNL     1      23.387   1.597  52.791  1.00  0.00     0.309 C 
HETATM   33  C15 UNL     1      25.497   1.805  51.727  1.00  0.00     0.309 C 
ENDBRANCH  30  31
ENDBRANCH  10  30
TORSDOF 5
ENDMDL
MODEL 5
REMARK VINA RESULT:      -6.4      7.605     10.843
REMARK  5 active torsions:
REMARK  status: ('A' for Active; 'I' for Inactive)
REMARK    1  A    between atoms: C2_2  and  C3_3 
REMARK       I    between atoms: C3_3  and  N1_5 
REMARK    2  A    between atoms: N1_5  and  C4_6 
REMARK    3  A    between atoms: C4_6  and  C5_7 
REMARK    4  A    between atoms: C12_16  and  C13_17 
REMARK    5  A    between atoms: C13_17  and  N3_18 
ROOT
HETATM    1  C5  UNL     1      32.458   6.132  46.438  1.00  0.00     0.114 A 
HETATM    2  C6  UNL     1      31.610   5.670  47.738  1.00  0.00     0.086 A 
HETATM    3  C7  UNL     1      32.691   5.728  47.357  1.00  0.00     0.044 A 
HETATM    4  O2  UNL     1      33.801   5.898  46.705  1.00  0.00     0.000 OA
HETATM    5  C8  UNL     1      34.822   6.729  47.321  1.00  0.00     0.000 C 
HETATM    6  C9  UNL     1      31.212   5.843  47.544  1.00  0.00    -0.009 A 
HETATM    7  C10 UNL     1      30.101   5.949  47.695  1.00  0.00     0.046 A 
HETATM    8  N2  UNL     1      28.851   6.085  47.881  1.00  0.00    -0.351 N 
HETATM    9  C11 UNL     1      28.043   5.159  48.582  1.00  0.00     0.152 C 
HETATM   10  C12 UNL     1      27.779   6.928  47.665  1.00  0.00     0.222 C 
HETATM   11  N4  UNL     1      28.623   7.767  48.104  1.00  0.00    -0.170 NA
HETATM   12  N5  UNL     1      28.943   8.989  48.431  1.00  0.00    -0.239 N 
HETATM   13  C16 UNL     1      28.513  10.259  48.372  1.00  0.00     0.032 A 
HETATM   14  C17 UNL     1      27.413  11.116  47.885  1.00  0.00     0.070 C 
HETATM   15  C18 UNL     1      29.435  11.143  48.956  1.00  0.00     0.029 A 
HETATM   16  C19 UNL     1      30.553  10.401  49.429  1.00  0.00     0.035 A 
HETATM   17  C20 UNL     1      30.118   9.117  49.042  1.00  0.00     0.075 A 
HETATM   18  C21 UNL     1      31.289   8.281  49.412  1.00  0.00     0.308 C 
HETATM   19  N6  UNL     1      32.049   7.356  49.760  1.00  0.00    -0.404 NA
HETATM   20  C22 UNL     1      31.763   5.990  50.119  1.00  0.00     0.228 C 
HETATM   21  N7  UNL     1      32.100   5.111  48.990  1.00  0.00    -0.390 N 
HETATM   22  H29 UNL     1      32.533   4.204  48.633  1.00  0.00     0.156 HD
ENDROOT
BRANCH   1  23
HETATM   23  C4  UNL     1      32.042   6.635  45.256  1.00  0.00     0.073 C 
BRANCH  23  24
HETATM   24  N1  UNL     1      32.222   8.103  45.408  1.00  0.00    -0.357 N 
HETATM   25  C3  UNL     1      30.972   8.755  45.301  1.00  0.00     0.240 C 
HETATM   26  O1  UNL     1      29.711   8.665  45.100  1.00  0.00    -0.269 OA
HETATM   27  H4  UNL     1      33.011   8.803  45.566  1.00  0.00     0.162 HD
BRANCH  25  28
HETATM   28  C2  UNL     1      30.803  10.142  45.473  1.00  0.00     0.064 C 
HETATM   29  C1  UNL     1      30.594  11.413  45.390  1.00  0.00     0.017 C 
ENDBRANCH  25  28
ENDBRANCH  23  24
ENDBRANCH   1  23
BRANCH  10  30
HETATM   30  C13 UNL     1      26.826   7.933  47.499  1.00  0.00     0.333 C 
BRANCH  30  31
HETATM   31  N3  UNL     1      25.551   7.470  48.167  1.00  0.00     0.084 N 
HETATM   32  C14 UNL     1      24.466   8.047  47.334  1.00  0.00     0.309 C 
HETATM   33  C15 UNL     1      25.448   8.054  49.494  1.00  0.00     0.309 C 
ENDBRANCH  30  31
ENDBRANCH  10  30
TORSDOF 5
ENDMDL
MODEL 6
REMARK VINA RESULT:      -6.3      6.353      9.322
REMARK  5 active torsions:
REMARK  status: ('A' for Active; 'I' for Inactive)
REMARK    1  A    between atoms: C2_2  and  C3_3 
REMARK       I    between atoms: C3_3  and  N1_5 
REMARK    2  A    between atoms: N1_5  and  C4_6 
REMARK    3  A    between atoms: C4_6  and  C5_7 
REMARK    4  A    between atoms: C12_16  and  C13_17 
REMARK    5  A    between atoms: C13_17  and  N3_18 
ROOT
HETATM    1  C5  UNL     1      25.354   7.602  48.711  1.00  0.00     0.114 A 
HETATM    2  C6  UNL     1      25.853   7.983  47.218  1.00  0.00     0.086 A 
HETATM    3  C7  UNL     1      24.890   7.782  47.809  1.00  0.00     0.044 A 
HETATM    4  O2  UNL     1      23.968   7.520  48.685  1.00  0.00     0.000 OA
HETATM    5  C8  UNL     1      22.938   8.522  48.897  1.00  0.00     0.000 C 
HETATM    6  C9  UNL     1      26.300   8.028  47.374  1.00  0.00    -0.009 A 
HETATM    7  C10 UNL     1      27.358   8.234  47.051  1.00  0.00     0.046 A 
HETATM    8  N2  UNL     1      28.548   8.489  46.683  1.00  0.00    -0.351 N 
HETATM    9  C11 UNL     1      29.083   8.148  45.418  1.00  0.00     0.152 C 
HETATM   10  C12 UNL     1      29.727   9.094  47.070  1.00  0.00     0.222 C 
HETATM   11  N4  UNL     1      28.906  10.008  47.387  1.00  0.00    -0.170 NA
HETATM   12  N5  UNL     1      28.660  11.190  47.881  1.00  0.00    -0.239 N 
HETATM   13  C16 UNL     1      29.230  12.216  48.533  1.00  0.00     0.032 A 
HETATM   14  C17 UNL     1      30.495  12.679  49.137  1.00  0.00     0.070 C 
HETATM   15  C18 UNL     1      28.308  13.247  48.777  1.00  0.00     0.029 A 
HETATM   16  C19 UNL     1      27.041  12.870  48.252  1.00  0.00     0.035 A 
HETATM   17  C20 UNL     1      27.404  11.606  47.743  1.00  0.00     0.075 A 
HETATM   18  C21 UNL     1      26.097  11.091  47.260  1.00  0.00     0.308 C 
HETATM   19  N6  UNL     1      25.184  10.503  46.648  1.00  0.00    -0.404 NA
HETATM   20  C22 UNL     1      25.236   9.590  45.534  1.00  0.00     0.228 C 
HETATM   21  N7  UNL     1      25.051   8.216  46.025  1.00  0.00    -0.390 N 
HETATM   22  H29 UNL     1      24.607   7.254  45.908  1.00  0.00     0.156 HD
ENDROOT
BRANCH   1  23
HETATM   23  C4  UNL     1      26.064   7.360  49.834  1.00  0.00     0.073 C 
BRANCH  23  24
HETATM   24  N1  UNL     1      25.747   5.944  50.160  1.00  0.00    -0.357 N 
HETATM   25  C3  UNL     1      26.614   5.081  49.450  1.00  0.00     0.240 C 
HETATM   26  O1  UNL     1      27.565   4.949  48.604  1.00  0.00    -0.269 OA
HETATM   27  H4  UNL     1      25.061   5.393  50.762  1.00  0.00     0.162 HD
BRANCH  25  28
HETATM   28  C2  UNL     1      26.611   3.681  49.603  1.00  0.00     0.064 C 
HETATM   29  C1  UNL     1      26.375   2.431  49.816  1.00  0.00     0.017 C 
ENDBRANCH  25  28
ENDBRANCH  23  24
ENDBRANCH   1  23
BRANCH  10  30
HETATM   30  C13 UNL     1      30.798   9.856  47.537  1.00  0.00     0.333 C 
BRANCH  30  31
HETATM   31  N3  UNL     1      31.769   8.915  48.215  1.00  0.00     0.084 N 
HETATM   32  C14 UNL     1      32.289   8.065  47.114  1.00  0.00     0.309 C 
HETATM   33  C15 UNL     1      31.056   8.052  49.141  1.00  0.00     0.309 C 
ENDBRANCH  30  31
ENDBRANCH  10  30
TORSDOF 5
ENDMDL
MODEL 7
REMARK VINA RESULT:      -6.1      2.471      5.492
REMARK  5 active torsions:
REMARK  status: ('A' for Active; 'I' for Inactive)
REMARK    1  A    between atoms: C2_2  and  C3_3 
REMARK       I    between atoms: C3_3  and  N1_5 
REMARK    2  A    between atoms: N1_5  and  C4_6 
REMARK    3  A    between atoms: C4_6  and  C5_7 
REMARK    4  A    between atoms: C12_16  and  C13_17 
REMARK    5  A    between atoms: C13_17  and  N3_18 
ROOT
HETATM    1  C5  UNL     1      23.849   6.208  50.591  1.00  0.00     0.114 A 
HETATM    2  C6  UNL     1      22.709   6.378  49.453  1.00  0.00     0.086 A 
HETATM    3  C7  UNL     1      23.843   6.480  49.597  1.00  0.00     0.044 A 
HETATM    4  O2  UNL     1      25.073   6.519  50.011  1.00  0.00     0.000 OA
HETATM    5  C8  UNL     1      26.044   5.697  49.309  1.00  0.00     0.000 C 
HETATM    6  C9  UNL     1      22.381   6.202  49.750  1.00  0.00    -0.009 A 
HETATM    7  C10 UNL     1      21.285   5.973  49.857  1.00  0.00     0.046 A 
HETATM    8  N2  UNL     1      20.049   5.694  49.965  1.00  0.00    -0.351 N 
HETATM    9  C11 UNL     1      19.010   6.419  49.334  1.00  0.00     0.152 C 
HETATM   10  C12 UNL     1      19.153   4.802  50.520  1.00  0.00     0.222 C 
HETATM   11  N4  UNL     1      19.989   3.985  50.028  1.00  0.00    -0.170 NA
HETATM   12  N5  UNL     1      20.386   2.761  49.809  1.00  0.00    -0.239 N 
HETATM   13  C16 UNL     1      20.135   1.482  50.133  1.00  0.00     0.032 A 
HETATM   14  C17 UNL     1      19.267   0.617  50.958  1.00  0.00     0.070 C 
HETATM   15  C18 UNL     1      21.024   0.605  49.490  1.00  0.00     0.029 A 
HETATM   16  C19 UNL     1      21.925   1.361  48.691  1.00  0.00     0.035 A 
HETATM   17  C20 UNL     1      21.421   2.645  48.983  1.00  0.00     0.075 A 
HETATM   18  C21 UNL     1      22.384   3.515  48.260  1.00  0.00     0.308 C 
HETATM   19  N6  UNL     1      22.940   4.438  47.634  1.00  0.00    -0.404 NA
HETATM   20  C22 UNL     1      22.423   5.698  47.161  1.00  0.00     0.228 C 
HETATM   21  N7  UNL     1      22.867   6.773  48.061  1.00  0.00    -0.390 N 
HETATM   22  H29 UNL     1      23.248   7.761  48.189  1.00  0.00     0.156 HD
ENDROOT
BRANCH   1  23
HETATM   23  C4  UNL     1      23.741   5.864  51.891  1.00  0.00     0.073 C 
BRANCH  23  24
HETATM   24  N1  UNL     1      24.174   4.442  51.923  1.00  0.00    -0.357 N 
HETATM   25  C3  UNL     1      23.083   3.615  52.282  1.00  0.00     0.240 C 
HETATM   26  O1  UNL     1      21.856   3.524  52.631  1.00  0.00    -0.269 OA
HETATM   27  H4  UNL     1      25.057   3.867  51.761  1.00  0.00     0.162 HD
BRANCH  25  28
HETATM   28  C2  UNL     1      23.157   2.210  52.327  1.00  0.00     0.064 C 
HETATM   29  C1  UNL     1      23.131   0.948  52.596  1.00  0.00     0.017 C 
ENDBRANCH  25  28
ENDBRANCH  23  24
ENDBRANCH   1  23
BRANCH  10  30
HETATM   30  C13 UNL     1      18.383   3.753  51.023  1.00  0.00     0.333 C 
BRANCH  30  31
HETATM   31  N3  UNL     1      16.940   4.031  50.662  1.00  0.00     0.084 N 
HETATM   32  C14 UNL     1      16.292   4.357  51.958  1.00  0.00     0.309 C 
HETATM   33  C15 UNL     1      16.318   2.823  50.148  1.00  0.00     0.309 C 
ENDBRANCH  30  31
ENDBRANCH  10  30
TORSDOF 5
ENDMDL
MODEL 8
REMARK VINA RESULT:      -6.1      7.916     11.259
REMARK  5 active torsions:
REMARK  status: ('A' for Active; 'I' for Inactive)
REMARK    1  A    between atoms: C2_2  and  C3_3 
REMARK       I    between atoms: C3_3  and  N1_5 
REMARK    2  A    between atoms: N1_5  and  C4_6 
REMARK    3  A    between atoms: C4_6  and  C5_7 
REMARK    4  A    between atoms: C12_16  and  C13_17 
REMARK    5  A    between atoms: C13_17  and  N3_18 
ROOT
HETATM    1  C5  UNL     1      30.044   6.288  48.323  1.00  0.00     0.114 A 
HETATM    2  C6  UNL     1      31.002   7.548  48.667  1.00  0.00     0.086 A 
HETATM    3  C7  UNL     1      31.036   6.405  48.575  1.00  0.00     0.044 A 
HETATM    4  O2  UNL     1      30.815   5.136  48.409  1.00  0.00     0.000 OA
HETATM    5  C8  UNL     1      31.619   4.438  47.420  1.00  0.00     0.000 C 
HETATM    6  C9  UNL     1      30.652   7.850  48.555  1.00  0.00    -0.009 A 
HETATM    7  C10 UNL     1      30.370   8.939  48.520  1.00  0.00     0.046 A 
HETATM    8  N2  UNL     1      30.064  10.172  48.460  1.00  0.00    -0.351 N 
HETATM    9  C11 UNL     1      30.562  11.161  49.342  1.00  0.00     0.152 C 
HETATM   10  C12 UNL     1      29.342  11.106  47.745  1.00  0.00     0.222 C 
HETATM   11  N4  UNL     1      29.918  10.506  46.788  1.00  0.00    -0.170 NA
HETATM   12  N5  UNL     1      30.140  10.359  45.510  1.00  0.00    -0.239 N 
HETATM   13  C16 UNL     1      29.727  10.766  44.300  1.00  0.00     0.032 A 
HETATM   14  C17 UNL     1      28.743  11.626  43.612  1.00  0.00     0.070 C 
HETATM   15  C18 UNL     1      30.457  10.148  43.272  1.00  0.00     0.029 A 
HETATM   16  C19 UNL     1      31.415   9.269  43.847  1.00  0.00     0.035 A 
HETATM   17  C20 UNL     1      31.107   9.499  45.203  1.00  0.00     0.075 A 
HETATM   18  C21 UNL     1      32.006   8.530  45.882  1.00  0.00     0.308 C 
HETATM   19  N6  UNL     1      32.749   7.932  46.685  1.00  0.00    -0.404 NA
HETATM   20  C22 UNL     1      33.193   8.299  48.006  1.00  0.00     0.228 C 
HETATM   21  N7  UNL     1      32.419   7.545  49.004  1.00  0.00    -0.390 N 
HETATM   22  H29 UNL     1      32.393   6.990  49.914  1.00  0.00     0.156 HD
ENDROOT
BRANCH   1  23
HETATM   23  C4  UNL     1      28.728   6.247  48.026  1.00  0.00     0.073 C 
BRANCH  23  24
HETATM   24  N1  UNL     1      28.190   5.191  48.924  1.00  0.00    -0.357 N 
HETATM   25  C3  UNL     1      26.777   5.243  48.935  1.00  0.00     0.240 C 
HETATM   26  O1  UNL     1      25.706   5.818  48.535  1.00  0.00    -0.269 OA
HETATM   27  H4  UNL     1      28.554   4.417  49.560  1.00  0.00     0.162 HD
BRANCH  25  28
HETATM   28  C2  UNL     1      25.972   4.323  49.635  1.00  0.00     0.064 C 
HETATM   29  C1  UNL     1      25.272   3.336  50.080  1.00  0.00     0.017 C 
ENDBRANCH  25  28
ENDBRANCH  23  24
ENDBRANCH   1  23
BRANCH  10  30
HETATM   30  C13 UNL     1      28.683  11.952  46.854  1.00  0.00     0.333 C 
BRANCH  30  31
HETATM   31  N3  UNL     1      27.428  12.450  47.538  1.00  0.00     0.084 N 
HETATM   32  C14 UNL     1      27.918  13.424  48.546  1.00  0.00     0.309 C 
HETATM   33  C15 UNL     1      26.788  11.358  48.252  1.00  0.00     0.309 C 
ENDBRANCH  30  31
ENDBRANCH  10  30
TORSDOF 5
ENDMDL
MODEL 9
REMARK VINA RESULT:      -6.1      2.688      5.788
REMARK  5 active torsions:
REMARK  status: ('A' for Active; 'I' for Inactive)
REMARK    1  A    between atoms: C2_2  and  C3_3 
REMARK       I    between atoms: C3_3  and  N1_5 
REMARK    2  A    between atoms: N1_5  and  C4_6 
REMARK    3  A    between atoms: C4_6  and  C5_7 
REMARK    4  A    between atoms: C12_16  and  C13_17 
REMARK    5  A    between atoms: C13_17  and  N3_18 
ROOT
HETATM    1  C5  UNL     1      25.512   5.926  49.856  1.00  0.00     0.114 A 
HETATM    2  C6  UNL     1      24.096   6.252  50.572  1.00  0.00     0.086 A 
HETATM    3  C7  UNL     1      25.125   6.723  50.382  1.00  0.00     0.044 A 
HETATM    4  O2  UNL     1      26.339   7.026  50.038  1.00  0.00     0.000 OA
HETATM    5  C8  UNL     1      26.533   8.230  49.248  1.00  0.00     0.000 C 
HETATM    6  C9  UNL     1      23.911   5.849  50.398  1.00  0.00    -0.009 A 
HETATM    7  C10 UNL     1      22.990   5.203  50.392  1.00  0.00     0.046 A 
HETATM    8  N2  UNL     1      21.939   4.487  50.370  1.00  0.00    -0.351 N 
HETATM    9  C11 UNL     1      21.028   4.375  51.447  1.00  0.00     0.152 C 
HETATM   10  C12 UNL     1      21.177   3.651  49.578  1.00  0.00     0.222 C 
HETATM   11  N4  UNL     1      21.362   4.606  48.763  1.00  0.00    -0.170 NA
HETATM   12  N5  UNL     1      21.182   5.147  47.589  1.00  0.00    -0.239 N 
HETATM   13  C16 UNL     1      20.712   4.895  46.357  1.00  0.00     0.032 A 
HETATM   14  C17 UNL     1      20.110   3.845  45.511  1.00  0.00     0.070 C 
HETATM   15  C18 UNL     1      20.848   6.011  45.517  1.00  0.00     0.029 A 
HETATM   16  C19 UNL     1      21.454   7.071  46.246  1.00  0.00     0.035 A 
HETATM   17  C20 UNL     1      21.600   6.404  47.480  1.00  0.00     0.075 A 
HETATM   18  C21 UNL     1      22.329   7.420  48.283  1.00  0.00     0.308 C 
HETATM   19  N6  UNL     1      22.790   8.131  49.198  1.00  0.00    -0.404 NA
HETATM   20  C22 UNL     1      22.554   8.100  50.620  1.00  0.00     0.228 C 
HETATM   21  N7  UNL     1      23.696   7.455  51.286  1.00  0.00    -0.390 N 
HETATM   22  H29 UNL     1      24.390   7.433  52.095  1.00  0.00     0.156 HD
ENDROOT
BRANCH   1  23
HETATM   23  C4  UNL     1      25.927   4.820  49.203  1.00  0.00     0.073 C 
BRANCH  23  24
HETATM   24  N1  UNL     1      26.849   4.160  50.166  1.00  0.00    -0.357 N 
HETATM   25  C3  UNL     1      26.198   3.067  50.783  1.00  0.00     0.240 C 
HETATM   26  O1  UNL     1      25.132   2.371  50.921  1.00  0.00    -0.269 OA
HETATM   27  H4  UNL     1      27.845   4.272  50.528  1.00  0.00     0.162 HD
BRANCH  25  28
HETATM   28  C2  UNL     1      26.833   2.198  51.691  1.00  0.00     0.064 C 
HETATM   29  C1  UNL     1      27.185   1.323  52.571  1.00  0.00     0.017 C 
ENDBRANCH  25  28
ENDBRANCH  23  24
ENDBRANCH   1  23
BRANCH  10  30
HETATM   30  C13 UNL     1      20.443   2.945  48.626  1.00  0.00     0.333 C 
BRANCH  30  31
HETATM   31  N3  UNL     1      20.506   1.479  48.995  1.00  0.00     0.084 N 
HETATM   32  C14 UNL     1      19.469   1.318  50.046  1.00  0.00     0.309 C 
HETATM   33  C15 UNL     1      21.794   1.174  49.594  1.00  0.00     0.309 C 
ENDBRANCH  30  31
ENDBRANCH  10  30
TORSDOF 5
ENDMDL
