MODEL 1
REMARK VINA RESULT:      -8.9      0.000      0.000
REMARK  4 active torsions:
REMARK  status: ('A' for Active; 'I' for Inactive)
REMARK    1  A    between atoms: C6_7  and  C7_8 
REMARK    2  A    between atoms: C7_8  and  N2_9 
REMARK    3  A    between atoms: N2_9  and  C8_10 
REMARK    4  A    between atoms: O1_24  and  C19_25 
ROOT
HETATM    1  C8  UNL     1      24.311   1.455  53.042  1.00  0.00     0.120 A 
HETATM    2  C9  UNL     1      24.383   2.383  52.140  1.00  0.00     0.094 C 
HETATM    3  N3  UNL     1      23.194   2.897  51.910  1.00  0.00    -0.246 NA
HETATM    4  C10 UNL     1      22.458   2.162  50.944  1.00  0.00     0.085 A 
HETATM    5  C11 UNL     1      23.154   2.799  49.856  1.00  0.00     0.148 A 
HETATM    6  N4  UNL     1      23.041   2.662  48.487  1.00  0.00    -0.271 NA
HETATM    7  C12 UNL     1      22.117   1.776  48.010  1.00  0.00     0.117 A 
HETATM    8  C13 UNL     1      21.416   1.134  49.040  1.00  0.00     0.033 A 
HETATM    9  C14 UNL     1      21.551   1.292  50.405  1.00  0.00    -0.004 A 
HETATM   10  C15 UNL     1      20.603   0.391  51.038  1.00  0.00     0.015 C 
HETATM   11  C16 UNL     1      21.076  -0.008  52.181  1.00  0.00     0.021 C 
HETATM   12  C17 UNL     1      22.004  -0.107  53.264  1.00  0.00     0.026 C 
HETATM   13 CL1  UNL     1      21.644  -1.177  54.656  1.00  0.00    -0.088 Cl
HETATM   14  C18 UNL     1      23.012   0.732  52.921  1.00  0.00     0.065 A 
HETATM   15  O1  UNL     1      23.687   0.391  54.078  1.00  0.00     0.000 OA
ENDROOT
BRANCH   1  16
HETATM   16  N2  UNL     1      25.590   1.891  53.542  1.00  0.00    -0.400 N 
HETATM   17  H9  UNL     1      25.623   2.259  54.525  1.00  0.00     0.154 HD
BRANCH  16  18
HETATM   18  C7  UNL     1      26.608   1.702  52.519  1.00  0.00     0.156 C 
BRANCH  18  19
HETATM   19  C6  UNL     1      27.550   0.645  52.868  1.00  0.00    -0.017 A 
HETATM   20  C2  UNL     1      28.739   1.057  53.481  1.00  0.00     0.038 A 
HETATM   21  C1  UNL     1      28.990   2.507  53.749  1.00  0.00     0.071 C 
HETATM   22  N1  UNL     1      29.681   0.150  53.844  1.00  0.00    -0.265 NA
HETATM   23  C3  UNL     1      29.519  -1.165  53.634  1.00  0.00     0.117 A 
HETATM   24  C4  UNL     1      28.378  -1.653  53.036  1.00  0.00     0.020 A 
HETATM   25  C5  UNL     1      27.439  -0.713  52.677  1.00  0.00     0.012 A 
ENDBRANCH  18  19
ENDBRANCH  16  18
ENDBRANCH   1  16
BRANCH  15  26
HETATM   26  C19 UNL     1      24.206  -0.878  54.360  1.00  0.00     0.404 C 
HETATM   27  O2  UNL     1      25.126  -1.103  55.193  1.00  0.00    -0.404 OA
ENDBRANCH  15  26
TORSDOF 4
ENDMDL
MODEL 2
REMARK VINA RESULT:      -8.6      0.636      1.385
REMARK  4 active torsions:
REMARK  status: ('A' for Active; 'I' for Inactive)
REMARK    1  A    between atoms: C6_7  and  C7_8 
REMARK    2  A    between atoms: C7_8  and  N2_9 
REMARK    3  A    between atoms: N2_9  and  C8_10 
REMARK    4  A    between atoms: O1_24  and  C19_25 
ROOT
HETATM    1  C8  UNL     1      24.282   1.267  52.964  1.00  0.00     0.120 A 
HETATM    2  C9  UNL     1      24.399   2.130  52.004  1.00  0.00     0.094 C 
HETATM    3  N3  UNL     1      23.260   2.759  51.806  1.00  0.00    -0.246 NA
HETATM    4  C10 UNL     1      22.394   2.056  50.927  1.00  0.00     0.085 A 
HETATM    5  C11 UNL     1      23.089   2.551  49.766  1.00  0.00     0.148 A 
HETATM    6  N4  UNL     1      22.881   2.351  48.416  1.00  0.00    -0.271 NA
HETATM    7  C12 UNL     1      21.840   1.547  48.045  1.00  0.00     0.117 A 
HETATM    8  C13 UNL     1      21.137   1.045  49.149  1.00  0.00     0.033 A 
HETATM    9  C14 UNL     1      21.369   1.263  50.492  1.00  0.00    -0.004 A 
HETATM   10  C15 UNL     1      20.370   0.508  51.228  1.00  0.00     0.015 C 
HETATM   11  C16 UNL     1      20.864   0.124  52.367  1.00  0.00     0.021 C 
HETATM   12  C17 UNL     1      21.839  -0.017  53.404  1.00  0.00     0.026 C 
HETATM   13 CL1  UNL     1      21.450  -0.962  54.876  1.00  0.00    -0.088 Cl
HETATM   14  C18 UNL     1      22.908   0.685  52.957  1.00  0.00     0.065 A 
HETATM   15  O1  UNL     1      23.611   0.337  54.095  1.00  0.00     0.000 OA
ENDROOT
BRANCH   1  16
HETATM   16  N2  UNL     1      25.628   1.587  53.367  1.00  0.00    -0.400 N 
HETATM   17  H9  UNL     1      25.753   2.059  54.297  1.00  0.00     0.154 HD
BRANCH  16  18
HETATM   18  C7  UNL     1      26.565   1.148  52.345  1.00  0.00     0.156 C 
BRANCH  18  19
HETATM   19  C6  UNL     1      27.723   0.466  52.913  1.00  0.00    -0.017 A 
HETATM   20  C2  UNL     1      27.719  -0.931  52.825  1.00  0.00     0.038 A 
HETATM   21  C1  UNL     1      26.575  -1.646  52.177  1.00  0.00     0.071 C 
HETATM   22  N1  UNL     1      28.750  -1.659  53.324  1.00  0.00    -0.265 NA
HETATM   23  C3  UNL     1      29.806  -1.081  53.917  1.00  0.00     0.117 A 
HETATM   24  C4  UNL     1      29.887   0.288  54.045  1.00  0.00     0.020 A 
HETATM   25  C5  UNL     1      28.829   1.003  53.530  1.00  0.00     0.012 A 
ENDBRANCH  18  19
ENDBRANCH  16  18
ENDBRANCH   1  16
BRANCH  15  26
HETATM   26  C19 UNL     1      24.008  -0.964  54.427  1.00  0.00     0.404 C 
HETATM   27  O2  UNL     1      24.962  -1.242  55.202  1.00  0.00    -0.404 OA
ENDBRANCH  15  26
TORSDOF 4
ENDMDL
MODEL 3
REMARK VINA RESULT:      -8.0      3.322      4.861
REMARK  4 active torsions:
REMARK  status: ('A' for Active; 'I' for Inactive)
REMARK    1  A    between atoms: C6_7  and  C7_8 
REMARK    2  A    between atoms: C7_8  and  N2_9 
REMARK    3  A    between atoms: N2_9  and  C8_10 
REMARK    4  A    between atoms: O1_24  and  C19_25 
ROOT
HETATM    1  C8  UNL     1      24.224   3.353  51.801  1.00  0.00     0.120 A 
HETATM    2  C9  UNL     1      23.094   3.882  51.449  1.00  0.00     0.094 C 
HETATM    3  N3  UNL     1      22.142   3.541  52.292  1.00  0.00    -0.246 NA
HETATM    4  C10 UNL     1      21.542   2.297  51.963  1.00  0.00     0.085 A 
HETATM    5  C11 UNL     1      20.703   2.908  50.965  1.00  0.00     0.148 A 
HETATM    6  N4  UNL     1      19.746   2.381  50.120  1.00  0.00    -0.271 NA
HETATM    7  C12 UNL     1      19.502   1.039  50.194  1.00  0.00     0.117 A 
HETATM    8  C13 UNL     1      20.300   0.406  51.157  1.00  0.00     0.033 A 
HETATM    9  C14 UNL     1      21.251   0.961  51.989  1.00  0.00    -0.004 A 
HETATM   10  C15 UNL     1      21.802  -0.118  52.791  1.00  0.00     0.015 C 
HETATM   11  C16 UNL     1      23.044   0.139  53.076  1.00  0.00     0.021 C 
HETATM   12  C17 UNL     1      24.270   0.875  53.092  1.00  0.00     0.026 C 
HETATM   13 CL1  UNL     1      25.709   0.198  53.919  1.00  0.00    -0.088 Cl
HETATM   14  C18 UNL     1      23.987   2.015  52.417  1.00  0.00     0.065 A 
HETATM   15  O1  UNL     1      25.292   2.438  52.585  1.00  0.00     0.000 OA
ENDROOT
BRANCH   1  16
HETATM   16  N2  UNL     1      24.883   4.555  51.357  1.00  0.00    -0.400 N 
HETATM   17  H9  UNL     1      25.315   5.168  52.093  1.00  0.00     0.154 HD
BRANCH  16  18
HETATM   18  C7  UNL     1      24.810   4.649  49.907  1.00  0.00     0.156 C 
BRANCH  18  19
HETATM   19  C6  UNL     1      26.032   5.195  49.327  1.00  0.00    -0.017 A 
HETATM   20  C2  UNL     1      26.039   6.575  49.092  1.00  0.00     0.038 A 
HETATM   21  C1  UNL     1      24.843   7.407  49.432  1.00  0.00     0.071 C 
HETATM   22  N1  UNL     1      27.129   7.180  48.555  1.00  0.00    -0.265 NA
HETATM   23  C3  UNL     1      28.234   6.494  48.228  1.00  0.00     0.117 A 
HETATM   24  C4  UNL     1      28.308   5.132  48.426  1.00  0.00     0.020 A 
HETATM   25  C5  UNL     1      27.190   4.543  48.972  1.00  0.00     0.012 A 
ENDBRANCH  18  19
ENDBRANCH  16  18
ENDBRANCH   1  16
BRANCH  15  26
HETATM   26  C19 UNL     1      26.415   1.822  52.019  1.00  0.00     0.404 C 
HETATM   27  O2  UNL     1      27.514   2.401  51.806  1.00  0.00    -0.404 OA
ENDBRANCH  15  26
TORSDOF 4
ENDMDL
MODEL 4
REMARK VINA RESULT:      -7.8      3.572      6.023
REMARK  4 active torsions:
REMARK  status: ('A' for Active; 'I' for Inactive)
REMARK    1  A    between atoms: C6_7  and  C7_8 
REMARK    2  A    between atoms: C7_8  and  N2_9 
REMARK    3  A    between atoms: N2_9  and  C8_10 
REMARK    4  A    between atoms: O1_24  and  C19_25 
ROOT
HETATM    1  C8  UNL     1      24.542   3.463  51.462  1.00  0.00     0.120 A 
HETATM    2  C9  UNL     1      25.771   3.056  51.523  1.00  0.00     0.094 C 
HETATM    3  N3  UNL     1      25.845   1.767  51.267  1.00  0.00    -0.246 NA
HETATM    4  C10 UNL     1      25.632   0.967  52.420  1.00  0.00     0.085 A 
HETATM    5  C11 UNL     1      26.991   1.151  52.860  1.00  0.00     0.148 A 
HETATM    6  N4  UNL     1      27.674   0.676  53.962  1.00  0.00    -0.271 NA
HETATM    7  C12 UNL     1      26.991  -0.121  54.838  1.00  0.00     0.117 A 
HETATM    8  C13 UNL     1      25.662  -0.325  54.444  1.00  0.00     0.033 A 
HETATM    9  C14 UNL     1      25.006   0.165  53.333  1.00  0.00    -0.004 A 
HETATM   10  C15 UNL     1      23.640  -0.326  53.390  1.00  0.00     0.015 C 
HETATM   11  C16 UNL     1      22.841   0.538  52.838  1.00  0.00     0.021 C 
HETATM   12  C17 UNL     1      22.458   1.740  52.165  1.00  0.00     0.026 C 
HETATM   13 CL1  UNL     1      20.729   2.055  51.812  1.00  0.00    -0.088 Cl
HETATM   14  C18 UNL     1      23.628   2.385  51.937  1.00  0.00     0.065 A 
HETATM   15  O1  UNL     1      22.936   3.428  51.351  1.00  0.00     0.000 OA
ENDROOT
BRANCH   1  16
HETATM   16  N2  UNL     1      25.019   4.699  50.894  1.00  0.00    -0.400 N 
HETATM   17  H9  UNL     1      25.238   5.482  51.558  1.00  0.00     0.154 HD
BRANCH  16  18
HETATM   18  C7  UNL     1      25.107   4.573  49.447  1.00  0.00     0.156 C 
BRANCH  18  19
HETATM   19  C6  UNL     1      26.275   5.258  48.903  1.00  0.00    -0.017 A 
HETATM   20  C2  UNL     1      26.053   6.544  48.395  1.00  0.00     0.038 A 
HETATM   21  C1  UNL     1      24.683   7.144  48.427  1.00  0.00     0.071 C 
HETATM   22  N1  UNL     1      27.074   7.265  47.867  1.00  0.00    -0.265 NA
HETATM   23  C3  UNL     1      28.325   6.786  47.808  1.00  0.00     0.117 A 
HETATM   24  C4  UNL     1      28.628   5.530  48.285  1.00  0.00     0.020 A 
HETATM   25  C5  UNL     1      27.575   4.819  48.816  1.00  0.00     0.012 A 
ENDBRANCH  18  19
ENDBRANCH  16  18
ENDBRANCH   1  16
BRANCH  15  26
HETATM   26  C19 UNL     1      22.051   4.281  52.020  1.00  0.00     0.404 C 
HETATM   27  O2  UNL     1      21.836   5.481  51.698  1.00  0.00    -0.404 OA
ENDBRANCH  15  26
TORSDOF 4
ENDMDL
MODEL 5
REMARK VINA RESULT:      -7.6      3.088      4.579
REMARK  4 active torsions:
REMARK  status: ('A' for Active; 'I' for Inactive)
REMARK    1  A    between atoms: C6_7  and  C7_8 
REMARK    2  A    between atoms: C7_8  and  N2_9 
REMARK    3  A    between atoms: N2_9  and  C8_10 
REMARK    4  A    between atoms: O1_24  and  C19_25 
ROOT
HETATM    1  C8  UNL     1      22.490   1.850  52.346  1.00  0.00     0.120 A 
HETATM    2  C9  UNL     1      21.587   2.544  51.727  1.00  0.00     0.094 C 
HETATM    3  N3  UNL     1      20.462   2.553  52.411  1.00  0.00    -0.246 NA
HETATM    4  C10 UNL     1      19.641   1.430  52.128  1.00  0.00     0.085 A 
HETATM    5  C11 UNL     1      19.137   2.039  50.924  1.00  0.00     0.148 A 
HETATM    6  N4  UNL     1      18.225   1.601  49.984  1.00  0.00    -0.271 NA
HETATM    7  C12 UNL     1      17.660   0.371  50.172  1.00  0.00     0.117 A 
HETATM    8  C13 UNL     1      18.125  -0.256  51.336  1.00  0.00     0.033 A 
HETATM    9  C14 UNL     1      19.040   0.209  52.259  1.00  0.00    -0.004 A 
HETATM   10  C15 UNL     1      19.188  -0.821  53.273  1.00  0.00     0.015 C 
HETATM   11  C16 UNL     1      20.396  -0.793  53.753  1.00  0.00     0.021 C 
HETATM   12  C17 UNL     1      21.744  -0.343  53.910  1.00  0.00     0.026 C 
HETATM   13 CL1  UNL     1      22.834  -1.170  55.067  1.00  0.00    -0.088 Cl
HETATM   14  C18 UNL     1      21.848   0.709  53.062  1.00  0.00     0.065 A 
HETATM   15  O1  UNL     1      23.174   0.864  53.420  1.00  0.00     0.000 OA
ENDROOT
BRANCH   1  16
HETATM   16  N2  UNL     1      23.476   2.797  51.892  1.00  0.00    -0.400 N 
HETATM   17  H9  UNL     1      24.036   3.299  52.625  1.00  0.00     0.154 HD
BRANCH  16  18
HETATM   18  C7  UNL     1      23.487   2.838  50.437  1.00  0.00     0.156 C 
BRANCH  18  19
HETATM   19  C6  UNL     1      24.610   3.607  49.915  1.00  0.00    -0.017 A 
HETATM   20  C2  UNL     1      24.293   4.834  49.320  1.00  0.00     0.038 A 
HETATM   21  C1  UNL     1      22.872   5.294  49.245  1.00  0.00     0.071 C 
HETATM   22  N1  UNL     1      25.268   5.624  48.803  1.00  0.00    -0.265 NA
HETATM   23  C3  UNL     1      26.562   5.272  48.837  1.00  0.00     0.117 A 
HETATM   24  C4  UNL     1      26.958   4.080  49.404  1.00  0.00     0.020 A 
HETATM   25  C5  UNL     1      25.951   3.297  49.921  1.00  0.00     0.012 A 
ENDBRANCH  18  19
ENDBRANCH  16  18
ENDBRANCH   1  16
BRANCH  15  26
HETATM   26  C19 UNL     1      24.192  -0.059  53.152  1.00  0.00     0.404 C 
HETATM   27  O2  UNL     1      25.280   0.225  52.583  1.00  0.00    -0.404 OA
ENDBRANCH  15  26
TORSDOF 4
ENDMDL
MODEL 6
REMARK VINA RESULT:      -7.6      3.254      7.244
REMARK  4 active torsions:
REMARK  status: ('A' for Active; 'I' for Inactive)
REMARK    1  A    between atoms: C6_7  and  C7_8 
REMARK    2  A    between atoms: C7_8  and  N2_9 
REMARK    3  A    between atoms: N2_9  and  C8_10 
REMARK    4  A    between atoms: O1_24  and  C19_25 
ROOT
HETATM    1  C8  UNL     1      22.472   1.004  51.179  1.00  0.00     0.120 A 
HETATM    2  C9  UNL     1      22.766   0.325  52.244  1.00  0.00     0.094 C 
HETATM    3  N3  UNL     1      23.493   1.050  53.068  1.00  0.00    -0.246 NA
HETATM    4  C10 UNL     1      24.880   0.988  52.772  1.00  0.00     0.085 A 
HETATM    5  C11 UNL     1      25.020  -0.273  53.454  1.00  0.00     0.148 A 
HETATM    6  N4  UNL     1      26.115  -1.087  53.665  1.00  0.00    -0.271 NA
HETATM    7  C12 UNL     1      27.318  -0.679  53.161  1.00  0.00     0.117 A 
HETATM    8  C13 UNL     1      27.223   0.547  52.488  1.00  0.00     0.033 A 
HETATM    9  C14 UNL     1      26.111   1.341  52.293  1.00  0.00    -0.004 A 
HETATM   10  C15 UNL     1      26.539   2.498  51.526  1.00  0.00     0.015 C 
HETATM   11  C16 UNL     1      25.562   2.910  50.774  1.00  0.00     0.021 C 
HETATM   12  C17 UNL     1      24.248   2.930  50.209  1.00  0.00     0.026 C 
HETATM   13 CL1  UNL     1      23.828   4.153  48.968  1.00  0.00    -0.088 Cl
HETATM   14  C18 UNL     1      23.597   1.922  50.837  1.00  0.00     0.065 A 
HETATM   15  O1  UNL     1      22.466   2.189  50.088  1.00  0.00     0.000 OA
ENDROOT
BRANCH   1  16
HETATM   16  N2  UNL     1      21.183   0.359  51.169  1.00  0.00    -0.400 N 
HETATM   17  H9  UNL     1      20.933  -0.205  50.320  1.00  0.00     0.154 HD
BRANCH  16  18
HETATM   18  C7  UNL     1      20.484   0.639  52.414  1.00  0.00     0.156 C 
BRANCH  18  19
HETATM   19  C6  UNL     1      19.255  -0.136  52.543  1.00  0.00    -0.017 A 
HETATM   20  C2  UNL     1      19.290  -1.200  53.452  1.00  0.00     0.038 A 
HETATM   21  C1  UNL     1      20.536  -1.492  54.228  1.00  0.00     0.071 C 
HETATM   22  N1  UNL     1      18.198  -1.982  53.645  1.00  0.00    -0.265 NA
HETATM   23  C3  UNL     1      17.050  -1.775  52.983  1.00  0.00     0.117 A 
HETATM   24  C4  UNL     1      16.932  -0.749  52.071  1.00  0.00     0.020 A 
HETATM   25  C5  UNL     1      18.054   0.029  51.894  1.00  0.00     0.012 A 
ENDBRANCH  18  19
ENDBRANCH  16  18
ENDBRANCH   1  16
BRANCH  15  26
HETATM   26  C19 UNL     1      22.363   2.024  48.702  1.00  0.00     0.404 C 
HETATM   27  O2  UNL     1      21.697   1.115  48.139  1.00  0.00    -0.404 OA
ENDBRANCH  15  26
TORSDOF 4
ENDMDL
MODEL 7
REMARK VINA RESULT:      -7.6      2.944      6.228
REMARK  4 active torsions:
REMARK  status: ('A' for Active; 'I' for Inactive)
REMARK    1  A    between atoms: C6_7  and  C7_8 
REMARK    2  A    between atoms: C7_8  and  N2_9 
REMARK    3  A    between atoms: N2_9  and  C8_10 
REMARK    4  A    between atoms: O1_24  and  C19_25 
ROOT
HETATM    1  C8  UNL     1      24.760   2.081  51.279  1.00  0.00     0.120 A 
HETATM    2  C9  UNL     1      26.046   1.985  51.146  1.00  0.00     0.094 C 
HETATM    3  N3  UNL     1      26.439   0.743  51.338  1.00  0.00    -0.246 NA
HETATM    4  C10 UNL     1      26.665   0.447  52.709  1.00  0.00     0.085 A 
HETATM    5  C11 UNL     1      27.969   1.058  52.678  1.00  0.00     0.148 A 
HETATM    6  N4  UNL     1      28.936   1.209  53.651  1.00  0.00    -0.271 NA
HETATM    7  C12 UNL     1      28.670   0.711  54.895  1.00  0.00     0.117 A 
HETATM    8  C13 UNL     1      27.407   0.108  54.967  1.00  0.00     0.033 A 
HETATM    9  C14 UNL     1      26.459  -0.030  53.973  1.00  0.00    -0.004 A 
HETATM   10  C15 UNL     1      25.321  -0.717  54.558  1.00  0.00     0.015 C 
HETATM   11  C16 UNL     1      24.226  -0.323  53.978  1.00  0.00     0.021 C 
HETATM   12  C17 UNL     1      23.407   0.407  53.061  1.00  0.00     0.026 C 
HETATM   13 CL1  UNL     1      21.626   0.205  53.096  1.00  0.00    -0.088 Cl
HETATM   14  C18 UNL     1      24.287   1.125  52.322  1.00  0.00     0.065 A 
HETATM   15  O1  UNL     1      23.237   1.686  51.620  1.00  0.00     0.000 OA
ENDROOT
BRANCH   1  16
HETATM   16  N2  UNL     1      24.760   3.053  50.216  1.00  0.00    -0.400 N 
HETATM   17  H9  UNL     1      24.051   2.930  49.450  1.00  0.00     0.154 HD
BRANCH  16  18
HETATM   18  C7  UNL     1      25.790   4.051  50.461  1.00  0.00     0.156 C 
BRANCH  18  19
HETATM   19  C6  UNL     1      25.522   5.303  49.763  1.00  0.00    -0.017 A 
HETATM   20  C2  UNL     1      26.497   5.719  48.848  1.00  0.00     0.038 A 
HETATM   21  C1  UNL     1      27.728   4.897  48.627  1.00  0.00     0.071 C 
HETATM   22  N1  UNL     1      26.342   6.871  48.148  1.00  0.00    -0.265 NA
HETATM   23  C3  UNL     1      25.263   7.655  48.298  1.00  0.00     0.117 A 
HETATM   24  C4  UNL     1      24.258   7.317  49.178  1.00  0.00     0.020 A 
HETATM   25  C5  UNL     1      24.440   6.145  49.876  1.00  0.00     0.012 A 
ENDBRANCH  18  19
ENDBRANCH  16  18
ENDBRANCH   1  16
BRANCH  15  26
HETATM   26  C19 UNL     1      22.272   2.542  52.166  1.00  0.00     0.404 C 
HETATM   27  O2  UNL     1      21.868   3.602  51.618  1.00  0.00    -0.404 OA
ENDBRANCH  15  26
TORSDOF 4
ENDMDL
MODEL 8
REMARK VINA RESULT:      -7.5      3.088      6.006
REMARK  4 active torsions:
REMARK  status: ('A' for Active; 'I' for Inactive)
REMARK    1  A    between atoms: C6_7  and  C7_8 
REMARK    2  A    between atoms: C7_8  and  N2_9 
REMARK    3  A    between atoms: N2_9  and  C8_10 
REMARK    4  A    between atoms: O1_24  and  C19_25 
ROOT
HETATM    1  C8  UNL     1      22.975   3.005  52.166  1.00  0.00     0.120 A 
HETATM    2  C9  UNL     1      24.259   3.091  52.315  1.00  0.00     0.094 C 
HETATM    3  N3  UNL     1      24.849   1.995  51.887  1.00  0.00    -0.246 NA
HETATM    4  C10 UNL     1      24.908   0.982  52.881  1.00  0.00     0.085 A 
HETATM    5  C11 UNL     1      26.058   1.588  53.501  1.00  0.00     0.148 A 
HETATM    6  N4  UNL     1      26.812   1.220  54.598  1.00  0.00    -0.271 NA
HETATM    7  C12 UNL     1      26.453   0.081  55.263  1.00  0.00     0.117 A 
HETATM    8  C13 UNL     1      25.336  -0.539  54.689  1.00  0.00     0.033 A 
HETATM    9  C14 UNL     1      24.600  -0.147  53.588  1.00  0.00    -0.004 A 
HETATM   10  C15 UNL     1      23.538  -1.122  53.411  1.00  0.00     0.015 C 
HETATM   11  C16 UNL     1      22.494  -0.543  52.896  1.00  0.00     0.021 C 
HETATM   12  C17 UNL     1      21.705   0.523  52.361  1.00  0.00     0.026 C 
HETATM   13 CL1  UNL     1      20.014   0.215  51.853  1.00  0.00    -0.088 Cl
HETATM   14  C18 UNL     1      22.536   1.594  52.370  1.00  0.00     0.065 A 
HETATM   15  O1  UNL     1      21.521   2.382  51.860  1.00  0.00     0.000 OA
ENDROOT
BRANCH   1  16
HETATM   16  N2  UNL     1      22.955   4.408  51.841  1.00  0.00    -0.400 N 
HETATM   17  H9  UNL     1      22.616   5.070  52.583  1.00  0.00     0.154 HD
BRANCH  16  18
HETATM   18  C7  UNL     1      23.449   4.606  50.487  1.00  0.00     0.156 C 
BRANCH  18  19
HETATM   19  C6  UNL     1      24.152   5.876  50.336  1.00  0.00    -0.017 A 
HETATM   20  C2  UNL     1      25.445   5.804  49.804  1.00  0.00     0.038 A 
HETATM   21  C1  UNL     1      26.035   4.482  49.424  1.00  0.00     0.071 C 
HETATM   22  N1  UNL     1      26.183   6.928  49.624  1.00  0.00    -0.265 NA
HETATM   23  C3  UNL     1      25.714   8.144  49.943  1.00  0.00     0.117 A 
HETATM   24  C4  UNL     1      24.452   8.302  50.472  1.00  0.00     0.020 A 
HETATM   25  C5  UNL     1      23.725   7.146  50.644  1.00  0.00     0.012 A 
ENDBRANCH  18  19
ENDBRANCH  16  18
ENDBRANCH   1  16
BRANCH  15  26
HETATM   26  C19 UNL     1      20.336   2.701  52.533  1.00  0.00     0.404 C 
HETATM   27  O2  UNL     1      19.611   3.697  52.268  1.00  0.00    -0.404 OA
ENDBRANCH  15  26
TORSDOF 4
ENDMDL
MODEL 9
REMARK VINA RESULT:      -7.3      9.440     11.864
REMARK  4 active torsions:
REMARK  status: ('A' for Active; 'I' for Inactive)
REMARK    1  A    between atoms: C6_7  and  C7_8 
REMARK    2  A    between atoms: C7_8  and  N2_9 
REMARK    3  A    between atoms: N2_9  and  C8_10 
REMARK    4  A    between atoms: O1_24  and  C19_25 
ROOT
HETATM    1  C8  UNL     1      29.954   8.672  48.709  1.00  0.00     0.120 A 
HETATM    2  C9  UNL     1      30.728   7.682  48.390  1.00  0.00     0.094 C 
HETATM    3  N3  UNL     1      31.989   7.994  48.603  1.00  0.00    -0.246 NA
HETATM    4  C10 UNL     1      32.578   8.672  47.504  1.00  0.00     0.085 A 
HETATM    5  C11 UNL     1      32.804   7.437  46.798  1.00  0.00     0.148 A 
HETATM    6  N4  UNL     1      33.378   7.171  45.571  1.00  0.00    -0.271 NA
HETATM    7  C12 UNL     1      33.838   8.230  44.841  1.00  0.00     0.117 A 
HETATM    8  C13 UNL     1      33.636   9.453  45.494  1.00  0.00     0.033 A 
HETATM    9  C14 UNL     1      33.057   9.689  46.725  1.00  0.00    -0.004 A 
HETATM   10  C15 UNL     1      33.077  11.125  46.941  1.00  0.00     0.015 C 
HETATM   11  C16 UNL     1      32.052  11.473  47.661  1.00  0.00     0.021 C 
HETATM   12  C17 UNL     1      30.851  11.302  48.419  1.00  0.00     0.026 C 
HETATM   13 CL1  UNL     1      30.028  12.730  49.124  1.00  0.00    -0.088 Cl
HETATM   14  C18 UNL     1      30.638   9.964  48.413  1.00  0.00     0.065 A 
HETATM   15  O1  UNL     1      29.481  10.147  49.147  1.00  0.00     0.000 OA
ENDROOT
BRANCH   1  16
HETATM   16  N2  UNL     1      28.990   7.715  49.189  1.00  0.00    -0.400 N 
HETATM   17  H9  UNL     1      28.898   7.604  50.230  1.00  0.00     0.154 HD
BRANCH  16  18
HETATM   18  C7  UNL     1      28.313   7.091  48.063  1.00  0.00     0.156 C 
BRANCH  18  19
HETATM   19  C6  UNL     1      27.343   6.088  48.488  1.00  0.00    -0.017 A 
HETATM   20  C2  UNL     1      26.002   6.492  48.496  1.00  0.00     0.038 A 
HETATM   21  C1  UNL     1      25.628   7.881  48.084  1.00  0.00     0.071 C 
HETATM   22  N1  UNL     1      25.023   5.633  48.876  1.00  0.00    -0.265 NA
HETATM   23  C3  UNL     1      25.290   4.375  49.257  1.00  0.00     0.117 A 
HETATM   24  C4  UNL     1      26.582   3.899  49.277  1.00  0.00     0.020 A 
HETATM   25  C5  UNL     1      27.557   4.790  48.888  1.00  0.00     0.012 A 
ENDBRANCH  18  19
ENDBRANCH  16  18
ENDBRANCH   1  16
BRANCH  15  26
HETATM   26  C19 UNL     1      28.335  10.809  48.689  1.00  0.00     0.404 C 
HETATM   27  O2  UNL     1      27.233  10.832  49.299  1.00  0.00    -0.404 OA
ENDBRANCH  15  26
TORSDOF 4
ENDMDL
