MODEL 1
REMARK VINA RESULT:      -7.9      0.000      0.000
REMARK  9 active torsions:
REMARK  status: ('A' for Active; 'I' for Inactive)
REMARK    1  A    between atoms: C7_7  and  N1_8 
REMARK    2  A    between atoms: N1_8  and  C8_9 
REMARK    3  A    between atoms: C11_12  and  O1_13 
REMARK    4  A    between atoms: O1_13  and  C12_14 
REMARK    5  A    between atoms: C12_14  and  C13_15 
REMARK    6  A    between atoms: C13_15  and  O2_16 
REMARK    7  A    between atoms: C15_18  and  C16_19 
REMARK    8  A    between atoms: C16_19  and  O3_20 
REMARK    9  A    between atoms: C19_23  and  O4_24 
ROOT
HETATM    1  C1  UNL     1      30.423   5.272  47.807  1.00  0.00     0.018 C 
HETATM    2  C2  UNL     1      29.269   5.536  48.052  1.00  0.00    -0.078 C 
HETATM    3  C3  UNL     1      27.888   5.863  48.368  1.00  0.00     0.019 A 
HETATM    4  C4  UNL     1      27.266   6.922  47.732  1.00  0.00     0.021 A 
HETATM    5  C5  UNL     1      25.961   7.162  48.091  1.00  0.00     0.004 A 
HETATM    6  C6  UNL     1      25.288   6.411  49.021  1.00  0.00     0.029 A 
HETATM    7  C7  UNL     1      25.915   5.339  49.665  1.00  0.00     0.035 A 
HETATM    8  C22 UNL     1      27.215   5.111  49.299  1.00  0.00     0.050 A 
ENDROOT
BRANCH   7   9
HETATM    9  N1  UNL     1      25.213   4.572  50.618  1.00  0.00    -0.341 N 
HETATM   10  H5  UNL     1      24.969   5.053  51.511  1.00  0.00     0.167 HD
BRANCH   9  11
HETATM   11  C8  UNL     1      24.921   3.214  50.231  1.00  0.00     0.129 C 
HETATM   12  C9  UNL     1      25.804   2.493  51.011  1.00  0.00     0.053 C 
HETATM   13  C10 UNL     1      25.527   1.596  52.009  1.00  0.00     0.041 C 
HETATM   14  C11 UNL     1      25.076   0.472  52.649  1.00  0.00     0.077 C 
HETATM   15  C15 UNL     1      23.704   0.304  52.841  1.00  0.00     0.003 C 
HETATM   16  C18 UNL     1      22.853   1.016  51.978  1.00  0.00     0.070 C 
HETATM   17  C19 UNL     1      22.035   1.427  50.935  1.00  0.00     0.165 C 
HETATM   18  N2  UNL     1      22.551   1.996  49.852  1.00  0.00    -0.218 NA
HETATM   19  C21 UNL     1      22.703   3.328  49.703  1.00  0.00     0.238 C 
HETATM   20  N3  UNL     1      23.954   3.032  49.300  1.00  0.00    -0.224 NA
BRANCH  14  21
HETATM   21  O1  UNL     1      25.792  -0.562  53.157  1.00  0.00    -0.348 OA
BRANCH  21  22
HETATM   22  C12 UNL     1      26.820  -1.309  52.550  1.00  0.00     0.201 C 
BRANCH  22  23
HETATM   23  C13 UNL     1      28.143  -0.908  53.148  1.00  0.00     0.193 C 
BRANCH  23  24
HETATM   24  O2  UNL     1      28.099  -0.649  54.501  1.00  0.00    -0.394 OA
HETATM   25  C14 UNL     1      28.753   0.515  54.817  1.00  0.00     0.201 C 
ENDBRANCH  23  24
ENDBRANCH  22  23
ENDBRANCH  21  22
ENDBRANCH  14  21
BRANCH  15  26
HETATM   26  C16 UNL     1      23.125  -0.567  53.887  1.00  0.00     0.208 C 
BRANCH  26  27
HETATM   27  O3  UNL     1      22.136  -1.413  53.481  1.00  0.00    -0.391 OA
HETATM   28  C17 UNL     1      21.014  -1.486  54.260  1.00  0.00     0.201 C 
ENDBRANCH  26  27
ENDBRANCH  15  26
BRANCH  17  29
HETATM   29  O4  UNL     1      20.740   1.095  51.348  1.00  0.00    -0.339 OA
HETATM   30  C20 UNL     1      20.165   1.848  52.408  1.00  0.00     0.211 C 
ENDBRANCH  17  29
ENDBRANCH   9  11
ENDBRANCH   7   9
TORSDOF 9
ENDMDL
MODEL 2
REMARK VINA RESULT:      -7.5      1.093      2.130
REMARK  9 active torsions:
REMARK  status: ('A' for Active; 'I' for Inactive)
REMARK    1  A    between atoms: C7_7  and  N1_8 
REMARK    2  A    between atoms: N1_8  and  C8_9 
REMARK    3  A    between atoms: C11_12  and  O1_13 
REMARK    4  A    between atoms: O1_13  and  C12_14 
REMARK    5  A    between atoms: C12_14  and  C13_15 
REMARK    6  A    between atoms: C13_15  and  O2_16 
REMARK    7  A    between atoms: C15_18  and  C16_19 
REMARK    8  A    between atoms: C16_19  and  O3_20 
REMARK    9  A    between atoms: C19_23  and  O4_24 
ROOT
HETATM    1  C1  UNL     1      24.449   9.688  47.125  1.00  0.00     0.018 C 
HETATM    2  C2  UNL     1      25.144   8.781  47.518  1.00  0.00    -0.078 C 
HETATM    3  C3  UNL     1      25.965   7.674  47.979  1.00  0.00     0.019 A 
HETATM    4  C4  UNL     1      27.221   7.472  47.436  1.00  0.00     0.021 A 
HETATM    5  C5  UNL     1      27.930   6.402  47.929  1.00  0.00     0.004 A 
HETATM    6  C6  UNL     1      27.447   5.566  48.904  1.00  0.00     0.029 A 
HETATM    7  C7  UNL     1      26.178   5.769  49.455  1.00  0.00     0.035 A 
HETATM    8  C22 UNL     1      25.481   6.838  48.955  1.00  0.00     0.050 A 
ENDROOT
BRANCH   7   9
HETATM    9  N1  UNL     1      25.692   4.905  50.459  1.00  0.00    -0.341 N 
HETATM   10  H5  UNL     1      25.580   5.318  51.410  1.00  0.00     0.167 HD
BRANCH   9  11
HETATM   11  C8  UNL     1      25.412   3.556  50.037  1.00  0.00     0.129 C 
HETATM   12  C9  UNL     1      26.384   2.835  50.702  1.00  0.00     0.053 C 
HETATM   13  C10 UNL     1      26.226   1.885  51.678  1.00  0.00     0.041 C 
HETATM   14  C11 UNL     1      25.871   0.719  52.302  1.00  0.00     0.077 C 
HETATM   15  C15 UNL     1      24.528   0.493  52.605  1.00  0.00     0.003 C 
HETATM   16  C18 UNL     1      23.580   1.209  51.853  1.00  0.00     0.070 C 
HETATM   17  C19 UNL     1      22.660   1.634  50.906  1.00  0.00     0.165 C 
HETATM   18  N2  UNL     1      23.060   2.268  49.809  1.00  0.00    -0.218 NA
HETATM   19  C21 UNL     1      23.153   3.610  49.709  1.00  0.00     0.238 C 
HETATM   20  N3  UNL     1      24.373   3.378  49.186  1.00  0.00    -0.224 NA
BRANCH  14  21
HETATM   21  O1  UNL     1      26.663  -0.309  52.697  1.00  0.00    -0.348 OA
BRANCH  21  22
HETATM   22  C12 UNL     1      27.988  -0.274  53.170  1.00  0.00     0.201 C 
BRANCH  22  23
HETATM   23  C13 UNL     1      27.977  -0.043  54.659  1.00  0.00     0.193 C 
BRANCH  23  24
HETATM   24  O2  UNL     1      28.499   1.171  55.050  1.00  0.00    -0.394 OA
HETATM   25  C14 UNL     1      29.085   1.833  54.000  1.00  0.00     0.201 C 
ENDBRANCH  23  24
ENDBRANCH  22  23
ENDBRANCH  21  22
ENDBRANCH  14  21
BRANCH  15  26
HETATM   26  C16 UNL     1      24.072  -0.444  53.656  1.00  0.00     0.208 C 
BRANCH  26  27
HETATM   27  O3  UNL     1      22.852  -0.180  54.204  1.00  0.00    -0.391 OA
HETATM   28  C17 UNL     1      22.028  -1.245  54.443  1.00  0.00     0.201 C 
ENDBRANCH  26  27
ENDBRANCH  15  26
BRANCH  17  29
HETATM   29  O4  UNL     1      21.419   1.238  51.414  1.00  0.00    -0.339 OA
HETATM   30  C20 UNL     1      20.830   2.034  52.433  1.00  0.00     0.211 C 
ENDBRANCH  17  29
ENDBRANCH   9  11
ENDBRANCH   7   9
TORSDOF 9
ENDMDL
MODEL 3
REMARK VINA RESULT:      -6.9      2.869      5.608
REMARK  9 active torsions:
REMARK  status: ('A' for Active; 'I' for Inactive)
REMARK    1  A    between atoms: C7_7  and  N1_8 
REMARK    2  A    between atoms: N1_8  and  C8_9 
REMARK    3  A    between atoms: C11_12  and  O1_13 
REMARK    4  A    between atoms: O1_13  and  C12_14 
REMARK    5  A    between atoms: C12_14  and  C13_15 
REMARK    6  A    between atoms: C13_15  and  O2_16 
REMARK    7  A    between atoms: C15_18  and  C16_19 
REMARK    8  A    between atoms: C16_19  and  O3_20 
REMARK    9  A    between atoms: C19_23  and  O4_24 
ROOT
HETATM    1  C1  UNL     1      28.373  -2.835  52.912  1.00  0.00     0.018 C 
HETATM    2  C2  UNL     1      28.377  -1.642  53.103  1.00  0.00    -0.078 C 
HETATM    3  C3  UNL     1      28.368  -0.209  53.354  1.00  0.00     0.019 A 
HETATM    4  C4  UNL     1      29.506   0.416  53.830  1.00  0.00     0.021 A 
HETATM    5  C5  UNL     1      29.410   1.771  54.040  1.00  0.00     0.004 A 
HETATM    6  C6  UNL     1      28.266   2.489  53.799  1.00  0.00     0.029 A 
HETATM    7  C7  UNL     1      27.115   1.859  53.317  1.00  0.00     0.035 A 
HETATM    8  C22 UNL     1      27.223   0.509  53.113  1.00  0.00     0.050 A 
ENDROOT
BRANCH   7   9
HETATM    9  N1  UNL     1      25.944   2.607  53.070  1.00  0.00    -0.341 N 
HETATM   10  H5  UNL     1      25.765   3.409  53.713  1.00  0.00     0.167 HD
BRANCH   9  11
HETATM   11  C8  UNL     1      25.145   2.164  51.956  1.00  0.00     0.129 C 
HETATM   12  C9  UNL     1      24.374   1.171  52.527  1.00  0.00     0.053 C 
HETATM   13  C10 UNL     1      23.014   1.135  52.697  1.00  0.00     0.041 C 
HETATM   14  C11 UNL     1      21.676   1.091  52.409  1.00  0.00     0.077 C 
HETATM   15  C15 UNL     1      21.052   2.233  51.905  1.00  0.00     0.003 C 
HETATM   16  C18 UNL     1      21.879   3.182  51.279  1.00  0.00     0.070 C 
HETATM   17  C19 UNL     1      22.617   3.933  50.375  1.00  0.00     0.165 C 
HETATM   18  N2  UNL     1      23.864   3.593  50.069  1.00  0.00    -0.218 NA
HETATM   19  C21 UNL     1      24.951   4.068  50.711  1.00  0.00     0.238 C 
HETATM   20  N3  UNL     1      25.347   2.781  50.767  1.00  0.00    -0.224 NA
BRANCH  14  21
HETATM   21  O1  UNL     1      20.811   0.055  52.546  1.00  0.00    -0.348 OA
BRANCH  21  22
HETATM   22  C12 UNL     1      20.245  -0.477  53.720  1.00  0.00     0.201 C 
BRANCH  22  23
HETATM   23  C13 UNL     1      21.186  -1.498  54.304  1.00  0.00     0.193 C 
BRANCH  23  24
HETATM   24  O2  UNL     1      21.862  -1.071  55.427  1.00  0.00    -0.394 OA
HETATM   25  C14 UNL     1      23.170  -1.486  55.420  1.00  0.00     0.201 C 
ENDBRANCH  23  24
ENDBRANCH  22  23
ENDBRANCH  21  22
ENDBRANCH  14  21
BRANCH  15  26
HETATM   26  C16 UNL     1      19.597   2.480  52.001  1.00  0.00     0.208 C 
BRANCH  26  27
HETATM   27  O3  UNL     1      18.847   2.053  50.945  1.00  0.00    -0.391 OA
HETATM   28  C17 UNL     1      17.656   1.442  51.229  1.00  0.00     0.201 C 
ENDBRANCH  26  27
ENDBRANCH  15  26
BRANCH  17  29
HETATM   29  O4  UNL     1      21.756   4.963  49.984  1.00  0.00    -0.339 OA
HETATM   30  C20 UNL     1      22.164   6.303  50.227  1.00  0.00     0.211 C 
ENDBRANCH  17  29
ENDBRANCH   9  11
ENDBRANCH   7   9
TORSDOF 9
ENDMDL
MODEL 4
REMARK VINA RESULT:      -6.8      6.359      9.936
REMARK  9 active torsions:
REMARK  status: ('A' for Active; 'I' for Inactive)
REMARK    1  A    between atoms: C7_7  and  N1_8 
REMARK    2  A    between atoms: N1_8  and  C8_9 
REMARK    3  A    between atoms: C11_12  and  O1_13 
REMARK    4  A    between atoms: O1_13  and  C12_14 
REMARK    5  A    between atoms: C12_14  and  C13_15 
REMARK    6  A    between atoms: C13_15  and  O2_16 
REMARK    7  A    between atoms: C15_18  and  C16_19 
REMARK    8  A    between atoms: C16_19  and  O3_20 
REMARK    9  A    between atoms: C19_23  and  O4_24 
ROOT
HETATM    1  C1  UNL     1      31.965   0.229  46.659  1.00  0.00     0.018 C 
HETATM    2  C2  UNL     1      32.484   1.317  46.744  1.00  0.00    -0.078 C 
HETATM    3  C3  UNL     1      33.115   2.621  46.869  1.00  0.00     0.019 A 
HETATM    4  C4  UNL     1      34.331   2.863  46.255  1.00  0.00     0.021 A 
HETATM    5  C5  UNL     1      34.855   4.121  46.425  1.00  0.00     0.004 A 
HETATM    6  C6  UNL     1      34.233   5.103  47.154  1.00  0.00     0.029 A 
HETATM    7  C7  UNL     1      33.003   4.860  47.775  1.00  0.00     0.035 A 
HETATM    8  C22 UNL     1      32.491   3.603  47.599  1.00  0.00     0.050 A 
ENDROOT
BRANCH   7   9
HETATM    9  N1  UNL     1      32.370   5.878  48.520  1.00  0.00    -0.341 N 
HETATM   10  H5  UNL     1      32.523   5.858  49.552  1.00  0.00     0.167 HD
BRANCH   9  11
HETATM   11  C8  UNL     1      31.592   6.818  47.754  1.00  0.00     0.129 C 
HETATM   12  C9  UNL     1      30.330   6.259  47.802  1.00  0.00     0.053 C 
HETATM   13  C10 UNL     1      29.194   6.761  48.382  1.00  0.00     0.041 C 
HETATM   14  C11 UNL     1      28.120   7.575  48.631  1.00  0.00     0.077 C 
HETATM   15  C15 UNL     1      28.336   8.822  49.219  1.00  0.00     0.003 C 
HETATM   16  C18 UNL     1      29.623   9.370  49.085  1.00  0.00     0.070 C 
HETATM   17  C19 UNL     1      30.755  10.056  48.666  1.00  0.00     0.165 C 
HETATM   18  N2  UNL     1      31.597   9.509  47.797  1.00  0.00    -0.218 NA
HETATM   19  C21 UNL     1      32.679   8.785  48.153  1.00  0.00     0.238 C 
HETATM   20  N3  UNL     1      32.245   7.890  47.244  1.00  0.00    -0.224 NA
BRANCH  14  21
HETATM   21  O1  UNL     1      26.806   7.347  48.385  1.00  0.00    -0.348 OA
BRANCH  21  22
HETATM   22  C12 UNL     1      26.043   6.194  48.647  1.00  0.00     0.201 C 
BRANCH  22  23
HETATM   23  C13 UNL     1      25.487   6.276  50.045  1.00  0.00     0.193 C 
BRANCH  23  24
HETATM   24  O2  UNL     1      24.146   6.586  50.106  1.00  0.00    -0.394 OA
HETATM   25  C14 UNL     1      23.938   7.943  50.089  1.00  0.00     0.201 C 
ENDBRANCH  23  24
ENDBRANCH  22  23
ENDBRANCH  21  22
ENDBRANCH  14  21
BRANCH  15  26
HETATM   26  C16 UNL     1      27.295   9.569  49.958  1.00  0.00     0.208 C 
BRANCH  26  27
HETATM   27  O3  UNL     1      26.967  10.793  49.455  1.00  0.00    -0.391 OA
HETATM   28  C17 UNL     1      26.095  10.825  48.402  1.00  0.00     0.201 C 
ENDBRANCH  26  27
ENDBRANCH  15  26
BRANCH  17  29
HETATM   29  O4  UNL     1      30.701  11.277  49.347  1.00  0.00    -0.339 OA
HETATM   30  C20 UNL     1      30.046  12.366  48.711  1.00  0.00     0.211 C 
ENDBRANCH  17  29
ENDBRANCH   9  11
ENDBRANCH   7   9
TORSDOF 9
ENDMDL
MODEL 5
REMARK VINA RESULT:      -6.8      3.522      7.855
REMARK  9 active torsions:
REMARK  status: ('A' for Active; 'I' for Inactive)
REMARK    1  A    between atoms: C7_7  and  N1_8 
REMARK    2  A    between atoms: N1_8  and  C8_9 
REMARK    3  A    between atoms: C11_12  and  O1_13 
REMARK    4  A    between atoms: O1_13  and  C12_14 
REMARK    5  A    between atoms: C12_14  and  C13_15 
REMARK    6  A    between atoms: C13_15  and  O2_16 
REMARK    7  A    between atoms: C15_18  and  C16_19 
REMARK    8  A    between atoms: C16_19  and  O3_20 
REMARK    9  A    between atoms: C19_23  and  O4_24 
ROOT
HETATM    1  C1  UNL     1      21.072  -1.360  54.336  1.00  0.00     0.018 C 
HETATM    2  C2  UNL     1      22.095  -0.906  53.882  1.00  0.00    -0.078 C 
HETATM    3  C3  UNL     1      23.323  -0.339  53.349  1.00  0.00     0.019 A 
HETATM    4  C4  UNL     1      24.549  -0.783  53.813  1.00  0.00     0.021 A 
HETATM    5  C5  UNL     1      25.658  -0.194  53.255  1.00  0.00     0.004 A 
HETATM    6  C6  UNL     1      25.586   0.779  52.291  1.00  0.00     0.029 A 
HETATM    7  C7  UNL     1      24.348   1.229  51.819  1.00  0.00     0.035 A 
HETATM    8  C22 UNL     1      23.251   0.635  52.383  1.00  0.00     0.050 A 
ENDROOT
BRANCH   7   9
HETATM    9  N1  UNL     1      24.286   2.229  50.826  1.00  0.00    -0.341 N 
HETATM   10  H5  UNL     1      23.888   1.942  49.905  1.00  0.00     0.167 HD
BRANCH   9  11
HETATM   11  C8  UNL     1      24.785   3.524  51.214  1.00  0.00     0.129 C 
HETATM   12  C9  UNL     1      25.955   3.616  50.486  1.00  0.00     0.053 C 
HETATM   13  C10 UNL     1      26.274   4.498  49.487  1.00  0.00     0.041 C 
HETATM   14  C11 UNL     1      26.558   5.671  48.839  1.00  0.00     0.077 C 
HETATM   15  C15 UNL     1      25.524   6.573  48.584  1.00  0.00     0.003 C 
HETATM   16  C18 UNL     1      24.381   6.473  49.396  1.00  0.00     0.070 C 
HETATM   17  C19 UNL     1      23.426   6.606  50.394  1.00  0.00     0.165 C 
HETATM   18  N2  UNL     1      23.485   5.864  51.494  1.00  0.00    -0.218 NA
HETATM   19  C21 UNL     1      22.860   4.677  51.634  1.00  0.00     0.238 C 
HETATM   20  N3  UNL     1      24.043   4.231  52.100  1.00  0.00    -0.224 NA
BRANCH  14  21
HETATM   21  O1  UNL     1      27.752   6.120  48.379  1.00  0.00    -0.348 OA
BRANCH  21  22
HETATM   22  C12 UNL     1      28.926   5.392  48.106  1.00  0.00     0.201 C 
BRANCH  22  23
HETATM   23  C13 UNL     1      30.122   6.213  48.511  1.00  0.00     0.193 C 
BRANCH  23  24
HETATM   24  O2  UNL     1      31.220   5.468  48.887  1.00  0.00    -0.394 OA
HETATM   25  C14 UNL     1      31.719   4.736  47.839  1.00  0.00     0.201 C 
ENDBRANCH  23  24
ENDBRANCH  22  23
ENDBRANCH  21  22
ENDBRANCH  14  21
BRANCH  15  26
HETATM   26  C16 UNL     1      25.579   7.601  47.522  1.00  0.00     0.208 C 
BRANCH  26  27
HETATM   27  O3  UNL     1      24.426   7.802  46.823  1.00  0.00    -0.391 OA
HETATM   28  C17 UNL     1      23.884   9.058  46.856  1.00  0.00     0.201 C 
ENDBRANCH  26  27
ENDBRANCH  15  26
BRANCH  17  29
HETATM   29  O4  UNL     1      22.558   7.597  49.923  1.00  0.00    -0.339 OA
HETATM   30  C20 UNL     1      21.195   7.248  49.720  1.00  0.00     0.211 C 
ENDBRANCH  17  29
ENDBRANCH   9  11
ENDBRANCH   7   9
TORSDOF 9
ENDMDL
MODEL 6
REMARK VINA RESULT:      -6.7      3.567      7.507
REMARK  9 active torsions:
REMARK  status: ('A' for Active; 'I' for Inactive)
REMARK    1  A    between atoms: C7_7  and  N1_8 
REMARK    2  A    between atoms: N1_8  and  C8_9 
REMARK    3  A    between atoms: C11_12  and  O1_13 
REMARK    4  A    between atoms: O1_13  and  C12_14 
REMARK    5  A    between atoms: C12_14  and  C13_15 
REMARK    6  A    between atoms: C13_15  and  O2_16 
REMARK    7  A    between atoms: C15_18  and  C16_19 
REMARK    8  A    between atoms: C16_19  and  O3_20 
REMARK    9  A    between atoms: C19_23  and  O4_24 
ROOT
HETATM    1  C1  UNL     1      29.082  -0.908  53.409  1.00  0.00     0.018 C 
HETATM    2  C2  UNL     1      27.930  -0.579  53.255  1.00  0.00    -0.078 C 
HETATM    3  C3  UNL     1      26.543  -0.196  53.049  1.00  0.00     0.019 A 
HETATM    4  C4  UNL     1      25.543  -0.785  53.802  1.00  0.00     0.021 A 
HETATM    5  C5  UNL     1      24.261  -0.364  53.541  1.00  0.00     0.004 A 
HETATM    6  C6  UNL     1      23.958   0.584  52.597  1.00  0.00     0.029 A 
HETATM    7  C7  UNL     1      24.967   1.181  51.835  1.00  0.00     0.035 A 
HETATM    8  C22 UNL     1      26.241   0.754  52.103  1.00  0.00     0.050 A 
ENDROOT
BRANCH   7   9
HETATM    9  N1  UNL     1      24.645   2.157  50.869  1.00  0.00    -0.341 N 
HETATM   10  H5  UNL     1      24.187   1.811  49.998  1.00  0.00     0.167 HD
BRANCH   9  11
HETATM   11  C8  UNL     1      24.993   3.513  51.212  1.00  0.00     0.129 C 
HETATM   12  C9  UNL     1      26.158   3.705  50.496  1.00  0.00     0.053 C 
HETATM   13  C10 UNL     1      26.395   4.579  49.467  1.00  0.00     0.041 C 
HETATM   14  C11 UNL     1      26.560   5.751  48.778  1.00  0.00     0.077 C 
HETATM   15  C15 UNL     1      25.438   6.525  48.475  1.00  0.00     0.003 C 
HETATM   16  C18 UNL     1      24.301   6.330  49.278  1.00  0.00     0.070 C 
HETATM   17  C19 UNL     1      23.320   6.395  50.258  1.00  0.00     0.165 C 
HETATM   18  N2  UNL     1      23.443   5.706  51.386  1.00  0.00    -0.218 NA
HETATM   19  C21 UNL     1      22.948   4.463  51.565  1.00  0.00     0.238 C 
HETATM   20  N3  UNL     1      24.165   4.166  52.062  1.00  0.00    -0.224 NA
BRANCH  14  21
HETATM   21  O1  UNL     1      27.706   6.311  48.315  1.00  0.00    -0.348 OA
BRANCH  21  22
HETATM   22  C12 UNL     1      28.962   5.712  48.107  1.00  0.00     0.201 C 
BRANCH  22  23
HETATM   23  C13 UNL     1      30.045   6.712  48.416  1.00  0.00     0.193 C 
BRANCH  23  24
HETATM   24  O2  UNL     1      31.325   6.253  48.189  1.00  0.00    -0.394 OA
HETATM   25  C14 UNL     1      31.323   4.987  47.660  1.00  0.00     0.201 C 
ENDBRANCH  23  24
ENDBRANCH  22  23
ENDBRANCH  21  22
ENDBRANCH  14  21
BRANCH  15  26
HETATM   26  C16 UNL     1      25.398   7.513  47.375  1.00  0.00     0.208 C 
BRANCH  26  27
HETATM   27  O3  UNL     1      24.494   8.524  47.512  1.00  0.00    -0.391 OA
HETATM   28  C17 UNL     1      24.965   9.731  47.951  1.00  0.00     0.201 C 
ENDBRANCH  26  27
ENDBRANCH  15  26
BRANCH  17  29
HETATM   29  O4  UNL     1      22.358   7.267  49.739  1.00  0.00    -0.339 OA
HETATM   30  C20 UNL     1      21.223   7.562  50.543  1.00  0.00     0.211 C 
ENDBRANCH  17  29
ENDBRANCH   9  11
ENDBRANCH   7   9
TORSDOF 9
ENDMDL
MODEL 7
REMARK VINA RESULT:      -6.6      3.973      8.180
REMARK  9 active torsions:
REMARK  status: ('A' for Active; 'I' for Inactive)
REMARK    1  A    between atoms: C7_7  and  N1_8 
REMARK    2  A    between atoms: N1_8  and  C8_9 
REMARK    3  A    between atoms: C11_12  and  O1_13 
REMARK    4  A    between atoms: O1_13  and  C12_14 
REMARK    5  A    between atoms: C12_14  and  C13_15 
REMARK    6  A    between atoms: C13_15  and  O2_16 
REMARK    7  A    between atoms: C15_18  and  C16_19 
REMARK    8  A    between atoms: C16_19  and  O3_20 
REMARK    9  A    between atoms: C19_23  and  O4_24 
ROOT
HETATM    1  C1  UNL     1      25.480  -0.238  54.146  1.00  0.00     0.018 C 
HETATM    2  C2  UNL     1      24.821   0.374  53.339  1.00  0.00    -0.078 C 
HETATM    3  C3  UNL     1      24.035   1.095  52.351  1.00  0.00     0.019 A 
HETATM    4  C4  UNL     1      22.656   0.988  52.353  1.00  0.00     0.021 A 
HETATM    5  C5  UNL     1      21.991   1.703  51.385  1.00  0.00     0.004 A 
HETATM    6  C6  UNL     1      22.631   2.486  50.458  1.00  0.00     0.029 A 
HETATM    7  C7  UNL     1      24.025   2.596  50.455  1.00  0.00     0.035 A 
HETATM    8  C22 UNL     1      24.676   1.880  51.424  1.00  0.00     0.050 A 
ENDROOT
BRANCH   7   9
HETATM    9  N1  UNL     1      24.672   3.407  49.499  1.00  0.00    -0.341 N 
HETATM   10  H5  UNL     1      24.490   3.176  48.498  1.00  0.00     0.167 HD
BRANCH   9  11
HETATM   11  C8  UNL     1      25.506   4.455  50.032  1.00  0.00     0.129 C 
HETATM   12  C9  UNL     1      26.761   4.078  49.597  1.00  0.00     0.053 C 
HETATM   13  C10 UNL     1      27.596   4.729  48.726  1.00  0.00     0.041 C 
HETATM   14  C11 UNL     1      28.426   5.683  48.199  1.00  0.00     0.077 C 
HETATM   15  C15 UNL     1      27.877   6.881  47.741  1.00  0.00     0.003 C 
HETATM   16  C18 UNL     1      26.624   7.245  48.265  1.00  0.00     0.070 C 
HETATM   17  C19 UNL     1      25.584   7.769  49.019  1.00  0.00     0.165 C 
HETATM   18  N2  UNL     1      25.120   7.118  50.079  1.00  0.00    -0.218 NA
HETATM   19  C21 UNL     1      24.091   6.246  50.034  1.00  0.00     0.238 C 
HETATM   20  N3  UNL     1      24.892   5.429  50.745  1.00  0.00    -0.224 NA
BRANCH  14  21
HETATM   21  O1  UNL     1      29.772   5.644  48.041  1.00  0.00    -0.348 OA
BRANCH  21  22
HETATM   22  C12 UNL     1      30.778   6.134  48.896  1.00  0.00     0.201 C 
BRANCH  22  23
HETATM   23  C13 UNL     1      32.094   5.502  48.525  1.00  0.00     0.193 C 
BRANCH  23  24
HETATM   24  O2  UNL     1      32.010   4.165  48.202  1.00  0.00    -0.394 OA
HETATM   25  C14 UNL     1      32.575   3.901  46.980  1.00  0.00     0.201 C 
ENDBRANCH  23  24
ENDBRANCH  22  23
ENDBRANCH  21  22
ENDBRANCH  14  21
BRANCH  15  26
HETATM   26  C16 UNL     1      28.541   7.760  46.754  1.00  0.00     0.208 C 
BRANCH  26  27
HETATM   27  O3  UNL     1      27.985   8.993  46.582  1.00  0.00    -0.391 OA
HETATM   28  C17 UNL     1      28.676  10.066  47.076  1.00  0.00     0.201 C 
ENDBRANCH  26  27
ENDBRANCH  15  26
BRANCH  17  29
HETATM   29  O4  UNL     1      25.267   8.979  48.393  1.00  0.00    -0.339 OA
HETATM   30  C20 UNL     1      23.894   9.276  48.174  1.00  0.00     0.211 C 
ENDBRANCH  17  29
ENDBRANCH   9  11
ENDBRANCH   7   9
TORSDOF 9
ENDMDL
MODEL 8
REMARK VINA RESULT:      -6.5      2.795      3.959
REMARK  9 active torsions:
REMARK  status: ('A' for Active; 'I' for Inactive)
REMARK    1  A    between atoms: C7_7  and  N1_8 
REMARK    2  A    between atoms: N1_8  and  C8_9 
REMARK    3  A    between atoms: C11_12  and  O1_13 
REMARK    4  A    between atoms: O1_13  and  C12_14 
REMARK    5  A    between atoms: C12_14  and  C13_15 
REMARK    6  A    between atoms: C13_15  and  O2_16 
REMARK    7  A    between atoms: C15_18  and  C16_19 
REMARK    8  A    between atoms: C16_19  and  O3_20 
REMARK    9  A    between atoms: C19_23  and  O4_24 
ROOT
HETATM    1  C1  UNL     1      19.077   9.384  49.184  1.00  0.00     0.018 C 
HETATM    2  C2  UNL     1      20.117   8.851  49.494  1.00  0.00    -0.078 C 
HETATM    3  C3  UNL     1      21.363   8.192  49.849  1.00  0.00     0.019 A 
HETATM    4  C4  UNL     1      22.571   8.739  49.454  1.00  0.00     0.021 A 
HETATM    5  C5  UNL     1      23.700   8.052  49.832  1.00  0.00     0.004 A 
HETATM    6  C6  UNL     1      23.662   6.889  50.560  1.00  0.00     0.029 A 
HETATM    7  C7  UNL     1      22.442   6.335  50.961  1.00  0.00     0.035 A 
HETATM    8  C22 UNL     1      21.325   7.029  50.577  1.00  0.00     0.050 A 
ENDROOT
BRANCH   7   9
HETATM    9  N1  UNL     1      22.416   5.141  51.711  1.00  0.00    -0.341 N 
HETATM   10  H5  UNL     1      22.194   5.237  52.726  1.00  0.00     0.167 HD
BRANCH   9  11
HETATM   11  C8  UNL     1      22.700   3.936  50.973  1.00  0.00     0.129 C 
HETATM   12  C9  UNL     1      23.823   3.457  51.620  1.00  0.00     0.053 C 
HETATM   13  C10 UNL     1      23.968   2.295  52.334  1.00  0.00     0.041 C 
HETATM   14  C11 UNL     1      24.038   0.960  52.631  1.00  0.00     0.077 C 
HETATM   15  C15 UNL     1      22.864   0.207  52.657  1.00  0.00     0.003 C 
HETATM   16  C18 UNL     1      21.772   0.713  51.930  1.00  0.00     0.070 C 
HETATM   17  C19 UNL     1      20.830   1.017  50.957  1.00  0.00     0.165 C 
HETATM   18  N2  UNL     1      21.037   2.009  50.099  1.00  0.00    -0.218 NA
HETATM   19  C21 UNL     1      20.620   3.277  50.302  1.00  0.00     0.238 C 
HETATM   20  N3  UNL     1      21.871   3.630  49.946  1.00  0.00    -0.224 NA
BRANCH  14  21
HETATM   21  O1  UNL     1      25.131   0.211  52.923  1.00  0.00    -0.348 OA
BRANCH  21  22
HETATM   22  C12 UNL     1      26.481   0.604  52.989  1.00  0.00     0.201 C 
BRANCH  22  23
HETATM   23  C13 UNL     1      27.353  -0.625  53.010  1.00  0.00     0.193 C 
BRANCH  23  24
HETATM   24  O2  UNL     1      27.929  -0.892  54.233  1.00  0.00    -0.394 OA
HETATM   25  C14 UNL     1      28.443   0.241  54.811  1.00  0.00     0.201 C 
ENDBRANCH  23  24
ENDBRANCH  22  23
ENDBRANCH  21  22
ENDBRANCH  14  21
BRANCH  15  26
HETATM   26  C16 UNL     1      22.723  -1.065  53.397  1.00  0.00     0.208 C 
BRANCH  26  27
HETATM   27  O3  UNL     1      22.418  -0.956  54.721  1.00  0.00    -0.391 OA
HETATM   28  C17 UNL     1      23.363  -1.375  55.618  1.00  0.00     0.201 C 
ENDBRANCH  26  27
ENDBRANCH  15  26
BRANCH  17  29
HETATM   29  O4  UNL     1      19.799   0.094  51.161  1.00  0.00    -0.339 OA
HETATM   30  C20 UNL     1      19.105   0.133  52.400  1.00  0.00     0.211 C 
ENDBRANCH  17  29
ENDBRANCH   9  11
ENDBRANCH   7   9
TORSDOF 9
ENDMDL
MODEL 9
REMARK VINA RESULT:      -6.3      3.682      7.513
REMARK  9 active torsions:
REMARK  status: ('A' for Active; 'I' for Inactive)
REMARK    1  A    between atoms: C7_7  and  N1_8 
REMARK    2  A    between atoms: N1_8  and  C8_9 
REMARK    3  A    between atoms: C11_12  and  O1_13 
REMARK    4  A    between atoms: O1_13  and  C12_14 
REMARK    5  A    between atoms: C12_14  and  C13_15 
REMARK    6  A    between atoms: C13_15  and  O2_16 
REMARK    7  A    between atoms: C15_18  and  C16_19 
REMARK    8  A    between atoms: C16_19  and  O3_20 
REMARK    9  A    between atoms: C19_23  and  O4_24 
ROOT
HETATM    1  C1  UNL     1      28.361   0.142  54.726  1.00  0.00     0.018 C 
HETATM    2  C2  UNL     1      27.230   0.193  54.303  1.00  0.00    -0.078 C 
HETATM    3  C3  UNL     1      25.877   0.242  53.773  1.00  0.00     0.019 A 
HETATM    4  C4  UNL     1      24.893  -0.566  54.315  1.00  0.00     0.021 A 
HETATM    5  C5  UNL     1      23.643  -0.456  53.754  1.00  0.00     0.004 A 
HETATM    6  C6  UNL     1      23.356   0.396  52.718  1.00  0.00     0.029 A 
HETATM    7  C7  UNL     1      24.349   1.214  52.170  1.00  0.00     0.035 A 
HETATM    8  C22 UNL     1      25.591   1.096  52.737  1.00  0.00     0.050 A 
ENDROOT
BRANCH   7   9
HETATM    9  N1  UNL     1      24.043   2.089  51.106  1.00  0.00    -0.341 N 
HETATM   10  H5  UNL     1      23.746   1.643  50.211  1.00  0.00     0.167 HD
BRANCH   9  11
HETATM   11  C8  UNL     1      24.180   3.494  51.397  1.00  0.00     0.129 C 
HETATM   12  C9  UNL     1      25.194   3.871  50.538  1.00  0.00     0.053 C 
HETATM   13  C10 UNL     1      25.140   4.745  49.483  1.00  0.00     0.041 C 
HETATM   14  C11 UNL     1      25.005   5.908  48.773  1.00  0.00     0.077 C 
HETATM   15  C15 UNL     1      23.734   6.461  48.610  1.00  0.00     0.003 C 
HETATM   16  C18 UNL     1      22.757   6.088  49.551  1.00  0.00     0.070 C 
HETATM   17  C19 UNL     1      21.910   6.005  50.647  1.00  0.00     0.165 C 
HETATM   18  N2  UNL     1      22.293   5.379  51.754  1.00  0.00    -0.218 NA
HETATM   19  C21 UNL     1      22.056   4.074  52.000  1.00  0.00     0.238 C 
HETATM   20  N3  UNL     1      23.359   4.013  52.340  1.00  0.00    -0.224 NA
BRANCH  14  21
HETATM   21  O1  UNL     1      25.965   6.650  48.167  1.00  0.00    -0.348 OA
BRANCH  21  22
HETATM   22  C12 UNL     1      27.363   6.585  48.319  1.00  0.00     0.201 C 
BRANCH  22  23
HETATM   23  C13 UNL     1      27.906   7.978  48.504  1.00  0.00     0.193 C 
BRANCH  23  24
HETATM   24  O2  UNL     1      29.198   8.024  48.982  1.00  0.00    -0.394 OA
HETATM   25  C14 UNL     1      29.588   9.309  49.269  1.00  0.00     0.201 C 
ENDBRANCH  23  24
ENDBRANCH  22  23
ENDBRANCH  21  22
ENDBRANCH  14  21
BRANCH  15  26
HETATM   26  C16 UNL     1      23.381   7.395  47.519  1.00  0.00     0.208 C 
BRANCH  26  27
HETATM   27  O3  UNL     1      23.231   6.841  46.283  1.00  0.00    -0.391 OA
HETATM   28  C17 UNL     1      22.260   5.887  46.137  1.00  0.00     0.201 C 
ENDBRANCH  26  27
ENDBRANCH  15  26
BRANCH  17  29
HETATM   29  O4  UNL     1      20.749   6.676  50.249  1.00  0.00    -0.339 OA
HETATM   30  C20 UNL     1      20.794   8.094  50.169  1.00  0.00     0.211 C 
ENDBRANCH  17  29
ENDBRANCH   9  11
ENDBRANCH   7   9
TORSDOF 9
ENDMDL
