MODEL 1
REMARK VINA RESULT:      -8.7      0.000      0.000
REMARK  5 active torsions:
REMARK  status: ('A' for Active; 'I' for Inactive)
REMARK    1  A    between atoms: O1_2  and  C2_3 
REMARK    2  A    between atoms: C5_6  and  C6_7 
REMARK    3  A    between atoms: C8_9  and  C9_10 
REMARK    4  A    between atoms: N2_18  and  C15_19 
REMARK    5  A    between atoms: C16_21  and  O2_22 
ROOT
HETATM    1  C6  UNL     1      23.895   2.154  53.182  1.00  0.00     0.151 C 
HETATM    2  C7  UNL     1      24.389   3.550  52.771  1.00  0.00     0.094 C 
HETATM    3  C8  UNL     1      24.434   3.404  51.275  1.00  0.00     0.067 C 
HETATM    4  N1  UNL     1      23.632   2.425  50.957  1.00  0.00    -0.173 NA
HETATM    5  N2  UNL     1      23.022   1.859  52.057  1.00  0.00    -0.236 N 
ENDROOT
BRANCH   1   6
HETATM    6  C5  UNL     1      24.987   1.178  53.301  1.00  0.00    -0.033 A 
HETATM    7  C4  UNL     1      26.186   1.678  53.820  1.00  0.00     0.012 A 
HETATM    8  C3  UNL     1      27.306   0.863  53.984  1.00  0.00     0.037 A 
HETATM    9  C2  UNL     1      27.274  -0.481  53.636  1.00  0.00     0.068 A 
HETATM   10  C19 UNL     1      26.101  -0.988  53.122  1.00  0.00     0.037 A 
HETATM   11  C18 UNL     1      25.018  -0.150  52.977  1.00  0.00     0.012 A 
BRANCH   9  12
HETATM   12  O1  UNL     1      28.349  -1.326  53.777  1.00  0.00    -0.356 OA
HETATM   13  C1  UNL     1      29.694  -0.885  53.776  1.00  0.00     0.210 C 
ENDBRANCH   9  12
ENDBRANCH   1   6
BRANCH   5  14
HETATM   14  C15 UNL     1      21.800   1.116  52.247  1.00  0.00     0.192 A 
HETATM   15  N3  UNL     1      21.223   0.449  52.963  1.00  0.00    -0.198 NA
HETATM   16  C16 UNL     1      20.043  -0.101  52.813  1.00  0.00     0.171 A 
HETATM   17  C17 UNL     1      19.391   0.132  51.670  1.00  0.00     0.111 A 
HETATM   18  S1  UNL     1      20.613   1.218  50.799  1.00  0.00    -0.058 SA
BRANCH  16  19
HETATM   19  O2  UNL     1      19.453  -0.909  53.795  1.00  0.00    -0.344 OA
HETATM   20  H13 UNL     1      19.537  -0.782  54.775  1.00  0.00     0.219 HD
ENDBRANCH  16  19
ENDBRANCH   5  14
BRANCH   3  21
HETATM   21  C9  UNL     1      25.231   4.216  50.372  1.00  0.00    -0.010 A 
HETATM   22  C10 UNL     1      24.882   5.483  50.025  1.00  0.00     0.016 A 
HETATM   23  C11 UNL     1      25.681   6.203  49.162  1.00  0.00     0.043 A 
HETATM   24  C12 UNL     1      26.857   5.679  48.617  1.00  0.00     0.116 A 
HETATM   25  F1  UNL     1      27.655   6.370  47.768  1.00  0.00    -0.206 F 
HETATM   26  C13 UNL     1      27.204   4.379  48.980  1.00  0.00     0.043 A 
HETATM   27  C14 UNL     1      26.387   3.681  49.844  1.00  0.00     0.016 A 
ENDBRANCH   3  21
TORSDOF 5
ENDMDL
MODEL 2
REMARK VINA RESULT:      -8.4      0.945      1.369
REMARK  5 active torsions:
REMARK  status: ('A' for Active; 'I' for Inactive)
REMARK    1  A    between atoms: O1_2  and  C2_3 
REMARK    2  A    between atoms: C5_6  and  C6_7 
REMARK    3  A    between atoms: C8_9  and  C9_10 
REMARK    4  A    between atoms: N2_18  and  C15_19 
REMARK    5  A    between atoms: C16_21  and  O2_22 
ROOT
HETATM    1  C6  UNL     1      23.787   2.328  52.920  1.00  0.00     0.151 C 
HETATM    2  C7  UNL     1      24.339   3.702  52.507  1.00  0.00     0.094 C 
HETATM    3  C8  UNL     1      24.484   3.513  51.022  1.00  0.00     0.067 C 
HETATM    4  N1  UNL     1      23.685   2.542  50.675  1.00  0.00    -0.173 NA
HETATM    5  N2  UNL     1      22.988   2.019  51.744  1.00  0.00    -0.236 N 
ENDROOT
BRANCH   1   6
HETATM    6  C5  UNL     1      24.846   1.335  53.141  1.00  0.00    -0.033 A 
HETATM    7  C4  UNL     1      26.022   1.827  53.717  1.00  0.00     0.012 A 
HETATM    8  C3  UNL     1      27.110   0.995  53.979  1.00  0.00     0.037 A 
HETATM    9  C2  UNL     1      27.069  -0.360  53.675  1.00  0.00     0.068 A 
HETATM   10  C19 UNL     1      25.918  -0.860  53.105  1.00  0.00     0.037 A 
HETATM   11  C18 UNL     1      24.867  -0.005  52.864  1.00  0.00     0.012 A 
BRANCH   9  12
HETATM   12  O1  UNL     1      28.113  -1.222  53.913  1.00  0.00    -0.356 OA
HETATM   13  C1  UNL     1      29.473  -0.834  53.859  1.00  0.00     0.210 C 
ENDBRANCH   9  12
ENDBRANCH   1   6
BRANCH   5  14
HETATM   14  C15 UNL     1      21.740   1.306  51.868  1.00  0.00     0.192 A 
HETATM   15  N3  UNL     1      20.821   0.942  51.309  1.00  0.00    -0.198 NA
HETATM   16  C16 UNL     1      19.791   0.268  51.758  1.00  0.00     0.171 A 
HETATM   17  C17 UNL     1      19.781  -0.059  53.054  1.00  0.00     0.111 A 
HETATM   18  S1  UNL     1      21.386   0.684  53.602  1.00  0.00    -0.058 SA
BRANCH  16  19
HETATM   19  O2  UNL     1      18.720  -0.114  50.938  1.00  0.00    -0.344 OA
HETATM   20  H13 UNL     1      18.378  -1.039  50.828  1.00  0.00     0.219 HD
ENDBRANCH  16  19
ENDBRANCH   5  14
BRANCH   3  21
HETATM   21  C9  UNL     1      25.360   4.283  50.156  1.00  0.00    -0.010 A 
HETATM   22  C10 UNL     1      26.543   3.797  49.693  1.00  0.00     0.016 A 
HETATM   23  C11 UNL     1      27.330   4.578  48.873  1.00  0.00     0.043 A 
HETATM   24  C12 UNL     1      26.961   5.870  48.488  1.00  0.00     0.116 A 
HETATM   25  F1  UNL     1      27.721   6.652  47.684  1.00  0.00    -0.206 F 
HETATM   26  C13 UNL     1      25.747   6.357  48.970  1.00  0.00     0.043 A 
HETATM   27  C14 UNL     1      24.979   5.556  49.788  1.00  0.00     0.016 A 
ENDBRANCH   3  21
TORSDOF 5
ENDMDL
MODEL 3
REMARK VINA RESULT:      -8.3      3.379      6.133
REMARK  5 active torsions:
REMARK  status: ('A' for Active; 'I' for Inactive)
REMARK    1  A    between atoms: O1_2  and  C2_3 
REMARK    2  A    between atoms: C5_6  and  C6_7 
REMARK    3  A    between atoms: C8_9  and  C9_10 
REMARK    4  A    between atoms: N2_18  and  C15_19 
REMARK    5  A    between atoms: C16_21  and  O2_22 
ROOT
HETATM    1  C6  UNL     1      24.063   2.546  52.571  1.00  0.00     0.151 C 
HETATM    2  C7  UNL     1      25.389   2.418  53.337  1.00  0.00     0.094 C 
HETATM    3  C8  UNL     1      26.137   1.464  52.449  1.00  0.00     0.067 C 
HETATM    4  N1  UNL     1      25.598   1.535  51.262  1.00  0.00    -0.173 NA
HETATM    5  N2  UNL     1      24.553   2.433  51.206  1.00  0.00    -0.236 N 
ENDROOT
BRANCH   1   6
HETATM    6  C5  UNL     1      23.111   1.478  52.904  1.00  0.00    -0.033 A 
HETATM    7  C4  UNL     1      21.768   1.765  52.637  1.00  0.00     0.012 A 
HETATM    8  C3  UNL     1      20.757   0.844  52.908  1.00  0.00     0.037 A 
HETATM    9  C2  UNL     1      21.045  -0.399  53.456  1.00  0.00     0.068 A 
HETATM   10  C19 UNL     1      22.363  -0.697  53.725  1.00  0.00     0.037 A 
HETATM   11  C18 UNL     1      23.331   0.241  53.442  1.00  0.00     0.012 A 
BRANCH   9  12
HETATM   12  O1  UNL     1      20.087  -1.342  53.741  1.00  0.00    -0.356 OA
HETATM   13  C1  UNL     1      18.733  -1.224  53.344  1.00  0.00     0.210 C 
ENDBRANCH   9  12
ENDBRANCH   1   6
BRANCH   5  14
HETATM   14  C15 UNL     1      23.946   3.191  50.140  1.00  0.00     0.192 A 
HETATM   15  N3  UNL     1      23.217   3.146  49.271  1.00  0.00    -0.198 NA
HETATM   16  C16 UNL     1      22.866   4.093  48.435  1.00  0.00     0.171 A 
HETATM   17  C17 UNL     1      23.422   5.298  48.593  1.00  0.00     0.111 A 
HETATM   18  S1  UNL     1      24.511   4.977  50.057  1.00  0.00    -0.058 SA
BRANCH  16  19
HETATM   19  O2  UNL     1      21.943   3.887  47.399  1.00  0.00    -0.344 OA
HETATM   20  H13 UNL     1      21.598   4.585  46.786  1.00  0.00     0.219 HD
ENDBRANCH  16  19
ENDBRANCH   5  14
BRANCH   3  21
HETATM   21  C9  UNL     1      27.251   0.625  52.859  1.00  0.00    -0.010 A 
HETATM   22  C10 UNL     1      27.220  -0.731  52.765  1.00  0.00     0.016 A 
HETATM   23  C11 UNL     1      28.309  -1.471  53.172  1.00  0.00     0.043 A 
HETATM   24  C12 UNL     1      29.467  -0.880  53.688  1.00  0.00     0.116 A 
HETATM   25  F1  UNL     1      30.547  -1.590  54.093  1.00  0.00    -0.206 F 
HETATM   26  C13 UNL     1      29.486   0.510  53.780  1.00  0.00     0.043 A 
HETATM   27  C14 UNL     1      28.383   1.227  53.366  1.00  0.00     0.016 A 
ENDBRANCH   3  21
TORSDOF 5
ENDMDL
MODEL 4
REMARK VINA RESULT:      -8.1      1.644      2.010
REMARK  5 active torsions:
REMARK  status: ('A' for Active; 'I' for Inactive)
REMARK    1  A    between atoms: O1_2  and  C2_3 
REMARK    2  A    between atoms: C5_6  and  C6_7 
REMARK    3  A    between atoms: C8_9  and  C9_10 
REMARK    4  A    between atoms: N2_18  and  C15_19 
REMARK    5  A    between atoms: C16_21  and  O2_22 
ROOT
HETATM    1  C6  UNL     1      23.208   3.203  52.197  1.00  0.00     0.151 C 
HETATM    2  C7  UNL     1      23.970   4.478  51.802  1.00  0.00     0.094 C 
HETATM    3  C8  UNL     1      24.358   4.147  50.388  1.00  0.00     0.067 C 
HETATM    4  N1  UNL     1      23.535   3.228  49.964  1.00  0.00    -0.173 NA
HETATM    5  N2  UNL     1      22.605   2.868  50.917  1.00  0.00    -0.236 N 
ENDROOT
BRANCH   1   6
HETATM    6  C5  UNL     1      24.097   2.139  52.682  1.00  0.00    -0.033 A 
HETATM    7  C4  UNL     1      25.229   2.571  53.380  1.00  0.00     0.012 A 
HETATM    8  C3  UNL     1      26.160   1.667  53.892  1.00  0.00     0.037 A 
HETATM    9  C2  UNL     1      25.999   0.298  53.727  1.00  0.00     0.068 A 
HETATM   10  C19 UNL     1      24.889  -0.144  53.040  1.00  0.00     0.037 A 
HETATM   11  C18 UNL     1      23.994   0.781  52.551  1.00  0.00     0.012 A 
BRANCH   9  12
HETATM   12  O1  UNL     1      26.886  -0.633  54.211  1.00  0.00    -0.356 OA
HETATM   13  C1  UNL     1      28.149  -0.888  53.624  1.00  0.00     0.210 C 
ENDBRANCH   9  12
ENDBRANCH   1   6
BRANCH   5  14
HETATM   14  C15 UNL     1      21.285   2.288  50.854  1.00  0.00     0.192 A 
HETATM   15  N3  UNL     1      20.533   1.769  50.180  1.00  0.00    -0.198 NA
HETATM   16  C16 UNL     1      19.327   1.340  50.462  1.00  0.00     0.171 A 
HETATM   17  C17 UNL     1      18.880   1.519  51.708  1.00  0.00     0.111 A 
HETATM   18  S1  UNL     1      20.339   2.367  52.472  1.00  0.00    -0.058 SA
BRANCH  16  19
HETATM   19  O2  UNL     1      18.506   0.710  49.515  1.00  0.00    -0.344 OA
HETATM   20  H13 UNL     1      18.787   0.416  48.611  1.00  0.00     0.219 HD
ENDBRANCH  16  19
ENDBRANCH   5  14
BRANCH   3  21
HETATM   21  C9  UNL     1      25.453   4.753  49.650  1.00  0.00    -0.010 A 
HETATM   22  C10 UNL     1      26.625   4.103  49.415  1.00  0.00     0.016 A 
HETATM   23  C11 UNL     1      27.627   4.733  48.708  1.00  0.00     0.043 A 
HETATM   24  C12 UNL     1      27.492   6.033  48.212  1.00  0.00     0.116 A 
HETATM   25  F1  UNL     1      28.466   6.668  47.516  1.00  0.00    -0.206 F 
HETATM   26  C13 UNL     1      26.287   6.688  48.460  1.00  0.00     0.043 A 
HETATM   27  C14 UNL     1      25.302   6.036  49.169  1.00  0.00     0.016 A 
ENDBRANCH   3  21
TORSDOF 5
ENDMDL
MODEL 5
REMARK VINA RESULT:      -7.9      3.671      6.905
REMARK  5 active torsions:
REMARK  status: ('A' for Active; 'I' for Inactive)
REMARK    1  A    between atoms: O1_2  and  C2_3 
REMARK    2  A    between atoms: C5_6  and  C6_7 
REMARK    3  A    between atoms: C8_9  and  C9_10 
REMARK    4  A    between atoms: N2_18  and  C15_19 
REMARK    5  A    between atoms: C16_21  and  O2_22 
ROOT
HETATM    1  C6  UNL     1      25.275   1.704  53.067  1.00  0.00     0.151 C 
HETATM    2  C7  UNL     1      23.796   1.690  53.484  1.00  0.00     0.094 C 
HETATM    3  C8  UNL     1      23.258   0.615  52.581  1.00  0.00     0.067 C 
HETATM    4  N1  UNL     1      24.267  -0.129  52.219  1.00  0.00    -0.173 NA
HETATM    5  N2  UNL     1      25.462   0.294  52.765  1.00  0.00    -0.236 N 
ENDROOT
BRANCH   1   6
HETATM    6  C5  UNL     1      25.524   2.554  51.895  1.00  0.00    -0.033 A 
HETATM    7  C4  UNL     1      24.644   3.629  51.733  1.00  0.00     0.012 A 
HETATM    8  C3  UNL     1      24.762   4.514  50.661  1.00  0.00     0.037 A 
HETATM    9  C2  UNL     1      25.762   4.361  49.709  1.00  0.00     0.068 A 
HETATM   10  C19 UNL     1      26.636   3.306  49.854  1.00  0.00     0.037 A 
HETATM   11  C18 UNL     1      26.485   2.456  50.926  1.00  0.00     0.012 A 
BRANCH   9  12
HETATM   12  O1  UNL     1      25.921   5.204  48.635  1.00  0.00    -0.356 OA
HETATM   13  C1  UNL     1      26.908   6.217  48.578  1.00  0.00     0.210 C 
ENDBRANCH   9  12
ENDBRANCH   1   6
BRANCH   5  14
HETATM   14  C15 UNL     1      26.713  -0.363  53.056  1.00  0.00     0.192 A 
HETATM   15  N3  UNL     1      27.287  -1.339  52.976  1.00  0.00    -0.198 NA
HETATM   16  C16 UNL     1      28.504  -1.619  53.372  1.00  0.00     0.171 A 
HETATM   17  C17 UNL     1      29.206  -0.643  53.957  1.00  0.00     0.111 A 
HETATM   18  S1  UNL     1      27.973   0.738  53.902  1.00  0.00    -0.058 SA
BRANCH  16  19
HETATM   19  O2  UNL     1      29.084  -2.884  53.205  1.00  0.00    -0.344 OA
HETATM   20  H13 UNL     1      29.539  -3.208  52.386  1.00  0.00     0.219 HD
ENDBRANCH  16  19
ENDBRANCH   5  14
BRANCH   3  21
HETATM   21  C9  UNL     1      21.866   0.457  52.194  1.00  0.00    -0.010 A 
HETATM   22  C10 UNL     1      20.922  -0.028  53.043  1.00  0.00     0.016 A 
HETATM   23  C11 UNL     1      19.617  -0.155  52.616  1.00  0.00     0.043 A 
HETATM   24  C12 UNL     1      19.213   0.199  51.325  1.00  0.00     0.116 A 
HETATM   25  F1  UNL     1      17.936   0.081  50.887  1.00  0.00    -0.206 F 
HETATM   26  C13 UNL     1      20.191   0.694  50.465  1.00  0.00     0.043 A 
HETATM   27  C14 UNL     1      21.487   0.811  50.916  1.00  0.00     0.016 A 
ENDBRANCH   3  21
TORSDOF 5
ENDMDL
MODEL 6
REMARK VINA RESULT:      -7.6      4.402      8.043
REMARK  5 active torsions:
REMARK  status: ('A' for Active; 'I' for Inactive)
REMARK    1  A    between atoms: O1_2  and  C2_3 
REMARK    2  A    between atoms: C5_6  and  C6_7 
REMARK    3  A    between atoms: C8_9  and  C9_10 
REMARK    4  A    between atoms: N2_18  and  C15_19 
REMARK    5  A    between atoms: C16_21  and  O2_22 
ROOT
HETATM    1  C6  UNL     1      23.815   4.332  50.649  1.00  0.00     0.151 C 
HETATM    2  C7  UNL     1      23.480   3.813  52.057  1.00  0.00     0.094 C 
HETATM    3  C8  UNL     1      24.072   2.432  51.996  1.00  0.00     0.067 C 
HETATM    4  N1  UNL     1      24.973   2.438  51.052  1.00  0.00    -0.173 NA
HETATM    5  N2  UNL     1      25.090   3.666  50.436  1.00  0.00    -0.236 N 
ENDROOT
BRANCH   1   6
HETATM    6  C5  UNL     1      22.815   3.939  49.647  1.00  0.00    -0.033 A 
HETATM    7  C4  UNL     1      21.485   4.198  49.991  1.00  0.00     0.012 A 
HETATM    8  C3  UNL     1      20.432   3.872  49.135  1.00  0.00     0.037 A 
HETATM    9  C2  UNL     1      20.667   3.274  47.904  1.00  0.00     0.068 A 
HETATM   10  C19 UNL     1      21.972   3.011  47.551  1.00  0.00     0.037 A 
HETATM   11  C18 UNL     1      22.981   3.349  48.425  1.00  0.00     0.012 A 
BRANCH   9  12
HETATM   12  O1  UNL     1      19.666   2.933  47.025  1.00  0.00    -0.356 OA
HETATM   13  C1  UNL     1      18.411   3.585  46.981  1.00  0.00     0.210 C 
ENDBRANCH   9  12
ENDBRANCH   1   6
BRANCH   5  14
HETATM   14  C15 UNL     1      26.150   4.319  49.707  1.00  0.00     0.192 A 
HETATM   15  N3  UNL     1      27.184   4.186  49.259  1.00  0.00    -0.198 NA
HETATM   16  C16 UNL     1      27.924   5.052  48.610  1.00  0.00     0.171 A 
HETATM   17  C17 UNL     1      27.426   6.279  48.428  1.00  0.00     0.111 A 
HETATM   18  S1  UNL     1      25.786   6.107  49.271  1.00  0.00    -0.058 SA
BRANCH  16  19
HETATM   19  O2  UNL     1      29.196   4.740  48.110  1.00  0.00    -0.344 OA
HETATM   20  H13 UNL     1      29.400   4.468  47.179  1.00  0.00     0.219 HD
ENDBRANCH  16  19
ENDBRANCH   5  14
BRANCH   3  21
HETATM   21  C9  UNL     1      23.693   1.314  52.842  1.00  0.00    -0.010 A 
HETATM   22  C10 UNL     1      22.397   1.026  53.137  1.00  0.00     0.016 A 
HETATM   23  C11 UNL     1      22.101  -0.050  53.946  1.00  0.00     0.043 A 
HETATM   24  C12 UNL     1      23.092  -0.875  54.490  1.00  0.00     0.116 A 
HETATM   25  F1  UNL     1      22.821  -1.935  55.288  1.00  0.00    -0.206 F 
HETATM   26  C13 UNL     1      24.416  -0.568  54.181  1.00  0.00     0.043 A 
HETATM   27  C14 UNL     1      24.684   0.513  53.369  1.00  0.00     0.016 A 
ENDBRANCH   3  21
TORSDOF 5
ENDMDL
MODEL 7
REMARK VINA RESULT:      -7.4      3.724      6.176
REMARK  5 active torsions:
REMARK  status: ('A' for Active; 'I' for Inactive)
REMARK    1  A    between atoms: O1_2  and  C2_3 
REMARK    2  A    between atoms: C5_6  and  C6_7 
REMARK    3  A    between atoms: C8_9  and  C9_10 
REMARK    4  A    between atoms: N2_18  and  C15_19 
REMARK    5  A    between atoms: C16_21  and  O2_22 
ROOT
HETATM    1  C6  UNL     1      21.906   2.829  50.254  1.00  0.00     0.151 C 
HETATM    2  C7  UNL     1      22.846   1.657  50.575  1.00  0.00     0.094 C 
HETATM    3  C8  UNL     1      22.973   1.797  52.067  1.00  0.00     0.067 C 
HETATM    4  N1  UNL     1      21.937   2.471  52.483  1.00  0.00    -0.173 NA
HETATM    5  N2  UNL     1      21.086   2.826  51.456  1.00  0.00    -0.236 N 
ENDROOT
BRANCH   1   6
HETATM    6  C5  UNL     1      22.623   4.100  50.082  1.00  0.00    -0.033 A 
HETATM    7  C4  UNL     1      23.734   4.053  49.235  1.00  0.00     0.012 A 
HETATM    8  C3  UNL     1      24.510   5.186  48.984  1.00  0.00     0.037 A 
HETATM    9  C2  UNL     1      24.206   6.408  49.570  1.00  0.00     0.068 A 
HETATM   10  C19 UNL     1      23.115   6.470  50.408  1.00  0.00     0.037 A 
HETATM   11  C18 UNL     1      22.376   5.330  50.628  1.00  0.00     0.012 A 
BRANCH   9  12
HETATM   12  O1  UNL     1      24.937   7.552  49.356  1.00  0.00    -0.356 OA
HETATM   13  C1  UNL     1      26.093   7.891  50.100  1.00  0.00     0.210 C 
ENDBRANCH   9  12
ENDBRANCH   1   6
BRANCH   5  14
HETATM   14  C15 UNL     1      19.682   3.148  51.391  1.00  0.00     0.192 A 
HETATM   15  N3  UNL     1      18.797   3.555  51.975  1.00  0.00    -0.198 NA
HETATM   16  C16 UNL     1      17.558   3.731  51.585  1.00  0.00     0.171 A 
HETATM   17  C17 UNL     1      17.250   3.396  50.329  1.00  0.00     0.111 A 
HETATM   18  S1  UNL     1      18.895   2.797  49.725  1.00  0.00    -0.058 SA
BRANCH  16  19
HETATM   19  O2  UNL     1      16.564   4.248  52.428  1.00  0.00    -0.344 OA
HETATM   20  H13 UNL     1      16.656   5.048  53.007  1.00  0.00     0.219 HD
ENDBRANCH  16  19
ENDBRANCH   5  14
BRANCH   3  21
HETATM   21  C9  UNL     1      24.061   1.270  52.874  1.00  0.00    -0.010 A 
HETATM   22  C10 UNL     1      24.087  -0.015  53.317  1.00  0.00     0.016 A 
HETATM   23  C11 UNL     1      25.148  -0.455  54.080  1.00  0.00     0.043 A 
HETATM   24  C12 UNL     1      26.218   0.376  54.425  1.00  0.00     0.116 A 
HETATM   25  F1  UNL     1      27.269  -0.038  55.174  1.00  0.00    -0.206 F 
HETATM   26  C13 UNL     1      26.179   1.691  53.965  1.00  0.00     0.043 A 
HETATM   27  C14 UNL     1      25.107   2.105  53.204  1.00  0.00     0.016 A 
ENDBRANCH   3  21
TORSDOF 5
ENDMDL
MODEL 8
REMARK VINA RESULT:      -7.3      6.857     10.181
REMARK  5 active torsions:
REMARK  status: ('A' for Active; 'I' for Inactive)
REMARK    1  A    between atoms: O1_2  and  C2_3 
REMARK    2  A    between atoms: C5_6  and  C6_7 
REMARK    3  A    between atoms: C8_9  and  C9_10 
REMARK    4  A    between atoms: N2_18  and  C15_19 
REMARK    5  A    between atoms: C16_21  and  O2_22 
ROOT
HETATM    1  C6  UNL     1      29.535   8.275  47.280  1.00  0.00     0.151 C 
HETATM    2  C7  UNL     1      28.391   7.307  46.939  1.00  0.00     0.094 C 
HETATM    3  C8  UNL     1      27.786   7.093  48.298  1.00  0.00     0.067 C 
HETATM    4  N1  UNL     1      28.131   8.110  49.040  1.00  0.00    -0.173 NA
HETATM    5  N2  UNL     1      28.912   9.022  48.362  1.00  0.00    -0.236 N 
ENDROOT
BRANCH   1   6
HETATM    6  C5  UNL     1      30.752   7.582  47.722  1.00  0.00    -0.033 A 
HETATM    7  C4  UNL     1      30.943   6.303  47.188  1.00  0.00     0.012 A 
HETATM    8  C3  UNL     1      32.054   5.530  47.525  1.00  0.00     0.037 A 
HETATM    9  C2  UNL     1      33.018   6.002  48.407  1.00  0.00     0.068 A 
HETATM   10  C19 UNL     1      32.843   7.260  48.942  1.00  0.00     0.037 A 
HETATM   11  C18 UNL     1      31.733   7.990  48.583  1.00  0.00     0.012 A 
BRANCH   9  12
HETATM   12  O1  UNL     1      34.130   5.281  48.770  1.00  0.00    -0.356 OA
HETATM   13  C1  UNL     1      35.412   5.857  48.942  1.00  0.00     0.210 C 
ENDBRANCH   9  12
ENDBRANCH   1   6
BRANCH   5  14
HETATM   14  C15 UNL     1      29.172  10.431  48.529  1.00  0.00     0.192 A 
HETATM   15  N3  UNL     1      29.984  11.214  48.664  1.00  0.00    -0.198 NA
HETATM   16  C16 UNL     1      29.868  12.513  48.797  1.00  0.00     0.171 A 
HETATM   17  C17 UNL     1      28.637  13.031  48.774  1.00  0.00     0.111 A 
HETATM   18  S1  UNL     1      27.627  11.495  48.546  1.00  0.00    -0.058 SA
BRANCH  16  19
HETATM   19  O2  UNL     1      30.974  13.360  48.957  1.00  0.00    -0.344 OA
HETATM   20  H13 UNL     1      31.868  13.086  49.285  1.00  0.00     0.219 HD
ENDBRANCH  16  19
ENDBRANCH   5  14
BRANCH   3  21
HETATM   21  C9  UNL     1      26.973   5.955  48.690  1.00  0.00    -0.010 A 
HETATM   22  C10 UNL     1      27.501   4.724  48.924  1.00  0.00     0.016 A 
HETATM   23  C11 UNL     1      26.675   3.684  49.294  1.00  0.00     0.043 A 
HETATM   24  C12 UNL     1      25.293   3.839  49.441  1.00  0.00     0.116 A 
HETATM   25  F1  UNL     1      24.466   2.829  49.802  1.00  0.00    -0.206 F 
HETATM   26  C13 UNL     1      24.765   5.105  49.197  1.00  0.00     0.043 A 
HETATM   27  C14 UNL     1      25.612   6.128  48.830  1.00  0.00     0.016 A 
ENDBRANCH   3  21
TORSDOF 5
ENDMDL
MODEL 9
REMARK VINA RESULT:      -7.3      2.922      4.052
REMARK  5 active torsions:
REMARK  status: ('A' for Active; 'I' for Inactive)
REMARK    1  A    between atoms: O1_2  and  C2_3 
REMARK    2  A    between atoms: C5_6  and  C6_7 
REMARK    3  A    between atoms: C8_9  and  C9_10 
REMARK    4  A    between atoms: N2_18  and  C15_19 
REMARK    5  A    between atoms: C16_21  and  O2_22 
ROOT
HETATM    1  C6  UNL     1      21.713   4.130  51.779  1.00  0.00     0.151 C 
HETATM    2  C7  UNL     1      22.954   5.022  51.610  1.00  0.00     0.094 C 
HETATM    3  C8  UNL     1      23.391   4.637  50.225  1.00  0.00     0.067 C 
HETATM    4  N1  UNL     1      22.352   4.136  49.615  1.00  0.00    -0.173 NA
HETATM    5  N2  UNL     1      21.225   4.123  50.409  1.00  0.00    -0.236 N 
ENDROOT
BRANCH   1   6
HETATM    6  C5  UNL     1      22.046   2.779  52.251  1.00  0.00    -0.033 A 
HETATM    7  C4  UNL     1      20.953   1.949  52.517  1.00  0.00     0.012 A 
HETATM    8  C3  UNL     1      21.122   0.642  52.975  1.00  0.00     0.037 A 
HETATM    9  C2  UNL     1      22.389   0.114  53.186  1.00  0.00     0.068 A 
HETATM   10  C19 UNL     1      23.477   0.920  52.930  1.00  0.00     0.037 A 
HETATM   11  C18 UNL     1      23.265   2.203  52.479  1.00  0.00     0.012 A 
BRANCH   9  12
HETATM   12  O1  UNL     1      22.611  -1.166  53.636  1.00  0.00    -0.356 OA
HETATM   13  C1  UNL     1      22.097  -1.664  54.858  1.00  0.00     0.210 C 
ENDBRANCH   9  12
ENDBRANCH   1   6
BRANCH   5  14
HETATM   14  C15 UNL     1      19.809   4.111  50.132  1.00  0.00     0.192 A 
HETATM   15  N3  UNL     1      18.798   4.515  50.455  1.00  0.00    -0.198 NA
HETATM   16  C16 UNL     1      17.613   4.286  49.945  1.00  0.00     0.171 A 
HETATM   17  C17 UNL     1      17.539   3.466  48.892  1.00  0.00     0.111 A 
HETATM   18  S1  UNL     1      19.327   3.032  48.675  1.00  0.00    -0.058 SA
BRANCH  16  19
HETATM   19  O2  UNL     1      16.442   4.862  50.458  1.00  0.00    -0.344 OA
HETATM   20  H13 UNL     1      15.594   4.988  49.959  1.00  0.00     0.219 HD
ENDBRANCH  16  19
ENDBRANCH   5  14
BRANCH   3  21
HETATM   21  C9  UNL     1      24.731   4.800  49.687  1.00  0.00    -0.010 A 
HETATM   22  C10 UNL     1      25.153   5.959  49.115  1.00  0.00     0.016 A 
HETATM   23  C11 UNL     1      26.438   6.052  48.623  1.00  0.00     0.043 A 
HETATM   24  C12 UNL     1      27.344   4.989  48.686  1.00  0.00     0.116 A 
HETATM   25  F1  UNL     1      28.609   5.060  48.208  1.00  0.00    -0.206 F 
HETATM   26  C13 UNL     1      26.898   3.806  49.274  1.00  0.00     0.043 A 
HETATM   27  C14 UNL     1      25.610   3.740  49.758  1.00  0.00     0.016 A 
ENDBRANCH   3  21
TORSDOF 5
ENDMDL
