MODEL 1
REMARK VINA RESULT:      -9.0      0.000      0.000
REMARK  5 active torsions:
REMARK  status: ('A' for Active; 'I' for Inactive)
REMARK    1  A    between atoms: N1_5  and  C5_6 
REMARK    2  A    between atoms: C11_14  and  O1_15 
REMARK    3  A    between atoms: O1_15  and  C12_16 
REMARK    4  A    between atoms: C12_16  and  C13_17 
REMARK    5  A    between atoms: C13_17  and  N4_18 
ROOT
HETATM    1  C5  UNL     1      24.868  -0.372  54.133  1.00  0.00     0.142 A 
HETATM    2  N2  UNL     1      25.178  -1.024  55.242  1.00  0.00    -0.224 NA
HETATM    3  C6  UNL     1      24.144  -1.583  55.936  1.00  0.00     0.236 A 
HETATM    4  N3  UNL     1      22.825  -1.531  55.593  1.00  0.00    -0.241 NA
HETATM    5  C7  UNL     1      22.519  -0.860  54.454  1.00  0.00     0.072 A 
HETATM    6  C8  UNL     1      21.250  -0.721  53.974  1.00  0.00     0.042 A 
HETATM    7  C9  UNL     1      20.967  -0.025  52.789  1.00  0.00    -0.026 A 
HETATM    8  C10 UNL     1      19.528   0.044  52.385  1.00  0.00     0.051 C 
HETATM    9  C11 UNL     1      22.040   0.521  52.124  1.00  0.00     0.075 A 
HETATM   10  C17 UNL     1      23.338   0.409  52.567  1.00  0.00     0.055 A 
HETATM   11  C18 UNL     1      23.551  -0.290  53.740  1.00  0.00     0.041 A 
ENDROOT
BRANCH   1  12
HETATM   12  N1  UNL     1      25.972   0.202  53.440  1.00  0.00    -0.331 N 
HETATM   13  C4  UNL     1      26.755   1.436  53.624  1.00  0.00     0.155 C 
HETATM   14  C3  UNL     1      28.136   0.916  53.956  1.00  0.00    -0.005 C 
HETATM   15  C2  UNL     1      28.591  -0.294  53.572  1.00  0.00    -0.082 C 
HETATM   16  C1  UNL     1      29.920  -0.922  53.832  1.00  0.00     0.043 C 
HETATM   17  C20 UNL     1      27.747  -1.217  52.784  1.00  0.00     0.092 C 
HETATM   18  C19 UNL     1      26.466  -0.554  52.302  1.00  0.00     0.277 C 
HETATM   19  F1  UNL     1      26.800   0.284  51.264  1.00  0.00    -0.226 F 
ENDBRANCH   1  12
BRANCH   9  20
HETATM   20  O1  UNL     1      21.555   1.167  50.981  1.00  0.00    -0.349 OA
BRANCH  20  21
HETATM   21  C12 UNL     1      22.150   1.831  50.051  1.00  0.00     0.196 C 
BRANCH  21  22
HETATM   22  C13 UNL     1      22.815   2.570  49.013  1.00  0.00     0.156 C 
BRANCH  22  23
HETATM   23  N4  UNL     1      23.992   3.319  49.526  1.00  0.00    -0.348 N 
HETATM   24  C14 UNL     1      24.320   4.563  49.161  1.00  0.00     0.111 A 
HETATM   25  C15 UNL     1      25.459   4.946  49.822  1.00  0.00     0.135 A 
HETATM   26  N5  UNL     1      25.802   3.882  50.597  1.00  0.00    -0.255 NA
HETATM   27  C16 UNL     1      24.909   2.899  50.412  1.00  0.00     0.209 A 
ENDBRANCH  22  23
ENDBRANCH  21  22
ENDBRANCH  20  21
ENDBRANCH   9  20
TORSDOF 5
ENDMDL
MODEL 2
REMARK VINA RESULT:      -8.3      1.472      2.201
REMARK  5 active torsions:
REMARK  status: ('A' for Active; 'I' for Inactive)
REMARK    1  A    between atoms: N1_5  and  C5_6 
REMARK    2  A    between atoms: C11_14  and  O1_15 
REMARK    3  A    between atoms: O1_15  and  C12_16 
REMARK    4  A    between atoms: C12_16  and  C13_17 
REMARK    5  A    between atoms: C13_17  and  N4_18 
ROOT
HETATM    1  C5  UNL     1      24.892  -0.432  54.115  1.00  0.00     0.142 A 
HETATM    2  N2  UNL     1      25.228  -1.036  55.243  1.00  0.00    -0.224 NA
HETATM    3  C6  UNL     1      24.211  -1.565  55.985  1.00  0.00     0.236 A 
HETATM    4  N3  UNL     1      22.884  -1.526  55.672  1.00  0.00    -0.241 NA
HETATM    5  C7  UNL     1      22.551  -0.905  54.512  1.00  0.00     0.072 A 
HETATM    6  C8  UNL     1      21.271  -0.786  54.056  1.00  0.00     0.042 A 
HETATM    7  C9  UNL     1      20.959  -0.140  52.850  1.00  0.00    -0.026 A 
HETATM    8  C10 UNL     1      19.511  -0.088  52.478  1.00  0.00     0.051 C 
HETATM    9  C11 UNL     1      22.016   0.376  52.137  1.00  0.00     0.075 A 
HETATM   10  C17 UNL     1      23.324   0.282  52.554  1.00  0.00     0.055 A 
HETATM   11  C18 UNL     1      23.566  -0.366  53.750  1.00  0.00     0.041 A 
ENDROOT
BRANCH   1  12
HETATM   12  N1  UNL     1      25.978   0.110  53.372  1.00  0.00    -0.331 N 
HETATM   13  C4  UNL     1      26.741   1.368  53.461  1.00  0.00     0.155 C 
HETATM   14  C3  UNL     1      28.134   0.897  53.813  1.00  0.00    -0.005 C 
HETATM   15  C2  UNL     1      28.607  -0.329  53.510  1.00  0.00    -0.082 C 
HETATM   16  C1  UNL     1      29.950  -0.914  53.799  1.00  0.00     0.043 C 
HETATM   17  C20 UNL     1      27.772  -1.320  52.798  1.00  0.00     0.092 C 
HETATM   18  C19 UNL     1      26.476  -0.715  52.284  1.00  0.00     0.277 C 
HETATM   19  F1  UNL     1      26.785   0.055  51.187  1.00  0.00    -0.226 F 
ENDBRANCH   1  12
BRANCH   9  20
HETATM   20  O1  UNL     1      21.504   0.973  50.980  1.00  0.00    -0.349 OA
BRANCH  20  21
HETATM   21  C12 UNL     1      22.013   1.818  50.151  1.00  0.00     0.196 C 
BRANCH  21  22
HETATM   22  C13 UNL     1      22.580   2.760  49.225  1.00  0.00     0.156 C 
BRANCH  22  23
HETATM   23  N4  UNL     1      21.654   3.067  48.103  1.00  0.00    -0.348 N 
HETATM   24  C14 UNL     1      22.031   3.573  46.924  1.00  0.00     0.111 A 
HETATM   25  C15 UNL     1      20.929   3.735  46.124  1.00  0.00     0.135 A 
HETATM   26  N5  UNL     1      19.875   3.304  46.871  1.00  0.00    -0.255 NA
HETATM   27  C16 UNL     1      20.323   2.902  48.068  1.00  0.00     0.209 A 
ENDBRANCH  22  23
ENDBRANCH  21  22
ENDBRANCH  20  21
ENDBRANCH   9  20
TORSDOF 5
ENDMDL
MODEL 3
REMARK VINA RESULT:      -8.2      1.675      5.267
REMARK  5 active torsions:
REMARK  status: ('A' for Active; 'I' for Inactive)
REMARK    1  A    between atoms: N1_5  and  C5_6 
REMARK    2  A    between atoms: C11_14  and  O1_15 
REMARK    3  A    between atoms: O1_15  and  C12_16 
REMARK    4  A    between atoms: C12_16  and  C13_17 
REMARK    5  A    between atoms: C13_17  and  N4_18 
ROOT
HETATM    1  C5  UNL     1      25.841   2.435  51.380  1.00  0.00     0.142 A 
HETATM    2  N2  UNL     1      26.918   2.797  50.701  1.00  0.00    -0.224 NA
HETATM    3  C6  UNL     1      26.735   3.700  49.693  1.00  0.00     0.236 A 
HETATM    4  N3  UNL     1      25.547   4.260  49.322  1.00  0.00    -0.241 NA
HETATM    5  C7  UNL     1      24.451   3.882  50.027  1.00  0.00     0.072 A 
HETATM    6  C8  UNL     1      23.194   4.354  49.783  1.00  0.00     0.042 A 
HETATM    7  C9  UNL     1      22.080   3.946  50.532  1.00  0.00    -0.026 A 
HETATM    8  C10 UNL     1      20.765   4.549  50.151  1.00  0.00     0.051 C 
HETATM    9  C11 UNL     1      22.313   3.036  51.537  1.00  0.00     0.075 A 
HETATM   10  C17 UNL     1      23.561   2.530  51.821  1.00  0.00     0.055 A 
HETATM   11  C18 UNL     1      24.618   2.972  51.048  1.00  0.00     0.041 A 
ENDROOT
BRANCH   1  12
HETATM   12  N1  UNL     1      26.071   1.489  52.419  1.00  0.00    -0.331 N 
HETATM   13  C4  UNL     1      25.911   0.027  52.514  1.00  0.00     0.155 C 
HETATM   14  C3  UNL     1      27.329  -0.457  52.717  1.00  0.00    -0.005 C 
HETATM   15  C2  UNL     1      28.306   0.297  53.260  1.00  0.00    -0.082 C 
HETATM   16  C1  UNL     1      29.734  -0.057  53.513  1.00  0.00     0.043 C 
HETATM   17  C20 UNL     1      28.050   1.686  53.700  1.00  0.00     0.092 C 
HETATM   18  C19 UNL     1      26.570   2.032  53.670  1.00  0.00     0.277 C 
HETATM   19  F1  UNL     1      25.978   1.411  54.745  1.00  0.00    -0.226 F 
ENDBRANCH   1  12
BRANCH   9  20
HETATM   20  O1  UNL     1      21.091   2.759  52.159  1.00  0.00    -0.349 OA
BRANCH  20  21
HETATM   21  C12 UNL     1      20.558   1.654  52.555  1.00  0.00     0.196 C 
BRANCH  21  22
HETATM   22  C13 UNL     1      19.964   0.423  52.998  1.00  0.00     0.156 C 
BRANCH  22  23
HETATM   23  N4  UNL     1      20.918  -0.408  53.778  1.00  0.00    -0.348 N 
HETATM   24  C14 UNL     1      22.178  -0.058  54.060  1.00  0.00     0.111 A 
HETATM   25  C15 UNL     1      22.775  -1.053  54.790  1.00  0.00     0.135 A 
HETATM   26  N5  UNL     1      21.823  -2.015  54.936  1.00  0.00    -0.255 NA
HETATM   27  C16 UNL     1      20.701  -1.616  54.320  1.00  0.00     0.209 A 
ENDBRANCH  22  23
ENDBRANCH  21  22
ENDBRANCH  20  21
ENDBRANCH   9  20
TORSDOF 5
ENDMDL
MODEL 4
REMARK VINA RESULT:      -8.1      2.380      5.424
REMARK  5 active torsions:
REMARK  status: ('A' for Active; 'I' for Inactive)
REMARK    1  A    between atoms: N1_5  and  C5_6 
REMARK    2  A    between atoms: C11_14  and  O1_15 
REMARK    3  A    between atoms: O1_15  and  C12_16 
REMARK    4  A    between atoms: C12_16  and  C13_17 
REMARK    5  A    between atoms: C13_17  and  N4_18 
ROOT
HETATM    1  C5  UNL     1      25.806   1.344  52.150  1.00  0.00     0.142 A 
HETATM    2  N2  UNL     1      26.774   1.864  51.413  1.00  0.00    -0.224 NA
HETATM    3  C6  UNL     1      26.429   2.894  50.584  1.00  0.00     0.236 A 
HETATM    4  N3  UNL     1      25.184   3.432  50.447  1.00  0.00    -0.241 NA
HETATM    5  C7  UNL     1      24.200   2.891  51.209  1.00  0.00     0.072 A 
HETATM    6  C8  UNL     1      22.905   3.319  51.191  1.00  0.00     0.042 A 
HETATM    7  C9  UNL     1      21.911   2.740  51.994  1.00  0.00    -0.026 A 
HETATM    8  C10 UNL     1      20.535   3.315  51.869  1.00  0.00     0.051 C 
HETATM    9  C11 UNL     1      22.305   1.707  52.813  1.00  0.00     0.075 A 
HETATM   10  C17 UNL     1      23.597   1.239  52.867  1.00  0.00     0.055 A 
HETATM   11  C18 UNL     1      24.530   1.851  52.051  1.00  0.00     0.041 A 
ENDROOT
BRANCH   1  12
HETATM   12  N1  UNL     1      26.202   0.270  52.997  1.00  0.00    -0.331 N 
HETATM   13  C4  UNL     1      26.229  -1.194  52.834  1.00  0.00     0.155 C 
HETATM   14  C3  UNL     1      27.705  -1.518  52.909  1.00  0.00    -0.005 C 
HETATM   15  C2  UNL     1      28.606  -0.748  53.551  1.00  0.00    -0.082 C 
HETATM   16  C1  UNL     1      30.078  -0.952  53.698  1.00  0.00     0.043 C 
HETATM   17  C20 UNL     1      28.203   0.497  54.238  1.00  0.00     0.092 C 
HETATM   18  C19 UNL     1      26.692   0.648  54.312  1.00  0.00     0.277 C 
HETATM   19  F1  UNL     1      26.235  -0.223  55.274  1.00  0.00    -0.226 F 
ENDBRANCH   1  12
BRANCH   9  20
HETATM   20  O1  UNL     1      21.182   1.270  53.525  1.00  0.00    -0.349 OA
BRANCH  20  21
HETATM   21  C12 UNL     1      20.646   0.105  53.655  1.00  0.00     0.196 C 
BRANCH  21  22
HETATM   22  C13 UNL     1      20.049  -1.193  53.801  1.00  0.00     0.156 C 
BRANCH  22  23
HETATM   23  N4  UNL     1      18.686  -1.252  53.209  1.00  0.00    -0.348 N 
HETATM   24  C14 UNL     1      18.222  -0.402  52.286  1.00  0.00     0.111 A 
HETATM   25  C15 UNL     1      16.932  -0.740  51.963  1.00  0.00     0.135 A 
HETATM   26  N5  UNL     1      16.641  -1.827  52.731  1.00  0.00    -0.255 NA
HETATM   27  C16 UNL     1      17.709  -2.129  53.483  1.00  0.00     0.209 A 
ENDBRANCH  22  23
ENDBRANCH  21  22
ENDBRANCH  20  21
ENDBRANCH   9  20
TORSDOF 5
ENDMDL
MODEL 5
REMARK VINA RESULT:      -8.0      1.873      2.370
REMARK  5 active torsions:
REMARK  status: ('A' for Active; 'I' for Inactive)
REMARK    1  A    between atoms: N1_5  and  C5_6 
REMARK    2  A    between atoms: C11_14  and  O1_15 
REMARK    3  A    between atoms: O1_15  and  C12_16 
REMARK    4  A    between atoms: C12_16  and  C13_17 
REMARK    5  A    between atoms: C13_17  and  N4_18 
ROOT
HETATM    1  C5  UNL     1      24.108   0.631  53.212  1.00  0.00     0.142 A 
HETATM    2  N2  UNL     1      23.896  -0.586  53.688  1.00  0.00    -0.224 NA
HETATM    3  C6  UNL     1      22.596  -0.993  53.778  1.00  0.00     0.236 A 
HETATM    4  N3  UNL     1      21.499  -0.263  53.425  1.00  0.00    -0.241 NA
HETATM    5  C7  UNL     1      21.729   0.983  52.938  1.00  0.00     0.072 A 
HETATM    6  C8  UNL     1      20.741   1.834  52.538  1.00  0.00     0.042 A 
HETATM    7  C9  UNL     1      21.012   3.115  52.034  1.00  0.00    -0.026 A 
HETATM    8  C10 UNL     1      19.827   3.937  51.633  1.00  0.00     0.051 C 
HETATM    9  C11 UNL     1      22.336   3.481  51.961  1.00  0.00     0.075 A 
HETATM   10  C17 UNL     1      23.367   2.660  52.353  1.00  0.00     0.055 A 
HETATM   11  C18 UNL     1      23.035   1.409  52.840  1.00  0.00     0.041 A 
ENDROOT
BRANCH   1  12
HETATM   12  N1  UNL     1      25.475   1.021  53.139  1.00  0.00    -0.331 N 
HETATM   13  C4  UNL     1      26.413   1.621  54.104  1.00  0.00     0.155 C 
HETATM   14  C3  UNL     1      27.459   0.542  54.277  1.00  0.00    -0.005 C 
HETATM   15  C2  UNL     1      27.729  -0.392  53.343  1.00  0.00    -0.082 C 
HETATM   16  C1  UNL     1      28.727  -1.502  53.389  1.00  0.00     0.043 C 
HETATM   17  C20 UNL     1      27.000  -0.427  52.057  1.00  0.00     0.092 C 
HETATM   18  C19 UNL     1      26.128   0.802  51.859  1.00  0.00     0.277 C 
HETATM   19  F1  UNL     1      26.958   1.853  51.545  1.00  0.00    -0.226 F 
ENDBRANCH   1  12
BRANCH   9  20
HETATM   20  O1  UNL     1      22.396   4.779  51.440  1.00  0.00    -0.349 OA
BRANCH  20  21
HETATM   21  C12 UNL     1      23.039   5.275  50.439  1.00  0.00     0.196 C 
BRANCH  21  22
HETATM   22  C13 UNL     1      23.755   5.827  49.323  1.00  0.00     0.156 C 
BRANCH  22  23
HETATM   23  N4  UNL     1      25.122   5.254  49.198  1.00  0.00    -0.348 N 
HETATM   24  C14 UNL     1      26.191   5.929  48.762  1.00  0.00     0.111 A 
HETATM   25  C15 UNL     1      27.286   5.102  48.769  1.00  0.00     0.135 A 
HETATM   26  N5  UNL     1      26.829   3.904  49.227  1.00  0.00    -0.255 NA
HETATM   27  C16 UNL     1      25.517   4.005  49.484  1.00  0.00     0.209 A 
ENDBRANCH  22  23
ENDBRANCH  21  22
ENDBRANCH  20  21
ENDBRANCH   9  20
TORSDOF 5
ENDMDL
MODEL 6
REMARK VINA RESULT:      -7.9      2.561      5.439
REMARK  5 active torsions:
REMARK  status: ('A' for Active; 'I' for Inactive)
REMARK    1  A    between atoms: N1_5  and  C5_6 
REMARK    2  A    between atoms: C11_14  and  O1_15 
REMARK    3  A    between atoms: O1_15  and  C12_16 
REMARK    4  A    between atoms: C12_16  and  C13_17 
REMARK    5  A    between atoms: C13_17  and  N4_18 
ROOT
HETATM    1  C5  UNL     1      21.494   3.378  51.423  1.00  0.00     0.142 A 
HETATM    2  N2  UNL     1      20.296   3.853  51.121  1.00  0.00    -0.224 NA
HETATM    3  C6  UNL     1      19.221   3.133  51.558  1.00  0.00     0.236 A 
HETATM    4  N3  UNL     1      19.268   1.973  52.274  1.00  0.00    -0.241 NA
HETATM    5  C7  UNL     1      20.502   1.496  52.578  1.00  0.00     0.072 A 
HETATM    6  C8  UNL     1      20.718   0.353  53.290  1.00  0.00     0.042 A 
HETATM    7  C9  UNL     1      22.007  -0.112  53.591  1.00  0.00    -0.026 A 
HETATM    8  C10 UNL     1      22.089  -1.380  54.381  1.00  0.00     0.051 C 
HETATM    9  C11 UNL     1      23.059   0.645  53.131  1.00  0.00     0.075 A 
HETATM   10  C17 UNL     1      22.893   1.805  52.409  1.00  0.00     0.055 A 
HETATM   11  C18 UNL     1      21.598   2.210  52.145  1.00  0.00     0.041 A 
ENDROOT
BRANCH   1  12
HETATM   12  N1  UNL     1      22.589   4.152  50.945  1.00  0.00    -0.331 N 
HETATM   13  C4  UNL     1      23.604   4.991  51.606  1.00  0.00     0.155 C 
HETATM   14  C3  UNL     1      24.895   4.264  51.304  1.00  0.00    -0.005 C 
HETATM   15  C2  UNL     1      25.067   3.458  50.237  1.00  0.00    -0.082 C 
HETATM   16  C1  UNL     1      26.279   2.689  49.828  1.00  0.00     0.043 C 
HETATM   17  C20 UNL     1      23.975   3.223  49.268  1.00  0.00     0.092 C 
HETATM   18  C19 UNL     1      22.789   4.144  49.506  1.00  0.00     0.277 C 
HETATM   19  F1  UNL     1      23.140   5.395  49.053  1.00  0.00    -0.226 F 
ENDBRANCH   1  12
BRANCH   9  20
HETATM   20  O1  UNL     1      24.246   0.021  53.529  1.00  0.00    -0.349 OA
BRANCH  20  21
HETATM   21  C12 UNL     1      25.424   0.001  53.007  1.00  0.00     0.196 C 
BRANCH  21  22
HETATM   22  C13 UNL     1      26.738  -0.023  52.425  1.00  0.00     0.156 C 
BRANCH  22  23
HETATM   23  N4  UNL     1      27.692   0.844  53.165  1.00  0.00    -0.348 N 
HETATM   24  C14 UNL     1      28.755   0.398  53.845  1.00  0.00     0.111 A 
HETATM   25  C15 UNL     1      29.415   1.461  54.407  1.00  0.00     0.135 A 
HETATM   26  N5  UNL     1      28.705   2.563  54.037  1.00  0.00    -0.255 NA
HETATM   27  C16 UNL     1      27.663   2.180  53.285  1.00  0.00     0.209 A 
ENDBRANCH  22  23
ENDBRANCH  21  22
ENDBRANCH  20  21
ENDBRANCH   9  20
TORSDOF 5
ENDMDL
MODEL 7
REMARK VINA RESULT:      -7.7      2.364      4.956
REMARK  5 active torsions:
REMARK  status: ('A' for Active; 'I' for Inactive)
REMARK    1  A    between atoms: N1_5  and  C5_6 
REMARK    2  A    between atoms: C11_14  and  O1_15 
REMARK    3  A    between atoms: O1_15  and  C12_16 
REMARK    4  A    between atoms: C12_16  and  C13_17 
REMARK    5  A    between atoms: C13_17  and  N4_18 
ROOT
HETATM    1  C5  UNL     1      21.935   0.483  52.986  1.00  0.00     0.142 A 
HETATM    2  N2  UNL     1      21.110  -0.266  53.700  1.00  0.00    -0.224 NA
HETATM    3  C6  UNL     1      21.680  -1.125  54.596  1.00  0.00     0.236 A 
HETATM    4  N3  UNL     1      23.016  -1.283  54.820  1.00  0.00    -0.241 NA
HETATM    5  C7  UNL     1      23.852  -0.508  54.082  1.00  0.00     0.072 A 
HETATM    6  C8  UNL     1      25.211  -0.544  54.191  1.00  0.00     0.042 A 
HETATM    7  C9  UNL     1      26.048   0.273  53.416  1.00  0.00    -0.026 A 
HETATM    8  C10 UNL     1      27.519   0.125  53.645  1.00  0.00     0.051 C 
HETATM    9  C11 UNL     1      25.430   1.123  52.528  1.00  0.00     0.075 A 
HETATM   10  C17 UNL     1      24.064   1.195  52.381  1.00  0.00     0.055 A 
HETATM   11  C18 UNL     1      23.293   0.365  53.174  1.00  0.00     0.041 A 
ENDROOT
BRANCH   1  12
HETATM   12  N1  UNL     1      21.305   1.362  52.060  1.00  0.00    -0.331 N 
HETATM   13  C4  UNL     1      21.163   2.826  51.986  1.00  0.00     0.155 C 
HETATM   14  C3  UNL     1      21.923   3.179  50.727  1.00  0.00    -0.005 C 
HETATM   15  C2  UNL     1      22.112   2.321  49.704  1.00  0.00    -0.082 C 
HETATM   16  C1  UNL     1      22.838   2.540  48.418  1.00  0.00     0.043 C 
HETATM   17  C20 UNL     1      21.579   0.942  49.748  1.00  0.00     0.092 C 
HETATM   18  C19 UNL     1      20.648   0.726  50.931  1.00  0.00     0.277 C 
HETATM   19  F1  UNL     1      19.457   1.350  50.640  1.00  0.00    -0.226 F 
ENDBRANCH   1  12
BRANCH   9  20
HETATM   20  O1  UNL     1      26.424   1.843  51.857  1.00  0.00    -0.349 OA
BRANCH  20  21
HETATM   21  C12 UNL     1      26.415   2.489  50.742  1.00  0.00     0.196 C 
BRANCH  21  22
HETATM   22  C13 UNL     1      26.404   3.210  49.500  1.00  0.00     0.156 C 
BRANCH  22  23
HETATM   23  N4  UNL     1      25.996   4.628  49.680  1.00  0.00    -0.348 N 
HETATM   24  C14 UNL     1      26.554   5.666  49.046  1.00  0.00     0.111 A 
HETATM   25  C15 UNL     1      25.941   6.826  49.447  1.00  0.00     0.135 A 
HETATM   26  N5  UNL     1      24.994   6.443  50.346  1.00  0.00    -0.255 NA
HETATM   27  C16 UNL     1      25.035   5.110  50.482  1.00  0.00     0.209 A 
ENDBRANCH  22  23
ENDBRANCH  21  22
ENDBRANCH  20  21
ENDBRANCH   9  20
TORSDOF 5
ENDMDL
MODEL 8
REMARK VINA RESULT:      -7.7      2.758      6.025
REMARK  5 active torsions:
REMARK  status: ('A' for Active; 'I' for Inactive)
REMARK    1  A    between atoms: N1_5  and  C5_6 
REMARK    2  A    between atoms: C11_14  and  O1_15 
REMARK    3  A    between atoms: O1_15  and  C12_16 
REMARK    4  A    between atoms: C12_16  and  C13_17 
REMARK    5  A    between atoms: C13_17  and  N4_18 
ROOT
HETATM    1  C5  UNL     1      19.553   0.860  51.539  1.00  0.00     0.142 A 
HETATM    2  N2  UNL     1      18.300   0.454  51.418  1.00  0.00    -0.224 NA
HETATM    3  C6  UNL     1      17.885  -0.526  52.275  1.00  0.00     0.236 A 
HETATM    4  N3  UNL     1      18.643  -1.122  53.240  1.00  0.00    -0.241 NA
HETATM    5  C7  UNL     1      19.927  -0.696  53.355  1.00  0.00     0.072 A 
HETATM    6  C8  UNL     1      20.809  -1.188  54.271  1.00  0.00     0.042 A 
HETATM    7  C9  UNL     1      22.129  -0.724  54.367  1.00  0.00    -0.026 A 
HETATM    8  C10 UNL     1      22.982  -1.356  55.421  1.00  0.00     0.051 C 
HETATM    9  C11 UNL     1      22.501   0.263  53.484  1.00  0.00     0.075 A 
HETATM   10  C17 UNL     1      21.649   0.791  52.542  1.00  0.00     0.055 A 
HETATM   11  C18 UNL     1      20.361   0.292  52.498  1.00  0.00     0.041 A 
ENDROOT
BRANCH   1  12
HETATM   12  N1  UNL     1      19.949   1.878  50.625  1.00  0.00    -0.331 N 
HETATM   13  C4  UNL     1      20.064   3.343  50.725  1.00  0.00     0.155 C 
HETATM   14  C3  UNL     1      21.546   3.582  50.543  1.00  0.00    -0.005 C 
HETATM   15  C2  UNL     1      22.362   2.739  49.878  1.00  0.00    -0.082 C 
HETATM   16  C1  UNL     1      23.830   2.856  49.629  1.00  0.00     0.043 C 
HETATM   17  C20 UNL     1      21.849   1.493  49.270  1.00  0.00     0.092 C 
HETATM   18  C19 UNL     1      20.331   1.423  49.299  1.00  0.00     0.277 C 
HETATM   19  F1  UNL     1      19.859   2.281  48.332  1.00  0.00    -0.226 F 
ENDBRANCH   1  12
BRANCH   9  20
HETATM   20  O1  UNL     1      23.839   0.586  53.738  1.00  0.00    -0.349 OA
BRANCH  20  21
HETATM   21  C12 UNL     1      24.916   0.382  53.061  1.00  0.00     0.196 C 
BRANCH  21  22
HETATM   22  C13 UNL     1      26.116   0.153  52.305  1.00  0.00     0.156 C 
BRANCH  22  23
HETATM   23  N4  UNL     1      27.288  -0.111  53.182  1.00  0.00    -0.348 N 
HETATM   24  C14 UNL     1      27.624   0.629  54.244  1.00  0.00     0.111 A 
HETATM   25  C15 UNL     1      28.754   0.109  54.822  1.00  0.00     0.135 A 
HETATM   26  N5  UNL     1      29.082  -0.973  54.064  1.00  0.00    -0.255 NA
HETATM   27  C16 UNL     1      28.189  -1.098  53.072  1.00  0.00     0.209 A 
ENDBRANCH  22  23
ENDBRANCH  21  22
ENDBRANCH  20  21
ENDBRANCH   9  20
TORSDOF 5
ENDMDL
MODEL 9
REMARK VINA RESULT:      -7.6      2.678      6.983
REMARK  5 active torsions:
REMARK  status: ('A' for Active; 'I' for Inactive)
REMARK    1  A    between atoms: N1_5  and  C5_6 
REMARK    2  A    between atoms: C11_14  and  O1_15 
REMARK    3  A    between atoms: O1_15  and  C12_16 
REMARK    4  A    between atoms: C12_16  and  C13_17 
REMARK    5  A    between atoms: C13_17  and  N4_18 
ROOT
HETATM    1  C5  UNL     1      24.242   3.594  50.905  1.00  0.00     0.142 A 
HETATM    2  N2  UNL     1      24.971   4.409  50.161  1.00  0.00    -0.224 NA
HETATM    3  C6  UNL     1      26.278   4.061  49.967  1.00  0.00     0.236 A 
HETATM    4  N3  UNL     1      26.897   2.954  50.469  1.00  0.00    -0.241 NA
HETATM    5  C7  UNL     1      26.137   2.125  51.230  1.00  0.00     0.072 A 
HETATM    6  C8  UNL     1      26.606   0.977  51.799  1.00  0.00     0.042 A 
HETATM    7  C9  UNL     1      25.794   0.139  52.578  1.00  0.00    -0.026 A 
HETATM    8  C10 UNL     1      26.446  -1.086  53.137  1.00  0.00     0.051 C 
HETATM    9  C11 UNL     1      24.486   0.530  52.745  1.00  0.00     0.075 A 
HETATM   10  C17 UNL     1      23.967   1.678  52.192  1.00  0.00     0.055 A 
HETATM   11  C18 UNL     1      24.817   2.461  51.435  1.00  0.00     0.041 A 
ENDROOT
BRANCH   1  12
HETATM   12  N1  UNL     1      22.887   3.993  51.089  1.00  0.00    -0.331 N 
HETATM   13  C4  UNL     1      22.199   4.812  52.102  1.00  0.00     0.155 C 
HETATM   14  C3  UNL     1      21.705   5.997  51.303  1.00  0.00    -0.005 C 
HETATM   15  C2  UNL     1      21.458   5.954  49.978  1.00  0.00    -0.082 C 
HETATM   16  C1  UNL     1      20.972   7.043  49.079  1.00  0.00     0.043 C 
HETATM   17  C20 UNL     1      21.663   4.715  49.198  1.00  0.00     0.092 C 
HETATM   18  C19 UNL     1      21.946   3.517  50.090  1.00  0.00     0.277 C 
HETATM   19  F1  UNL     1      20.757   3.145  50.674  1.00  0.00    -0.226 F 
ENDBRANCH   1  12
BRANCH   9  20
HETATM   20  O1  UNL     1      23.849  -0.427  53.543  1.00  0.00    -0.349 OA
BRANCH  20  21
HETATM   21  C12 UNL     1      22.636  -0.523  53.968  1.00  0.00     0.196 C 
BRANCH  21  22
HETATM   22  C13 UNL     1      21.284  -0.629  54.441  1.00  0.00     0.156 C 
BRANCH  22  23
HETATM   23  N4  UNL     1      20.293  -0.426  53.351  1.00  0.00    -0.348 N 
HETATM   24  C14 UNL     1      20.548   0.205  52.199  1.00  0.00     0.111 A 
HETATM   25  C15 UNL     1      19.416   0.215  51.425  1.00  0.00     0.135 A 
HETATM   26  N5  UNL     1      18.471  -0.435  52.159  1.00  0.00    -0.255 NA
HETATM   27  C16 UNL     1      19.011  -0.819  53.324  1.00  0.00     0.209 A 
ENDBRANCH  22  23
ENDBRANCH  21  22
ENDBRANCH  20  21
ENDBRANCH   9  20
TORSDOF 5
ENDMDL
