MODEL 1
REMARK VINA RESULT:      -6.7      0.000      0.000
REMARK  10 active torsions:
REMARK  status: ('A' for Active; 'I' for Inactive)
REMARK    1  A    between atoms: O1_1  and  C1_2 
REMARK    2  A    between atoms: C1_2  and  C2_3 
REMARK    3  A    between atoms: C2_3  and  N1_4 
REMARK    4  A    between atoms: N1_4  and  C3_5 
REMARK    5  A    between atoms: N1_4  and  C5_8 
REMARK    6  A    between atoms: C3_5  and  C4_6 
REMARK    7  A    between atoms: C5_8  and  C6_9 
REMARK    8  A    between atoms: C6_9  and  C7_10 
REMARK    9  A    between atoms: C13_18  and  C14_19 
REMARK   10  A    between atoms: C14_19  and  O2_20 
ROOT
HETATM    1  C7  UNL     1      24.715   0.912  52.389  1.00  0.00    -0.045 C 
HETATM    2  C8  UNL     1      24.819   0.044  53.483  1.00  0.00     0.018 C 
HETATM    3  C9  UNL     1      26.234  -0.186  53.817  1.00  0.00    -0.016 C 
HETATM    4  C10 UNL     1      27.060   0.084  54.820  1.00  0.00     0.118 C 
HETATM    5  F1  UNL     1      26.232  -0.321  55.873  1.00  0.00    -0.208 F 
HETATM    6  C11 UNL     1      28.422   0.703  54.420  1.00  0.00     0.190 C 
HETATM    7  N2  UNL     1      28.117   1.506  53.171  1.00  0.00    -0.386 N 
HETATM    8  C12 UNL     1      27.075   0.946  52.413  1.00  0.00     0.018 C 
HETATM    9  C13 UNL     1      26.021   1.414  51.813  1.00  0.00    -0.006 C 
HETATM   10  C15 UNL     1      27.066  -0.628  52.558  1.00  0.00     0.099 C 
HETATM   11  H17 UNL     1      28.348   2.379  52.590  1.00  0.00     0.159 HD
ENDROOT
BRANCH   1  12
HETATM   12  C6  UNL     1      23.418   1.375  51.951  1.00  0.00     0.069 C 
BRANCH  12  13
HETATM   13  C5  UNL     1      22.381   1.282  53.039  1.00  0.00     0.277 C 
BRANCH  13  14
HETATM   14  N1  UNL     1      21.044   1.047  52.464  1.00  0.00     0.091 N 
BRANCH  14  15
HETATM   15  C2  UNL     1      20.374   0.097  53.323  1.00  0.00     0.298 C 
BRANCH  15  16
HETATM   16  C1  UNL     1      21.302  -0.374  54.447  1.00  0.00     0.194 C 
BRANCH  16  17
HETATM   17  O1  UNL     1      20.783  -1.628  54.846  1.00  0.00    -0.399 OA
HETATM   18  H1  UNL     1      20.352  -1.561  55.751  1.00  0.00     0.209 HD
ENDBRANCH  16  17
ENDBRANCH  15  16
ENDBRANCH  14  15
BRANCH  14  19
HETATM   19  C3  UNL     1      21.236   0.334  51.184  1.00  0.00     0.283 C 
BRANCH  19  20
HETATM   20  C4  UNL     1      20.389   0.986  50.143  1.00  0.00     0.115 C 
HETATM   21 BR1  UNL     1      21.482   1.427  48.585  1.00  0.00    -0.095 Br
ENDBRANCH  19  20
ENDBRANCH  14  19
ENDBRANCH  13  14
ENDBRANCH  12  13
ENDBRANCH   1  12
BRANCH   9  22
HETATM   22  C14 UNL     1      26.223   2.448  50.844  1.00  0.00     0.205 C 
BRANCH  22  23
HETATM   23  O2  UNL     1      27.281   3.290  51.144  1.00  0.00    -0.396 OA
HETATM   24  H20 UNL     1      26.988   4.226  51.250  1.00  0.00     0.209 HD
ENDBRANCH  22  23
ENDBRANCH   9  22
TORSDOF 10
ENDMDL
MODEL 2
REMARK VINA RESULT:      -6.6      2.899      6.793
REMARK  10 active torsions:
REMARK  status: ('A' for Active; 'I' for Inactive)
REMARK    1  A    between atoms: O1_1  and  C1_2 
REMARK    2  A    between atoms: C1_2  and  C2_3 
REMARK    3  A    between atoms: C2_3  and  N1_4 
REMARK    4  A    between atoms: N1_4  and  C3_5 
REMARK    5  A    between atoms: N1_4  and  C5_8 
REMARK    6  A    between atoms: C3_5  and  C4_6 
REMARK    7  A    between atoms: C5_8  and  C6_9 
REMARK    8  A    between atoms: C6_9  and  C7_10 
REMARK    9  A    between atoms: C13_18  and  C14_19 
REMARK   10  A    between atoms: C14_19  and  O2_20 
ROOT
HETATM    1  C7  UNL     1      23.438   0.217  53.139  1.00  0.00    -0.045 C 
HETATM    2  C8  UNL     1      23.443   1.467  52.508  1.00  0.00     0.018 C 
HETATM    3  C9  UNL     1      22.109   1.765  51.962  1.00  0.00    -0.016 C 
HETATM    4  C10 UNL     1      21.134   2.638  52.181  1.00  0.00     0.118 C 
HETATM    5  F1  UNL     1      21.915   3.798  52.237  1.00  0.00    -0.208 F 
HETATM    6  C11 UNL     1      19.712   2.039  52.304  1.00  0.00     0.190 C 
HETATM    7  N2  UNL     1      19.934   0.663  52.899  1.00  0.00    -0.386 N 
HETATM    8  C12 UNL     1      21.165   0.103  52.515  1.00  0.00     0.018 C 
HETATM    9  C13 UNL     1      22.120  -0.526  53.133  1.00  0.00    -0.006 C 
HETATM   10  C15 UNL     1      21.569   0.591  51.067  1.00  0.00     0.099 C 
HETATM   11  H17 UNL     1      19.550  -0.107  53.541  1.00  0.00     0.159 HD
ENDROOT
BRANCH   1  12
HETATM   12  C6  UNL     1      24.610  -0.241  53.851  1.00  0.00     0.069 C 
BRANCH  12  13
HETATM   13  C5  UNL     1      25.889   0.162  53.164  1.00  0.00     0.277 C 
BRANCH  13  14
HETATM   14  N1  UNL     1      26.661   1.090  54.009  1.00  0.00     0.091 N 
BRANCH  14  15
HETATM   15  C2  UNL     1      27.484   1.885  53.124  1.00  0.00     0.298 C 
BRANCH  15  16
HETATM   16  C1  UNL     1      26.879   1.938  51.717  1.00  0.00     0.194 C 
BRANCH  16  17
HETATM   17  O1  UNL     1      27.230   3.214  51.218  1.00  0.00    -0.399 OA
HETATM   18  H1  UNL     1      26.412   3.785  51.101  1.00  0.00     0.209 HD
ENDBRANCH  16  17
ENDBRANCH  15  16
ENDBRANCH  14  15
BRANCH  14  19
HETATM   19  C3  UNL     1      27.617   0.279  54.791  1.00  0.00     0.283 C 
BRANCH  19  20
HETATM   20  C4  UNL     1      28.995   0.548  54.287  1.00  0.00     0.115 C 
HETATM   21 BR1  UNL     1      29.757  -1.092  53.545  1.00  0.00    -0.095 Br
ENDBRANCH  19  20
ENDBRANCH  14  19
ENDBRANCH  13  14
ENDBRANCH  12  13
ENDBRANCH   1  12
BRANCH   9  22
HETATM   22  C14 UNL     1      21.765  -1.708  53.859  1.00  0.00     0.205 C 
BRANCH  22  23
HETATM   23  O2  UNL     1      20.875  -1.475  54.894  1.00  0.00    -0.396 OA
HETATM   24  H20 UNL     1      19.965  -1.787  54.675  1.00  0.00     0.209 HD
ENDBRANCH  22  23
ENDBRANCH   9  22
TORSDOF 10
ENDMDL
MODEL 3
REMARK VINA RESULT:      -6.6      3.969      6.236
REMARK  10 active torsions:
REMARK  status: ('A' for Active; 'I' for Inactive)
REMARK    1  A    between atoms: O1_1  and  C1_2 
REMARK    2  A    between atoms: C1_2  and  C2_3 
REMARK    3  A    between atoms: C2_3  and  N1_4 
REMARK    4  A    between atoms: N1_4  and  C3_5 
REMARK    5  A    between atoms: N1_4  and  C5_8 
REMARK    6  A    between atoms: C3_5  and  C4_6 
REMARK    7  A    between atoms: C5_8  and  C6_9 
REMARK    8  A    between atoms: C6_9  and  C7_10 
REMARK    9  A    between atoms: C13_18  and  C14_19 
REMARK   10  A    between atoms: C14_19  and  O2_20 
ROOT
HETATM    1  C7  UNL     1      25.890   2.484  50.907  1.00  0.00    -0.045 C 
HETATM    2  C8  UNL     1      26.515   2.947  49.742  1.00  0.00     0.018 C 
HETATM    3  C9  UNL     1      25.938   4.240  49.336  1.00  0.00    -0.016 C 
HETATM    4  C10 UNL     1      26.337   5.501  49.237  1.00  0.00     0.118 C 
HETATM    5  F1  UNL     1      27.552   5.275  48.581  1.00  0.00    -0.208 F 
HETATM    6  C11 UNL     1      25.391   6.555  49.864  1.00  0.00     0.190 C 
HETATM    7  N2  UNL     1      24.741   5.831  51.027  1.00  0.00    -0.386 N 
HETATM    8  C12 UNL     1      24.595   4.454  50.788  1.00  0.00     0.018 C 
HETATM    9  C13 UNL     1      24.809   3.374  51.480  1.00  0.00    -0.006 C 
HETATM   10  C15 UNL     1      24.370   4.177  49.248  1.00  0.00     0.099 C 
HETATM   11  H17 UNL     1      24.340   5.911  52.019  1.00  0.00     0.159 HD
ENDROOT
BRANCH   1  12
HETATM   12  C6  UNL     1      26.368   1.286  51.558  1.00  0.00     0.069 C 
BRANCH  12  13
HETATM   13  C5  UNL     1      27.364   1.587  52.648  1.00  0.00     0.277 C 
BRANCH  13  14
HETATM   14  N1  UNL     1      26.977   0.918  53.903  1.00  0.00     0.091 N 
BRANCH  14  15
HETATM   15  C2  UNL     1      28.200   0.561  54.588  1.00  0.00     0.298 C 
BRANCH  15  16
HETATM   16  C1  UNL     1      29.402   1.283  53.972  1.00  0.00     0.194 C 
BRANCH  16  17
HETATM   17  O1  UNL     1      29.705   2.324  54.880  1.00  0.00    -0.399 OA
HETATM   18  H1  UNL     1      29.717   1.978  55.824  1.00  0.00     0.209 HD
ENDBRANCH  16  17
ENDBRANCH  15  16
ENDBRANCH  14  15
BRANCH  14  19
HETATM   19  C3  UNL     1      26.353  -0.371  53.540  1.00  0.00     0.283 C 
BRANCH  19  20
HETATM   20  C4  UNL     1      25.209  -0.624  54.464  1.00  0.00     0.115 C 
HETATM   21 BR1  UNL     1      23.525  -0.462  53.487  1.00  0.00    -0.095 Br
ENDBRANCH  19  20
ENDBRANCH  14  19
ENDBRANCH  13  14
ENDBRANCH  12  13
ENDBRANCH   1  12
BRANCH   9  22
HETATM   22  C14 UNL     1      24.150   3.265  52.746  1.00  0.00     0.205 C 
BRANCH  22  23
HETATM   23  O2  UNL     1      24.156   4.440  53.477  1.00  0.00    -0.396 OA
HETATM   24  H20 UNL     1      24.911   4.476  54.111  1.00  0.00     0.209 HD
ENDBRANCH  22  23
ENDBRANCH   9  22
TORSDOF 10
ENDMDL
MODEL 4
REMARK VINA RESULT:      -6.6      2.591      3.279
REMARK  10 active torsions:
REMARK  status: ('A' for Active; 'I' for Inactive)
REMARK    1  A    between atoms: O1_1  and  C1_2 
REMARK    2  A    between atoms: C1_2  and  C2_3 
REMARK    3  A    between atoms: C2_3  and  N1_4 
REMARK    4  A    between atoms: N1_4  and  C3_5 
REMARK    5  A    between atoms: N1_4  and  C5_8 
REMARK    6  A    between atoms: C3_5  and  C4_6 
REMARK    7  A    between atoms: C5_8  and  C6_9 
REMARK    8  A    between atoms: C6_9  and  C7_10 
REMARK    9  A    between atoms: C13_18  and  C14_19 
REMARK   10  A    between atoms: C14_19  and  O2_20 
ROOT
HETATM    1  C7  UNL     1      24.720   0.944  52.282  1.00  0.00    -0.045 C 
HETATM    2  C8  UNL     1      24.646   0.107  53.402  1.00  0.00     0.018 C 
HETATM    3  C9  UNL     1      25.998  -0.274  53.842  1.00  0.00    -0.016 C 
HETATM    4  C10 UNL     1      26.779  -0.068  54.894  1.00  0.00     0.118 C 
HETATM    5  F1  UNL     1      25.840  -0.339  55.895  1.00  0.00    -0.208 F 
HETATM    6  C11 UNL     1      28.229   0.375  54.578  1.00  0.00     0.190 C 
HETATM    7  N2  UNL     1      28.107   1.166  53.290  1.00  0.00    -0.386 N 
HETATM    8  C12 UNL     1      27.060   0.705  52.473  1.00  0.00     0.018 C 
HETATM    9  C13 UNL     1      26.112   1.271  51.788  1.00  0.00    -0.006 C 
HETATM   10  C15 UNL     1      26.856  -0.852  52.658  1.00  0.00     0.099 C 
HETATM   11  H17 UNL     1      28.478   1.985  52.705  1.00  0.00     0.159 HD
ENDROOT
BRANCH   1  12
HETATM   12  C6  UNL     1      23.520   1.539  51.740  1.00  0.00     0.069 C 
BRANCH  12  13
HETATM   13  C5  UNL     1      23.265   2.917  52.292  1.00  0.00     0.277 C 
BRANCH  13  14
HETATM   14  N1  UNL     1      23.014   3.875  51.201  1.00  0.00     0.091 N 
BRANCH  14  15
HETATM   15  C2  UNL     1      22.813   5.171  51.812  1.00  0.00     0.298 C 
BRANCH  15  16
HETATM   16  C1  UNL     1      23.803   6.198  51.255  1.00  0.00     0.194 C 
BRANCH  16  17
HETATM   17  O1  UNL     1      24.447   6.737  52.392  1.00  0.00    -0.399 OA
HETATM   18  H1  UNL     1      23.790   7.230  52.971  1.00  0.00     0.209 HD
ENDBRANCH  16  17
ENDBRANCH  15  16
ENDBRANCH  14  15
BRANCH  14  19
HETATM   19  C3  UNL     1      21.707   3.529  50.605  1.00  0.00     0.283 C 
BRANCH  19  20
HETATM   20  C4  UNL     1      21.732   3.893  49.158  1.00  0.00     0.115 C 
HETATM   21 BR1  UNL     1      22.463   2.409  48.118  1.00  0.00    -0.095 Br
ENDBRANCH  19  20
ENDBRANCH  14  19
ENDBRANCH  13  14
ENDBRANCH  12  13
ENDBRANCH   1  12
BRANCH   9  22
HETATM   22  C14 UNL     1      26.501   2.242  50.810  1.00  0.00     0.205 C 
BRANCH  22  23
HETATM   23  O2  UNL     1      27.316   3.241  51.314  1.00  0.00    -0.396 OA
HETATM   24  H20 UNL     1      26.795   3.959  51.746  1.00  0.00     0.209 HD
ENDBRANCH  22  23
ENDBRANCH   9  22
TORSDOF 10
ENDMDL
MODEL 5
REMARK VINA RESULT:      -6.5      2.170      2.601
REMARK  10 active torsions:
REMARK  status: ('A' for Active; 'I' for Inactive)
REMARK    1  A    between atoms: O1_1  and  C1_2 
REMARK    2  A    between atoms: C1_2  and  C2_3 
REMARK    3  A    between atoms: C2_3  and  N1_4 
REMARK    4  A    between atoms: N1_4  and  C3_5 
REMARK    5  A    between atoms: N1_4  and  C5_8 
REMARK    6  A    between atoms: C3_5  and  C4_6 
REMARK    7  A    between atoms: C5_8  and  C6_9 
REMARK    8  A    between atoms: C6_9  and  C7_10 
REMARK    9  A    between atoms: C13_18  and  C14_19 
REMARK   10  A    between atoms: C14_19  and  O2_20 
ROOT
HETATM    1  C7  UNL     1      24.487   1.214  52.276  1.00  0.00    -0.045 C 
HETATM    2  C8  UNL     1      24.467   0.284  53.324  1.00  0.00     0.018 C 
HETATM    3  C9  UNL     1      25.837  -0.143  53.651  1.00  0.00    -0.016 C 
HETATM    4  C10 UNL     1      26.679  -0.033  54.669  1.00  0.00     0.118 C 
HETATM    5  F1  UNL     1      25.795  -0.382  55.697  1.00  0.00    -0.208 F 
HETATM    6  C11 UNL     1      28.114   0.425  54.308  1.00  0.00     0.190 C 
HETATM    7  N2  UNL     1      27.928   1.324  53.102  1.00  0.00    -0.386 N 
HETATM    8  C12 UNL     1      26.831   0.942  52.311  1.00  0.00     0.018 C 
HETATM    9  C13 UNL     1      25.852   1.572  51.732  1.00  0.00    -0.006 C 
HETATM   10  C15 UNL     1      26.619  -0.623  52.374  1.00  0.00     0.099 C 
HETATM   11  H17 UNL     1      28.275   2.188  52.568  1.00  0.00     0.159 HD
ENDROOT
BRANCH   1  12
HETATM   12  C6  UNL     1      23.265   1.861  51.858  1.00  0.00     0.069 C 
BRANCH  12  13
HETATM   13  C5  UNL     1      22.177   0.872  51.531  1.00  0.00     0.277 C 
BRANCH  13  14
HETATM   14  N1  UNL     1      20.872   1.357  52.015  1.00  0.00     0.091 N 
BRANCH  14  15
HETATM   15  C2  UNL     1      20.913   2.802  51.969  1.00  0.00     0.298 C 
BRANCH  15  16
HETATM   16  C1  UNL     1      19.732   3.357  51.168  1.00  0.00     0.194 C 
BRANCH  16  17
HETATM   17  O1  UNL     1      18.724   3.604  52.129  1.00  0.00    -0.399 OA
HETATM   18  H1  UNL     1      18.492   4.582  52.156  1.00  0.00     0.209 HD
ENDBRANCH  16  17
ENDBRANCH  15  16
ENDBRANCH  14  15
BRANCH  14  19
HETATM   19  C3  UNL     1      20.784   1.024  53.452  1.00  0.00     0.283 C 
BRANCH  19  20
HETATM   20  C4  UNL     1      20.095  -0.292  53.595  1.00  0.00     0.115 C 
HETATM   21 BR1  UNL     1      21.334  -1.607  54.339  1.00  0.00    -0.095 Br
ENDBRANCH  19  20
ENDBRANCH  14  19
ENDBRANCH  13  14
ENDBRANCH  12  13
ENDBRANCH   1  12
BRANCH   9  22
HETATM   22  C14 UNL     1      26.196   2.620  50.819  1.00  0.00     0.205 C 
BRANCH  22  23
HETATM   23  O2  UNL     1      27.349   3.302  51.168  1.00  0.00    -0.396 OA
HETATM   24  H20 UNL     1      27.290   4.262  50.948  1.00  0.00     0.209 HD
ENDBRANCH  22  23
ENDBRANCH   9  22
TORSDOF 10
ENDMDL
MODEL 6
REMARK VINA RESULT:      -6.2      6.731      9.769
REMARK  10 active torsions:
REMARK  status: ('A' for Active; 'I' for Inactive)
REMARK    1  A    between atoms: O1_1  and  C1_2 
REMARK    2  A    between atoms: C1_2  and  C2_3 
REMARK    3  A    between atoms: C2_3  and  N1_4 
REMARK    4  A    between atoms: N1_4  and  C3_5 
REMARK    5  A    between atoms: N1_4  and  C5_8 
REMARK    6  A    between atoms: C3_5  and  C4_6 
REMARK    7  A    between atoms: C5_8  and  C6_9 
REMARK    8  A    between atoms: C6_9  and  C7_10 
REMARK    9  A    between atoms: C13_18  and  C14_19 
REMARK   10  A    between atoms: C14_19  and  O2_20 
ROOT
HETATM    1  C7  UNL     1      27.359   5.935  48.584  1.00  0.00    -0.045 C 
HETATM    2  C8  UNL     1      26.886   7.253  48.540  1.00  0.00     0.018 C 
HETATM    3  C9  UNL     1      25.550   7.333  49.154  1.00  0.00    -0.016 C 
HETATM    4  C10 UNL     1      24.997   7.889  50.224  1.00  0.00     0.118 C 
HETATM    5  F1  UNL     1      25.560   9.164  50.099  1.00  0.00    -0.208 F 
HETATM    6  C11 UNL     1      24.094   6.960  51.072  1.00  0.00     0.190 C 
HETATM    7  N2  UNL     1      24.706   5.584  50.901  1.00  0.00    -0.386 N 
HETATM    8  C12 UNL     1      25.316   5.419  49.646  1.00  0.00     0.018 C 
HETATM    9  C13 UNL     1      26.442   4.921  49.230  1.00  0.00    -0.006 C 
HETATM   10  C15 UNL     1      24.564   6.270  48.547  1.00  0.00     0.099 C 
HETATM   11  H17 UNL     1      24.907   4.632  51.354  1.00  0.00     0.159 HD
ENDROOT
BRANCH   1  12
HETATM   12  C6  UNL     1      28.701   5.632  48.141  1.00  0.00     0.069 C 
BRANCH  12  13
HETATM   13  C5  UNL     1      29.342   6.791  47.424  1.00  0.00     0.277 C 
BRANCH  13  14
HETATM   14  N1  UNL     1      30.711   7.015  47.919  1.00  0.00     0.091 N 
BRANCH  14  15
HETATM   15  C2  UNL     1      31.128   5.797  48.578  1.00  0.00     0.298 C 
BRANCH  15  16
HETATM   16  C1  UNL     1      31.925   6.108  49.849  1.00  0.00     0.194 C 
BRANCH  16  17
HETATM   17  O1  UNL     1      31.391   5.245  50.834  1.00  0.00    -0.399 OA
HETATM   18  H1  UNL     1      31.729   4.308  50.705  1.00  0.00     0.209 HD
ENDBRANCH  16  17
ENDBRANCH  15  16
ENDBRANCH  14  15
BRANCH  14  19
HETATM   19  C3  UNL     1      30.629   8.022  48.997  1.00  0.00     0.283 C 
BRANCH  19  20
HETATM   20  C4  UNL     1      30.717   9.381  48.388  1.00  0.00     0.115 C 
HETATM   21 BR1  UNL     1      32.403   9.561  47.417  1.00  0.00    -0.095 Br
ENDBRANCH  19  20
ENDBRANCH  14  19
ENDBRANCH  13  14
ENDBRANCH  12  13
ENDBRANCH   1  12
BRANCH   9  22
HETATM   22  C14 UNL     1      26.734   3.567  49.594  1.00  0.00     0.205 C 
BRANCH  22  23
HETATM   23  O2  UNL     1      27.103   3.416  50.919  1.00  0.00    -0.396 OA
HETATM   24  H20 UNL     1      26.473   3.866  51.531  1.00  0.00     0.209 HD
ENDBRANCH  22  23
ENDBRANCH   9  22
TORSDOF 10
ENDMDL
MODEL 7
REMARK VINA RESULT:      -6.2      2.439      2.965
REMARK  10 active torsions:
REMARK  status: ('A' for Active; 'I' for Inactive)
REMARK    1  A    between atoms: O1_1  and  C1_2 
REMARK    2  A    between atoms: C1_2  and  C2_3 
REMARK    3  A    between atoms: C2_3  and  N1_4 
REMARK    4  A    between atoms: N1_4  and  C3_5 
REMARK    5  A    between atoms: N1_4  and  C5_8 
REMARK    6  A    between atoms: C3_5  and  C4_6 
REMARK    7  A    between atoms: C5_8  and  C6_9 
REMARK    8  A    between atoms: C6_9  and  C7_10 
REMARK    9  A    between atoms: C13_18  and  C14_19 
REMARK   10  A    between atoms: C14_19  and  O2_20 
ROOT
HETATM    1  C7  UNL     1      24.684   1.040  52.269  1.00  0.00    -0.045 C 
HETATM    2  C8  UNL     1      24.587   0.185  53.374  1.00  0.00     0.018 C 
HETATM    3  C9  UNL     1      25.926  -0.277  53.778  1.00  0.00    -0.016 C 
HETATM    4  C10 UNL     1      26.738  -0.136  54.817  1.00  0.00     0.118 C 
HETATM    5  F1  UNL     1      25.805  -0.376  55.833  1.00  0.00    -0.208 F 
HETATM    6  C11 UNL     1      28.203   0.235  54.478  1.00  0.00     0.190 C 
HETATM    7  N2  UNL     1      28.098   1.058  53.209  1.00  0.00    -0.386 N 
HETATM    8  C12 UNL     1      27.011   0.671  52.406  1.00  0.00     0.018 C 
HETATM    9  C13 UNL     1      26.082   1.302  51.752  1.00  0.00    -0.006 C 
HETATM   10  C15 UNL     1      26.726  -0.876  52.565  1.00  0.00     0.099 C 
HETATM   11  H17 UNL     1      28.501   1.868  52.633  1.00  0.00     0.159 HD
ENDROOT
BRANCH   1  12
HETATM   12  C6  UNL     1      23.507   1.710  51.765  1.00  0.00     0.069 C 
BRANCH  12  13
HETATM   13  C5  UNL     1      23.325   3.078  52.370  1.00  0.00     0.277 C 
BRANCH  13  14
HETATM   14  N1  UNL     1      22.632   3.974  51.427  1.00  0.00     0.091 N 
BRANCH  14  15
HETATM   15  C2  UNL     1      21.437   3.287  50.989  1.00  0.00     0.298 C 
BRANCH  15  16
HETATM   16  C1  UNL     1      20.181   3.988  51.513  1.00  0.00     0.194 C 
BRANCH  16  17
HETATM   17  O1  UNL     1      19.707   3.156  52.555  1.00  0.00    -0.399 OA
HETATM   18  H1  UNL     1      20.387   2.451  52.781  1.00  0.00     0.209 HD
ENDBRANCH  16  17
ENDBRANCH  15  16
ENDBRANCH  14  15
BRANCH  14  19
HETATM   19  C3  UNL     1      23.477   4.077  50.219  1.00  0.00     0.283 C 
BRANCH  19  20
HETATM   20  C4  UNL     1      24.344   5.284  50.345  1.00  0.00     0.115 C 
HETATM   21 BR1  UNL     1      23.244   6.846  50.758  1.00  0.00    -0.095 Br
ENDBRANCH  19  20
ENDBRANCH  14  19
ENDBRANCH  13  14
ENDBRANCH  12  13
ENDBRANCH   1  12
BRANCH   9  22
HETATM   22  C14 UNL     1      26.502   2.270  50.786  1.00  0.00     0.205 C 
BRANCH  22  23
HETATM   23  O2  UNL     1      27.341   3.242  51.304  1.00  0.00    -0.396 OA
HETATM   24  H20 UNL     1      28.096   3.437  50.699  1.00  0.00     0.209 HD
ENDBRANCH  22  23
ENDBRANCH   9  22
TORSDOF 10
ENDMDL
MODEL 8
REMARK VINA RESULT:      -6.2      3.508      5.036
REMARK  10 active torsions:
REMARK  status: ('A' for Active; 'I' for Inactive)
REMARK    1  A    between atoms: O1_1  and  C1_2 
REMARK    2  A    between atoms: C1_2  and  C2_3 
REMARK    3  A    between atoms: C2_3  and  N1_4 
REMARK    4  A    between atoms: N1_4  and  C3_5 
REMARK    5  A    between atoms: N1_4  and  C5_8 
REMARK    6  A    between atoms: C3_5  and  C4_6 
REMARK    7  A    between atoms: C5_8  and  C6_9 
REMARK    8  A    between atoms: C6_9  and  C7_10 
REMARK    9  A    between atoms: C13_18  and  C14_19 
REMARK   10  A    between atoms: C14_19  and  O2_20 
ROOT
HETATM    1  C7  UNL     1      26.685   1.915  51.890  1.00  0.00    -0.045 C 
HETATM    2  C8  UNL     1      25.603   1.039  51.731  1.00  0.00     0.018 C 
HETATM    3  C9  UNL     1      25.623   0.012  52.785  1.00  0.00    -0.016 C 
HETATM    4  C10 UNL     1      24.877  -0.339  53.825  1.00  0.00     0.118 C 
HETATM    5  F1  UNL     1      23.628  -0.300  53.195  1.00  0.00    -0.208 F 
HETATM    6  C11 UNL     1      25.642  -0.572  55.151  1.00  0.00     0.190 C 
HETATM    7  N2  UNL     1      26.820   0.379  55.078  1.00  0.00    -0.386 N 
HETATM    8  C12 UNL     1      27.258   0.592  53.759  1.00  0.00     0.018 C 
HETATM    9  C13 UNL     1      27.600   1.635  53.062  1.00  0.00    -0.006 C 
HETATM   10  C15 UNL     1      27.022  -0.700  52.880  1.00  0.00     0.099 C 
HETATM   11  H17 UNL     1      27.490   1.016  55.623  1.00  0.00     0.159 HD
ENDROOT
BRANCH   1  12
HETATM   12  C6  UNL     1      26.810   3.075  51.038  1.00  0.00     0.069 C 
BRANCH  12  13
HETATM   13  C5  UNL     1      26.157   2.872  49.696  1.00  0.00     0.277 C 
BRANCH  13  14
HETATM   14  N1  UNL     1      25.422   4.082  49.288  1.00  0.00     0.091 N 
BRANCH  14  15
HETATM   15  C2  UNL     1      26.395   5.143  49.150  1.00  0.00     0.298 C 
BRANCH  15  16
HETATM   16  C1  UNL     1      25.830   6.473  49.659  1.00  0.00     0.194 C 
BRANCH  16  17
HETATM   17  O1  UNL     1      26.960   7.305  49.835  1.00  0.00    -0.399 OA
HETATM   18  H1  UNL     1      27.628   7.155  49.098  1.00  0.00     0.209 HD
ENDBRANCH  16  17
ENDBRANCH  15  16
ENDBRANCH  14  15
BRANCH  14  19
HETATM   19  C3  UNL     1      24.576   4.488  50.430  1.00  0.00     0.283 C 
BRANCH  19  20
HETATM   20  C4  UNL     1      23.248   3.820  50.300  1.00  0.00     0.115 C 
HETATM   21 BR1  UNL     1      22.649   3.902  48.442  1.00  0.00    -0.095 Br
ENDBRANCH  19  20
ENDBRANCH  14  19
ENDBRANCH  13  14
ENDBRANCH  12  13
ENDBRANCH   1  12
BRANCH   9  22
HETATM   22  C14 UNL     1      28.648   2.458  53.585  1.00  0.00     0.205 C 
BRANCH  22  23
HETATM   23  O2  UNL     1      29.204   1.970  54.755  1.00  0.00    -0.396 OA
HETATM   24  H20 UNL     1      29.758   1.169  54.594  1.00  0.00     0.209 HD
ENDBRANCH  22  23
ENDBRANCH   9  22
TORSDOF 10
ENDMDL
MODEL 9
REMARK VINA RESULT:      -6.1      5.373      7.459
REMARK  10 active torsions:
REMARK  status: ('A' for Active; 'I' for Inactive)
REMARK    1  A    between atoms: O1_1  and  C1_2 
REMARK    2  A    between atoms: C1_2  and  C2_3 
REMARK    3  A    between atoms: C2_3  and  N1_4 
REMARK    4  A    between atoms: N1_4  and  C3_5 
REMARK    5  A    between atoms: N1_4  and  C5_8 
REMARK    6  A    between atoms: C3_5  and  C4_6 
REMARK    7  A    between atoms: C5_8  and  C6_9 
REMARK    8  A    between atoms: C6_9  and  C7_10 
REMARK    9  A    between atoms: C13_18  and  C14_19 
REMARK   10  A    between atoms: C14_19  and  O2_20 
ROOT
HETATM    1  C7  UNL     1      26.708   6.609  49.037  1.00  0.00    -0.045 C 
HETATM    2  C8  UNL     1      27.563   5.778  48.301  1.00  0.00     0.018 C 
HETATM    3  C9  UNL     1      28.814   6.487  47.988  1.00  0.00    -0.016 C 
HETATM    4  C10 UNL     1      30.099   6.390  48.302  1.00  0.00     0.118 C 
HETATM    5  F1  UNL     1      30.249   5.012  48.103  1.00  0.00    -0.208 F 
HETATM    6  C11 UNL     1      30.784   7.706  48.743  1.00  0.00     0.190 C 
HETATM    7  N2  UNL     1      29.678   8.498  49.413  1.00  0.00    -0.386 N 
HETATM    8  C12 UNL     1      28.414   8.230  48.861  1.00  0.00     0.018 C 
HETATM    9  C13 UNL     1      27.231   7.994  49.346  1.00  0.00    -0.006 C 
HETATM   10  C15 UNL     1      28.542   7.885  47.324  1.00  0.00     0.099 C 
HETATM   11  H17 UNL     1      29.421   9.199  50.184  1.00  0.00     0.159 HD
ENDROOT
BRANCH   1  12
HETATM   12  C6  UNL     1      25.464   6.090  49.557  1.00  0.00     0.069 C 
BRANCH  12  13
HETATM   13  C5  UNL     1      25.325   4.607  49.335  1.00  0.00     0.277 C 
BRANCH  13  14
HETATM   14  N1  UNL     1      25.380   3.882  50.617  1.00  0.00     0.091 N 
BRANCH  14  15
HETATM   15  C2  UNL     1      26.533   3.012  50.564  1.00  0.00     0.298 C 
BRANCH  15  16
HETATM   16  C1  UNL     1      26.763   2.325  51.914  1.00  0.00     0.194 C 
BRANCH  16  17
HETATM   17  O1  UNL     1      28.051   2.744  52.322  1.00  0.00    -0.399 OA
HETATM   18  H1  UNL     1      28.672   1.957  52.396  1.00  0.00     0.209 HD
ENDBRANCH  16  17
ENDBRANCH  15  16
ENDBRANCH  14  15
BRANCH  14  19
HETATM   19  C3  UNL     1      24.217   2.971  50.657  1.00  0.00     0.283 C 
BRANCH  19  20
HETATM   20  C4  UNL     1      23.218   3.514  51.623  1.00  0.00     0.115 C 
HETATM   21 BR1  UNL     1      22.006   2.089  52.188  1.00  0.00    -0.095 Br
ENDBRANCH  19  20
ENDBRANCH  14  19
ENDBRANCH  13  14
ENDBRANCH  12  13
ENDBRANCH   1  12
BRANCH   9  22
HETATM   22  C14 UNL     1      26.680   8.973  50.232  1.00  0.00     0.205 C 
BRANCH  22  23
HETATM   23  O2  UNL     1      27.586   9.450  51.164  1.00  0.00    -0.396 OA
HETATM   24  H20 UNL     1      28.089   8.720  51.596  1.00  0.00     0.209 HD
ENDBRANCH  22  23
ENDBRANCH   9  22
TORSDOF 10
ENDMDL
