MODEL 1
REMARK VINA RESULT:      -9.1      0.000      0.000
REMARK  4 active torsions:
REMARK  status: ('A' for Active; 'I' for Inactive)
REMARK    1  A    between atoms: C2_2  and  C3_3 
REMARK    2  A    between atoms: C3_3  and  C4_4 
REMARK    3  A    between atoms: C4_4  and  N1_5 
REMARK    4  A    between atoms: C22_30  and  C23_31 
ROOT
HETATM    1  N1  UNL     1      25.418   6.441  48.976  1.00  0.00     0.099 N 
HETATM    2  C5  UNL     1      26.657   5.588  48.767  1.00  0.00     0.355 C 
HETATM    3  C6  UNL     1      26.606   4.434  49.544  1.00  0.00    -0.106 C 
HETATM    4  C7  UNL     1      26.548   3.514  50.151  1.00  0.00     0.219 A 
HETATM    5  C8  UNL     1      26.465   2.347  50.894  1.00  0.00     0.238 A 
HETATM    6  O1  UNL     1      27.479   2.916  51.336  1.00  0.00    -0.319 OA
HETATM    7  N2  UNL     1      26.795   1.383  51.840  1.00  0.00    -0.353 N 
HETATM    8  C9  UNL     1      27.932   1.335  52.797  1.00  0.00     0.271 C 
HETATM    9  N3  UNL     1      28.246   0.032  53.255  1.00  0.00    -0.280 NA
HETATM   10  C10 UNL     1      27.559  -0.635  54.177  1.00  0.00     0.144 C 
HETATM   11  C11 UNL     1      26.070  -0.534  54.238  1.00  0.00     0.087 A 
HETATM   12  N4  UNL     1      25.561  -0.917  55.459  1.00  0.00    -0.240 NA
HETATM   13  C12 UNL     1      24.239  -0.843  55.611  1.00  0.00     0.236 A 
HETATM   14  N5  UNL     1      23.450  -0.403  54.583  1.00  0.00    -0.224 NA
HETATM   15  C13 UNL     1      23.921  -0.025  53.391  1.00  0.00     0.139 A 
HETATM   16  C14 UNL     1      25.288  -0.077  53.159  1.00  0.00     0.036 A 
HETATM   17  C15 UNL     1      25.852   0.309  51.827  1.00  0.00     0.167 C 
HETATM   18  N6  UNL     1      22.784   0.344  52.663  1.00  0.00    -0.350 N 
HETATM   19  C16 UNL     1      21.748  -0.208  51.876  1.00  0.00     0.089 C 
HETATM   20  C17 UNL     1      21.189   0.308  50.822  1.00  0.00     0.017 C 
HETATM   21  C18 UNL     1      20.713   1.062  49.684  1.00  0.00     0.026 C 
HETATM   22  C19 UNL     1      21.547   2.030  49.913  1.00  0.00     0.191 A 
HETATM   23  F1  UNL     1      20.890   2.498  48.781  1.00  0.00    -0.337 F 
HETATM   24  C20 UNL     1      22.025   3.246  49.523  1.00  0.00     0.140 A 
HETATM   25  C21 UNL     1      22.439   4.257  49.211  1.00  0.00    -0.112 C 
HETATM   26  C22 UNL     1      22.967   5.570  48.834  1.00  0.00     0.087 C 
HETATM   27  C25 UNL     1      24.396   5.465  48.930  1.00  0.00     0.289 C 
HETATM   28  H18 UNL     1      22.627   1.371  52.706  1.00  0.00     0.166 HD
ENDROOT
BRANCH   1  29
HETATM   29  C4  UNL     1      25.509   7.087  50.274  1.00  0.00     0.273 C 
BRANCH  29  30
HETATM   30  C3  UNL     1      25.696   8.567  50.068  1.00  0.00     0.030 C 
BRANCH  30  31
HETATM   31  C2  UNL     1      27.094   9.072  50.288  1.00  0.00    -0.003 C 
HETATM   32  C1  UNL     1      27.888   9.257  49.021  1.00  0.00     0.005 C 
ENDBRANCH  30  31
ENDBRANCH  29  30
ENDBRANCH   1  29
BRANCH  26  33
HETATM   33  C23 UNL     1      22.148   6.662  49.368  1.00  0.00     0.014 C 
HETATM   34  C24 UNL     1      21.941   6.614  50.841  1.00  0.00     0.006 C 
ENDBRANCH  26  33
TORSDOF 4
ENDMDL
MODEL 2
REMARK VINA RESULT:      -9.1      3.971      7.188
REMARK  4 active torsions:
REMARK  status: ('A' for Active; 'I' for Inactive)
REMARK    1  A    between atoms: C2_2  and  C3_3 
REMARK    2  A    between atoms: C3_3  and  C4_4 
REMARK    3  A    between atoms: C4_4  and  N1_5 
REMARK    4  A    between atoms: C22_30  and  C23_31 
ROOT
HETATM    1  N1  UNL     1      24.838   4.145  51.265  1.00  0.00     0.099 N 
HETATM    2  C5  UNL     1      23.851   5.278  51.480  1.00  0.00     0.355 C 
HETATM    3  C6  UNL     1      22.539   4.824  51.383  1.00  0.00    -0.106 C 
HETATM    4  C7  UNL     1      21.502   4.451  51.321  1.00  0.00     0.219 A 
HETATM    5  C8  UNL     1      20.200   3.979  51.266  1.00  0.00     0.238 A 
HETATM    6  O1  UNL     1      20.260   4.807  50.340  1.00  0.00    -0.319 OA
HETATM    7  N2  UNL     1      18.889   3.833  50.829  1.00  0.00    -0.353 N 
HETATM    8  C9  UNL     1      18.169   4.519  49.724  1.00  0.00     0.271 C 
HETATM    9  N3  UNL     1      16.759   4.506  49.857  1.00  0.00    -0.280 NA
HETATM   10  C10 UNL     1      15.980   3.460  49.594  1.00  0.00     0.144 C 
HETATM   11  C11 UNL     1      16.430   2.074  49.924  1.00  0.00     0.087 A 
HETATM   12  N4  UNL     1      15.737   1.111  49.227  1.00  0.00    -0.240 NA
HETATM   13  C12 UNL     1      16.083  -0.158  49.445  1.00  0.00     0.236 A 
HETATM   14  N5  UNL     1      17.086  -0.457  50.327  1.00  0.00    -0.224 NA
HETATM   15  C13 UNL     1      17.773   0.461  51.013  1.00  0.00     0.139 A 
HETATM   16  C14 UNL     1      17.467   1.803  50.839  1.00  0.00     0.036 A 
HETATM   17  C15 UNL     1      18.194   2.859  51.611  1.00  0.00     0.167 C 
HETATM   18  N6  UNL     1      18.684  -0.279  51.777  1.00  0.00    -0.350 N 
HETATM   19  C16 UNL     1      18.781  -0.997  52.991  1.00  0.00     0.089 C 
HETATM   20  C17 UNL     1      19.802  -1.066  53.793  1.00  0.00     0.017 C 
HETATM   21  C18 UNL     1      21.043  -1.004  54.531  1.00  0.00     0.026 C 
HETATM   22  C19 UNL     1      21.587  -0.223  53.649  1.00  0.00     0.191 A 
HETATM   23  F1  UNL     1      22.622  -0.358  54.567  1.00  0.00    -0.337 F 
HETATM   24  C20 UNL     1      22.688   0.488  53.271  1.00  0.00     0.140 A 
HETATM   25  C21 UNL     1      23.595   1.088  52.942  1.00  0.00    -0.112 C 
HETATM   26  C22 UNL     1      24.763   1.849  52.494  1.00  0.00     0.087 C 
HETATM   27  C25 UNL     1      24.263   3.120  52.052  1.00  0.00     0.289 C 
HETATM   28  H18 UNL     1      19.609  -0.336  51.308  1.00  0.00     0.166 HD
ENDROOT
BRANCH   1  29
HETATM   29  C4  UNL     1      24.862   3.810  49.852  1.00  0.00     0.273 C 
BRANCH  29  30
HETATM   30  C3  UNL     1      26.288   3.846  49.368  1.00  0.00     0.030 C 
BRANCH  30  31
HETATM   31  C2  UNL     1      26.756   5.179  48.857  1.00  0.00    -0.003 C 
HETATM   32  C1  UNL     1      28.209   5.208  48.457  1.00  0.00     0.005 C 
ENDBRANCH  30  31
ENDBRANCH  29  30
ENDBRANCH   1  29
BRANCH  26  33
HETATM   33  C23 UNL     1      25.722   1.005  51.774  1.00  0.00     0.014 C 
HETATM   34  C24 UNL     1      26.334  -0.074  52.596  1.00  0.00     0.006 C 
ENDBRANCH  26  33
TORSDOF 4
ENDMDL
MODEL 3
REMARK VINA RESULT:      -8.4      3.040      8.923
REMARK  4 active torsions:
REMARK  status: ('A' for Active; 'I' for Inactive)
REMARK    1  A    between atoms: C2_2  and  C3_3 
REMARK    2  A    between atoms: C3_3  and  C4_4 
REMARK    3  A    between atoms: C4_4  and  N1_5 
REMARK    4  A    between atoms: C22_30  and  C23_31 
ROOT
HETATM    1  N1  UNL     1      22.392   0.325  52.236  1.00  0.00     0.099 N 
HETATM    2  C5  UNL     1      21.375   0.214  51.114  1.00  0.00     0.355 C 
HETATM    3  C6  UNL     1      21.230   1.428  50.449  1.00  0.00    -0.106 C 
HETATM    4  C7  UNL     1      21.134   2.391  49.917  1.00  0.00     0.219 A 
HETATM    5  C8  UNL     1      21.032   3.593  49.234  1.00  0.00     0.238 A 
HETATM    6  O1  UNL     1      19.887   3.402  49.684  1.00  0.00    -0.319 OA
HETATM    7  N2  UNL     1      20.457   4.749  48.719  1.00  0.00    -0.353 N 
HETATM    8  C9  UNL     1      19.060   5.249  48.822  1.00  0.00     0.271 C 
HETATM    9  N3  UNL     1      18.699   6.167  47.806  1.00  0.00    -0.280 NA
HETATM   10  C10 UNL     1      19.059   7.447  47.776  1.00  0.00     0.144 C 
HETATM   11  C11 UNL     1      20.417   7.867  48.236  1.00  0.00     0.087 A 
HETATM   12  N4  UNL     1      20.483   9.208  48.541  1.00  0.00    -0.240 NA
HETATM   13  C12 UNL     1      21.655   9.670  48.978  1.00  0.00     0.236 A 
HETATM   14  N5  UNL     1      22.724   8.825  49.106  1.00  0.00    -0.224 NA
HETATM   15  C13 UNL     1      22.683   7.521  48.818  1.00  0.00     0.139 A 
HETATM   16  C14 UNL     1      21.496   6.969  48.356  1.00  0.00     0.036 A 
HETATM   17  C15 UNL     1      21.418   5.519  47.994  1.00  0.00     0.167 C 
HETATM   18  N6  UNL     1      23.975   7.058  49.094  1.00  0.00    -0.350 N 
HETATM   19  C16 UNL     1      25.261   6.960  48.515  1.00  0.00     0.089 C 
HETATM   20  C17 UNL     1      26.120   5.993  48.646  1.00  0.00     0.017 C 
HETATM   21  C18 UNL     1      26.914   4.819  48.929  1.00  0.00     0.026 C 
HETATM   22  C19 UNL     1      25.985   4.310  49.680  1.00  0.00     0.191 A 
HETATM   23  F1  UNL     1      26.967   3.329  49.758  1.00  0.00    -0.337 F 
HETATM   24  C20 UNL     1      25.590   3.267  50.464  1.00  0.00     0.140 A 
HETATM   25  C21 UNL     1      25.242   2.406  51.119  1.00  0.00    -0.112 C 
HETATM   26  C22 UNL     1      24.789   1.314  51.982  1.00  0.00     0.087 C 
HETATM   27  C25 UNL     1      23.431   1.043  51.600  1.00  0.00     0.289 C 
HETATM   28  H18 UNL     1      24.031   6.644  50.046  1.00  0.00     0.166 HD
ENDROOT
BRANCH   1  29
HETATM   29  C4  UNL     1      21.797   1.068  53.333  1.00  0.00     0.273 C 
BRANCH  29  30
HETATM   30  C3  UNL     1      21.211   0.092  54.319  1.00  0.00     0.030 C 
BRANCH  30  31
HETATM   31  C2  UNL     1      21.883  -1.251  54.367  1.00  0.00    -0.003 C 
HETATM   32  C1  UNL     1      22.944  -1.370  55.431  1.00  0.00     0.005 C 
ENDBRANCH  30  31
ENDBRANCH  29  30
ENDBRANCH   1  29
BRANCH  26  33
HETATM   33  C23 UNL     1      25.281   1.463  53.356  1.00  0.00     0.014 C 
HETATM   34  C24 UNL     1      25.874   0.227  53.935  1.00  0.00     0.006 C 
ENDBRANCH  26  33
TORSDOF 4
ENDMDL
MODEL 4
REMARK VINA RESULT:      -8.3      6.281     10.201
REMARK  4 active torsions:
REMARK  status: ('A' for Active; 'I' for Inactive)
REMARK    1  A    between atoms: C2_2  and  C3_3 
REMARK    2  A    between atoms: C3_3  and  C4_4 
REMARK    3  A    between atoms: C4_4  and  N1_5 
REMARK    4  A    between atoms: C22_30  and  C23_31 
ROOT
HETATM    1  N1  UNL     1      32.954   6.780  47.948  1.00  0.00     0.099 N 
HETATM    2  C5  UNL     1      33.027   7.944  48.920  1.00  0.00     0.355 C 
HETATM    3  C6  UNL     1      31.834   8.661  48.931  1.00  0.00    -0.106 C 
HETATM    4  C7  UNL     1      30.878   9.214  48.945  1.00  0.00     0.219 A 
HETATM    5  C8  UNL     1      29.670   9.892  48.980  1.00  0.00     0.238 A 
HETATM    6  O1  UNL     1      30.487  10.748  48.594  1.00  0.00    -0.319 OA
HETATM    7  N2  UNL     1      28.765  10.941  48.856  1.00  0.00    -0.353 N 
HETATM    8  C9  UNL     1      28.988  12.350  48.437  1.00  0.00     0.271 C 
HETATM    9  N3  UNL     1      27.988  13.249  48.880  1.00  0.00    -0.280 NA
HETATM   10  C10 UNL     1      26.781  13.373  48.335  1.00  0.00     0.144 C 
HETATM   11  C11 UNL     1      26.050  12.173  47.826  1.00  0.00     0.087 A 
HETATM   12  N4  UNL     1      25.051  12.499  46.936  1.00  0.00    -0.240 NA
HETATM   13  C12 UNL     1      24.354  11.488  46.415  1.00  0.00     0.236 A 
HETATM   14  N5  UNL     1      24.643  10.198  46.768  1.00  0.00    -0.224 NA
HETATM   15  C13 UNL     1      25.608   9.858  47.628  1.00  0.00     0.139 A 
HETATM   16  C14 UNL     1      26.374  10.857  48.212  1.00  0.00     0.036 A 
HETATM   17  C15 UNL     1      27.444  10.519  49.202  1.00  0.00     0.167 C 
HETATM   18  N6  UNL     1      25.551   8.461  47.689  1.00  0.00    -0.350 N 
HETATM   19  C16 UNL     1      24.858   7.410  48.332  1.00  0.00     0.089 C 
HETATM   20  C17 UNL     1      25.336   6.267  48.726  1.00  0.00     0.017 C 
HETATM   21  C18 UNL     1      26.070   5.073  49.078  1.00  0.00     0.026 C 
HETATM   22  C19 UNL     1      27.176   5.548  48.590  1.00  0.00     0.191 A 
HETATM   23  F1  UNL     1      27.592   4.303  49.045  1.00  0.00    -0.337 F 
HETATM   24  C20 UNL     1      28.504   5.348  48.357  1.00  0.00     0.140 A 
HETATM   25  C21 UNL     1      29.613   5.201  48.157  1.00  0.00    -0.112 C 
HETATM   26  C22 UNL     1      31.038   5.017  47.874  1.00  0.00     0.087 C 
HETATM   27  C25 UNL     1      31.678   6.248  48.245  1.00  0.00     0.289 C 
HETATM   28  H18 UNL     1      26.243   8.028  47.046  1.00  0.00     0.166 HD
ENDROOT
BRANCH   1  29
HETATM   29  C4  UNL     1      33.037   7.297  46.594  1.00  0.00     0.273 C 
BRANCH  29  30
HETATM   30  C3  UNL     1      33.905   6.379  45.775  1.00  0.00     0.030 C 
BRANCH  30  31
HETATM   31  C2  UNL     1      33.470   6.188  44.350  1.00  0.00    -0.003 C 
HETATM   32  C1  UNL     1      33.716   4.802  43.812  1.00  0.00     0.005 C 
ENDBRANCH  30  31
ENDBRANCH  29  30
ENDBRANCH   1  29
BRANCH  26  33
HETATM   33  C23 UNL     1      31.256   4.277  46.627  1.00  0.00     0.014 C 
HETATM   34  C24 UNL     1      32.180   3.118  46.751  1.00  0.00     0.006 C 
ENDBRANCH  26  33
TORSDOF 4
ENDMDL
MODEL 5
REMARK VINA RESULT:      -8.2      4.027      9.940
REMARK  4 active torsions:
REMARK  status: ('A' for Active; 'I' for Inactive)
REMARK    1  A    between atoms: C2_2  and  C3_3 
REMARK    2  A    between atoms: C3_3  and  C4_4 
REMARK    3  A    between atoms: C4_4  and  N1_5 
REMARK    4  A    between atoms: C22_30  and  C23_31 
ROOT
HETATM    1  N1  UNL     1      23.352   4.401  49.438  1.00  0.00     0.099 N 
HETATM    2  C5  UNL     1      22.644   5.168  48.335  1.00  0.00     0.355 C 
HETATM    3  C6  UNL     1      23.297   6.365  48.060  1.00  0.00    -0.106 C 
HETATM    4  C7  UNL     1      23.831   7.305  47.837  1.00  0.00     0.219 A 
HETATM    5  C8  UNL     1      24.516   8.474  47.541  1.00  0.00     0.238 A 
HETATM    6  O1  UNL     1      23.396   8.866  47.916  1.00  0.00    -0.319 OA
HETATM    7  N2  UNL     1      24.759   9.834  47.393  1.00  0.00    -0.353 N 
HETATM    8  C9  UNL     1      23.866  10.997  47.641  1.00  0.00     0.271 C 
HETATM    9  N3  UNL     1      24.239  12.171  46.943  1.00  0.00    -0.280 NA
HETATM   10  C10 UNL     1      25.236  12.978  47.293  1.00  0.00     0.144 C 
HETATM   11  C11 UNL     1      26.504  12.422  47.855  1.00  0.00     0.087 A 
HETATM   12  N4  UNL     1      27.237  13.362  48.544  1.00  0.00    -0.240 NA
HETATM   13  C12 UNL     1      28.379  12.951  49.096  1.00  0.00     0.236 A 
HETATM   14  N5  UNL     1      28.777  11.647  48.968  1.00  0.00    -0.224 NA
HETATM   15  C13 UNL     1      28.081  10.718  48.306  1.00  0.00     0.139 A 
HETATM   16  C14 UNL     1      26.883  11.073  47.703  1.00  0.00     0.036 A 
HETATM   17  C15 UNL     1      26.090  10.068  46.927  1.00  0.00     0.167 C 
HETATM   18  N6  UNL     1      28.844   9.551  48.430  1.00  0.00    -0.350 N 
HETATM   19  C16 UNL     1      29.946   8.883  47.847  1.00  0.00     0.089 C 
HETATM   20  C17 UNL     1      30.103   7.604  47.684  1.00  0.00     0.017 C 
HETATM   21  C18 UNL     1      30.069   6.161  47.606  1.00  0.00     0.026 C 
HETATM   22  C19 UNL     1      28.903   6.106  48.173  1.00  0.00     0.191 A 
HETATM   23  F1  UNL     1      29.163   4.759  47.956  1.00  0.00    -0.337 F 
HETATM   24  C20 UNL     1      27.879   5.321  48.614  1.00  0.00     0.140 A 
HETATM   25  C21 UNL     1      27.015   4.684  48.985  1.00  0.00    -0.112 C 
HETATM   26  C22 UNL     1      25.903   3.874  49.486  1.00  0.00     0.087 C 
HETATM   27  C25 UNL     1      24.703   4.528  49.042  1.00  0.00     0.289 C 
HETATM   28  H18 UNL     1      28.506   8.962  49.217  1.00  0.00     0.166 HD
ENDROOT
BRANCH   1  29
HETATM   29  C4  UNL     1      23.083   5.055  50.707  1.00  0.00     0.273 C 
BRANCH  29  30
HETATM   30  C3  UNL     1      21.958   4.330  51.398  1.00  0.00     0.030 C 
BRANCH  30  31
HETATM   31  C2  UNL     1      22.146   2.846  51.543  1.00  0.00    -0.003 C 
HETATM   32  C1  UNL     1      23.176   2.454  52.571  1.00  0.00     0.005 C 
ENDBRANCH  30  31
ENDBRANCH  29  30
ENDBRANCH   1  29
BRANCH  26  33
HETATM   33  C23 UNL     1      26.158   3.374  50.841  1.00  0.00     0.014 C 
HETATM   34  C24 UNL     1      26.523   1.934  50.909  1.00  0.00     0.006 C 
ENDBRANCH  26  33
TORSDOF 4
ENDMDL
MODEL 6
REMARK VINA RESULT:      -8.2      3.032      5.331
REMARK  4 active torsions:
REMARK  status: ('A' for Active; 'I' for Inactive)
REMARK    1  A    between atoms: C2_2  and  C3_3 
REMARK    2  A    between atoms: C3_3  and  C4_4 
REMARK    3  A    between atoms: C4_4  and  N1_5 
REMARK    4  A    between atoms: C22_30  and  C23_31 
ROOT
HETATM    1  N1  UNL     1      29.373   7.973  47.716  1.00  0.00     0.099 N 
HETATM    2  C5  UNL     1      29.710   6.493  47.759  1.00  0.00     0.355 C 
HETATM    3  C6  UNL     1      28.636   5.749  48.237  1.00  0.00    -0.106 C 
HETATM    4  C7  UNL     1      27.773   5.166  48.603  1.00  0.00     0.219 A 
HETATM    5  C8  UNL     1      26.682   4.432  49.039  1.00  0.00     0.238 A 
HETATM    6  O1  UNL     1      27.562   4.197  49.886  1.00  0.00    -0.319 OA
HETATM    7  N2  UNL     1      25.922   3.582  49.835  1.00  0.00    -0.353 N 
HETATM    8  C9  UNL     1      26.290   2.856  51.080  1.00  0.00     0.271 C 
HETATM    9  N3  UNL     1      25.478   1.729  51.353  1.00  0.00    -0.280 NA
HETATM   10  C10 UNL     1      24.248   1.783  51.857  1.00  0.00     0.144 C 
HETATM   11  C11 UNL     1      23.307   2.871  51.451  1.00  0.00     0.087 A 
HETATM   12  N4  UNL     1      22.272   3.037  52.343  1.00  0.00    -0.240 NA
HETATM   13  C12 UNL     1      21.390   4.000  52.072  1.00  0.00     0.236 A 
HETATM   14  N5  UNL     1      21.534   4.770  50.950  1.00  0.00    -0.224 NA
HETATM   15  C13 UNL     1      22.531   4.627  50.071  1.00  0.00     0.139 A 
HETATM   16  C14 UNL     1      23.486   3.645  50.287  1.00  0.00     0.036 A 
HETATM   17  C15 UNL     1      24.601   3.434  49.310  1.00  0.00     0.167 C 
HETATM   18  N6  UNL     1      22.288   5.607  49.100  1.00  0.00    -0.350 N 
HETATM   19  C16 UNL     1      21.531   5.839  47.930  1.00  0.00     0.089 C 
HETATM   20  C17 UNL     1      21.886   6.507  46.873  1.00  0.00     0.017 C 
HETATM   21  C18 UNL     1      22.483   7.285  45.811  1.00  0.00     0.026 C 
HETATM   22  C19 UNL     1      23.583   7.448  46.480  1.00  0.00     0.191 A 
HETATM   23  F1  UNL     1      23.871   8.141  45.310  1.00  0.00    -0.337 F 
HETATM   24  C20 UNL     1      24.838   7.981  46.508  1.00  0.00     0.140 A 
HETATM   25  C21 UNL     1      25.888   8.414  46.549  1.00  0.00    -0.112 C 
HETATM   26  C22 UNL     1      27.235   8.984  46.624  1.00  0.00     0.087 C 
HETATM   27  C25 UNL     1      28.076   7.948  47.155  1.00  0.00     0.289 C 
HETATM   28  H18 UNL     1      22.840   6.468  49.289  1.00  0.00     0.166 HD
ENDROOT
BRANCH   1  29
HETATM   29  C4  UNL     1      29.379   8.492  49.073  1.00  0.00     0.273 C 
BRANCH  29  30
HETATM   30  C3  UNL     1      30.626   9.312  49.274  1.00  0.00     0.030 C 
BRANCH  30  31
HETATM   31  C2  UNL     1      30.789  10.470  48.332  1.00  0.00    -0.003 C 
HETATM   32  C1  UNL     1      30.314  11.787  48.888  1.00  0.00     0.005 C 
ENDBRANCH  30  31
ENDBRANCH  29  30
ENDBRANCH   1  29
BRANCH  26  33
HETATM   33  C23 UNL     1      27.212  10.382  47.066  1.00  0.00     0.014 C 
HETATM   34  C24 UNL     1      26.533  10.605  48.371  1.00  0.00     0.006 C 
ENDBRANCH  26  33
TORSDOF 4
ENDMDL
MODEL 7
REMARK VINA RESULT:      -7.9      3.953      7.890
REMARK  4 active torsions:
REMARK  status: ('A' for Active; 'I' for Inactive)
REMARK    1  A    between atoms: C2_2  and  C3_3 
REMARK    2  A    between atoms: C3_3  and  C4_4 
REMARK    3  A    between atoms: C4_4  and  N1_5 
REMARK    4  A    between atoms: C22_30  and  C23_31 
ROOT
HETATM    1  N1  UNL     1      24.569   2.865  53.057  1.00  0.00     0.099 N 
HETATM    2  C5  UNL     1      24.023   4.264  53.287  1.00  0.00     0.355 C 
HETATM    3  C6  UNL     1      22.918   4.509  52.478  1.00  0.00    -0.106 C 
HETATM    4  C7  UNL     1      22.032   4.687  51.844  1.00  0.00     0.219 A 
HETATM    5  C8  UNL     1      20.906   4.903  51.066  1.00  0.00     0.238 A 
HETATM    6  O1  UNL     1      21.712   5.768  50.677  1.00  0.00    -0.319 OA
HETATM    7  N2  UNL     1      20.081   5.479  50.106  1.00  0.00    -0.353 N 
HETATM    8  C9  UNL     1      20.334   6.623  49.191  1.00  0.00     0.271 C 
HETATM    9  N3  UNL     1      19.159   7.249  48.709  1.00  0.00    -0.280 NA
HETATM   10  C10 UNL     1      18.382   6.766  47.744  1.00  0.00     0.144 C 
HETATM   11  C11 UNL     1      18.133   5.297  47.631  1.00  0.00     0.087 A 
HETATM   12  N4  UNL     1      17.685   4.929  46.382  1.00  0.00    -0.240 NA
HETATM   13  C12 UNL     1      17.453   3.631  46.183  1.00  0.00     0.236 A 
HETATM   14  N5  UNL     1      17.659   2.731  47.193  1.00  0.00    -0.224 NA
HETATM   15  C13 UNL     1      18.093   3.065  48.411  1.00  0.00     0.139 A 
HETATM   16  C14 UNL     1      18.356   4.398  48.693  1.00  0.00     0.036 A 
HETATM   17  C15 UNL     1      18.815   4.816  50.055  1.00  0.00     0.167 C 
HETATM   18  N6  UNL     1      18.160   1.852  49.107  1.00  0.00    -0.350 N 
HETATM   19  C16 UNL     1      17.352   0.952  49.839  1.00  0.00     0.089 C 
HETATM   20  C17 UNL     1      17.685   0.257  50.886  1.00  0.00     0.017 C 
HETATM   21  C18 UNL     1      18.265  -0.416  52.026  1.00  0.00     0.026 C 
HETATM   22  C19 UNL     1      19.409   0.171  51.855  1.00  0.00     0.191 A 
HETATM   23  F1  UNL     1      19.669  -0.610  52.974  1.00  0.00    -0.337 F 
HETATM   24  C20 UNL     1      20.689   0.338  52.296  1.00  0.00     0.140 A 
HETATM   25  C21 UNL     1      21.757   0.493  52.651  1.00  0.00    -0.112 C 
HETATM   26  C22 UNL     1      23.142   0.686  53.084  1.00  0.00     0.087 C 
HETATM   27  C25 UNL     1      23.379   2.102  53.037  1.00  0.00     0.289 C 
HETATM   28  H18 UNL     1      19.122   1.459  49.087  1.00  0.00     0.166 HD
ENDROOT
BRANCH   1  29
HETATM   29  C4  UNL     1      25.264   2.840  51.782  1.00  0.00     0.273 C 
BRANCH  29  30
HETATM   30  C3  UNL     1      26.677   2.371  52.007  1.00  0.00     0.030 C 
BRANCH  30  31
HETATM   31  C2  UNL     1      27.113   2.320  53.444  1.00  0.00    -0.003 C 
HETATM   32  C1  UNL     1      28.596   2.133  53.631  1.00  0.00     0.005 C 
ENDBRANCH  30  31
ENDBRANCH  29  30
ENDBRANCH   1  29
BRANCH  26  33
HETATM   33  C23 UNL     1      24.031  -0.352  52.550  1.00  0.00     0.014 C 
HETATM   34  C24 UNL     1      25.183  -0.689  53.429  1.00  0.00     0.006 C 
ENDBRANCH  26  33
TORSDOF 4
ENDMDL
MODEL 8
REMARK VINA RESULT:      -7.9      3.196      7.769
REMARK  4 active torsions:
REMARK  status: ('A' for Active; 'I' for Inactive)
REMARK    1  A    between atoms: C2_2  and  C3_3 
REMARK    2  A    between atoms: C3_3  and  C4_4 
REMARK    3  A    between atoms: C4_4  and  N1_5 
REMARK    4  A    between atoms: C22_30  and  C23_31 
ROOT
HETATM    1  N1  UNL     1      24.379   1.358  53.376  1.00  0.00     0.099 N 
HETATM    2  C5  UNL     1      24.665   2.847  53.298  1.00  0.00     0.355 C 
HETATM    3  C6  UNL     1      24.048   3.417  52.188  1.00  0.00    -0.106 C 
HETATM    4  C7  UNL     1      23.541   3.862  51.315  1.00  0.00     0.219 A 
HETATM    5  C8  UNL     1      22.885   4.426  50.232  1.00  0.00     0.238 A 
HETATM    6  O1  UNL     1      24.088   4.640  50.001  1.00  0.00    -0.319 OA
HETATM    7  N2  UNL     1      22.706   5.091  49.024  1.00  0.00    -0.353 N 
HETATM    8  C9  UNL     1      23.709   5.690  48.106  1.00  0.00     0.271 C 
HETATM    9  N3  UNL     1      23.186   6.689  47.250  1.00  0.00    -0.280 NA
HETATM   10  C10 UNL     1      22.463   6.452  46.159  1.00  0.00     0.144 C 
HETATM   11  C11 UNL     1      21.471   5.336  46.131  1.00  0.00     0.087 A 
HETATM   12  N4  UNL     1      21.131   4.959  44.851  1.00  0.00    -0.240 NA
HETATM   13  C12 UNL     1      20.263   3.955  44.728  1.00  0.00     0.236 A 
HETATM   14  N5  UNL     1      19.750   3.347  45.842  1.00  0.00    -0.224 NA
HETATM   15  C13 UNL     1      20.065   3.695  47.093  1.00  0.00     0.139 A 
HETATM   16  C14 UNL     1      20.963   4.733  47.299  1.00  0.00     0.036 A 
HETATM   17  C15 UNL     1      21.319   5.172  48.685  1.00  0.00     0.167 C 
HETATM   18  N6  UNL     1      19.324   2.823  47.900  1.00  0.00    -0.350 N 
HETATM   19  C16 UNL     1      18.036   2.664  48.461  1.00  0.00     0.089 C 
HETATM   20  C17 UNL     1      17.733   2.170  49.625  1.00  0.00     0.017 C 
HETATM   21  C18 UNL     1      17.626   1.592  50.945  1.00  0.00     0.026 C 
HETATM   22  C19 UNL     1      18.913   1.457  51.046  1.00  0.00     0.191 A 
HETATM   23  F1  UNL     1      18.490   0.946  52.267  1.00  0.00    -0.337 F 
HETATM   24  C20 UNL     1      19.966   1.052  51.812  1.00  0.00     0.140 A 
HETATM   25  C21 UNL     1      20.856   0.723  52.436  1.00  0.00    -0.112 C 
HETATM   26  C22 UNL     1      22.011   0.284  53.222  1.00  0.00     0.087 C 
HETATM   27  C25 UNL     1      22.994   1.324  53.099  1.00  0.00     0.289 C 
HETATM   28  H18 UNL     1      19.894   2.005  48.193  1.00  0.00     0.166 HD
ENDROOT
BRANCH   1  29
HETATM   29  C4  UNL     1      25.163   0.679  52.359  1.00  0.00     0.273 C 
BRANCH  29  30
HETATM   30  C3  UNL     1      25.879  -0.485  52.994  1.00  0.00     0.030 C 
BRANCH  30  31
HETATM   31  C2  UNL     1      27.378  -0.383  53.007  1.00  0.00    -0.003 C 
HETATM   32  C1  UNL     1      27.956   0.018  54.340  1.00  0.00     0.005 C 
ENDBRANCH  30  31
ENDBRANCH  29  30
ENDBRANCH   1  29
BRANCH  26  33
HETATM   33  C23 UNL     1      22.259  -1.154  53.070  1.00  0.00     0.014 C 
HETATM   34  C24 UNL     1      21.777  -1.986  54.206  1.00  0.00     0.006 C 
ENDBRANCH  26  33
TORSDOF 4
ENDMDL
MODEL 9
REMARK VINA RESULT:      -7.8      1.647      2.303
REMARK  4 active torsions:
REMARK  status: ('A' for Active; 'I' for Inactive)
REMARK    1  A    between atoms: C2_2  and  C3_3 
REMARK    2  A    between atoms: C3_3  and  C4_4 
REMARK    3  A    between atoms: C4_4  and  N1_5 
REMARK    4  A    between atoms: C22_30  and  C23_31 
ROOT
HETATM    1  N1  UNL     1      25.765   6.771  48.901  1.00  0.00     0.099 N 
HETATM    2  C5  UNL     1      26.700   5.575  48.958  1.00  0.00     0.355 C 
HETATM    3  C6  UNL     1      26.107   4.508  49.625  1.00  0.00    -0.106 C 
HETATM    4  C7  UNL     1      25.622   3.662  50.142  1.00  0.00     0.219 A 
HETATM    5  C8  UNL     1      25.003   2.592  50.770  1.00  0.00     0.238 A 
HETATM    6  O1  UNL     1      25.994   2.830  51.484  1.00  0.00    -0.319 OA
HETATM    7  N2  UNL     1      24.775   1.592  51.708  1.00  0.00    -0.353 N 
HETATM    8  C9  UNL     1      25.560   1.216  52.914  1.00  0.00     0.271 C 
HETATM    9  N3  UNL     1      25.340  -0.111  53.356  1.00  0.00    -0.280 NA
HETATM   10  C10 UNL     1      24.272  -0.518  54.036  1.00  0.00     0.144 C 
HETATM   11  C11 UNL     1      22.918   0.036  53.730  1.00  0.00     0.087 A 
HETATM   12  N4  UNL     1      22.024  -0.148  54.760  1.00  0.00    -0.240 NA
HETATM   13  C12 UNL     1      20.792   0.331  54.582  1.00  0.00     0.236 A 
HETATM   14  N5  UNL     1      20.463   0.971  53.419  1.00  0.00    -0.224 NA
HETATM   15  C13 UNL     1      21.314   1.162  52.407  1.00  0.00     0.139 A 
HETATM   16  C14 UNL     1      22.614   0.690  52.520  1.00  0.00     0.036 A 
HETATM   17  C15 UNL     1      23.589   0.858  51.396  1.00  0.00     0.167 C 
HETATM   18  N6  UNL     1      20.567   1.849  51.442  1.00  0.00    -0.350 N 
HETATM   19  C16 UNL     1      19.650   1.625  50.390  1.00  0.00     0.089 C 
HETATM   20  C17 UNL     1      19.561   2.267  49.263  1.00  0.00     0.017 C 
HETATM   21  C18 UNL     1      19.642   3.107  48.090  1.00  0.00     0.026 C 
HETATM   22  C19 UNL     1      20.641   3.778  48.577  1.00  0.00     0.191 A 
HETATM   23  F1  UNL     1      20.468   4.402  47.347  1.00  0.00    -0.337 F 
HETATM   24  C20 UNL     1      21.546   4.781  48.392  1.00  0.00     0.140 A 
HETATM   25  C21 UNL     1      22.310   5.610  48.255  1.00  0.00    -0.112 C 
HETATM   26  C22 UNL     1      23.288   6.690  48.101  1.00  0.00     0.087 C 
HETATM   27  C25 UNL     1      24.545   6.154  48.544  1.00  0.00     0.289 C 
HETATM   28  H18 UNL     1      20.721   2.874  51.506  1.00  0.00     0.166 HD
ENDROOT
BRANCH   1  29
HETATM   29  C4  UNL     1      25.712   7.383  50.218  1.00  0.00     0.273 C 
BRANCH  29  30
HETATM   30  C3  UNL     1      26.362   8.739  50.149  1.00  0.00     0.030 C 
BRANCH  30  31
HETATM   31  C2  UNL     1      26.301   9.412  48.807  1.00  0.00    -0.003 C 
HETATM   32  C1  UNL     1      27.642   9.838  48.271  1.00  0.00     0.005 C 
ENDBRANCH  30  31
ENDBRANCH  29  30
ENDBRANCH   1  29
BRANCH  26  33
HETATM   33  C23 UNL     1      22.728   7.991  48.479  1.00  0.00     0.014 C 
HETATM   34  C24 UNL     1      22.186   8.051  49.864  1.00  0.00     0.006 C 
ENDBRANCH  26  33
TORSDOF 4
ENDMDL
