MODEL 1
REMARK VINA RESULT:      -7.6      0.000      0.000
REMARK  4 active torsions:
REMARK  status: ('A' for Active; 'I' for Inactive)
REMARK    1  A    between atoms: C13_14  and  C14_15 
REMARK    2  A    between atoms: C13_14  and  N4_18 
REMARK    3  A    between atoms: C14_15  and  N2_16 
REMARK    4  A    between atoms: N2_16  and  N3_17 
ROOT
HETATM    1  C1  UNL     1      34.962   4.657  45.809  1.00  0.00     0.031 C 
HETATM    2  C2  UNL     1      33.808   4.404  46.745  1.00  0.00     0.045 A 
HETATM    3  C3  UNL     1      34.160   3.622  47.914  1.00  0.00     0.006 A 
HETATM    4  C4  UNL     1      33.536   2.434  47.846  1.00  0.00    -0.026 A 
HETATM    5  C5  UNL     1      33.494   1.297  48.661  1.00  0.00     0.012 A 
HETATM    6  C6  UNL     1      32.726   0.204  48.339  1.00  0.00     0.001 A 
HETATM    7  C7  UNL     1      31.964   0.182  47.197  1.00  0.00     0.001 A 
HETATM    8  C8  UNL     1      31.971   1.278  46.359  1.00  0.00     0.014 A 
HETATM    9  C9  UNL     1      32.751   2.358  46.710  1.00  0.00    -0.003 A 
HETATM   10  C10 UNL     1      32.848   3.480  46.025  1.00  0.00     0.033 A 
HETATM   11  N1  UNL     1      32.536   4.361  44.947  1.00  0.00    -0.387 N 
HETATM   12  C11 UNL     1      32.780   5.721  45.452  1.00  0.00     0.157 C 
HETATM   13  C12 UNL     1      32.937   5.559  46.922  1.00  0.00    -0.020 C 
HETATM   14  C13 UNL     1      32.371   6.335  47.824  1.00  0.00     0.031 C 
HETATM   15  H9  UNL     1      32.203   3.995  44.021  1.00  0.00     0.159 HD
ENDROOT
BRANCH  14  16
HETATM   16  C14 UNL     1      32.511   6.195  49.294  1.00  0.00     0.162 C 
BRANCH  16  17
HETATM   17  N2  UNL     1      31.459   5.353  49.835  1.00  0.00    -0.258 NA
HETATM   18  H14 UNL     1      30.515   5.688  49.571  1.00  0.00     0.140 HD
BRANCH  17  19
HETATM   19  N3  UNL     1      31.526   5.323  51.230  1.00  0.00    -0.270 NA
HETATM   20  H15 UNL     1      31.811   4.410  51.610  1.00  0.00     0.137 HD
HETATM   21  H16 UNL     1      30.660   5.652  51.680  1.00  0.00     0.137 HD
ENDBRANCH  17  19
ENDBRANCH  16  17
ENDBRANCH  14  16
BRANCH  14  22
HETATM   22  N4  UNL     1      31.545   7.414  47.441  1.00  0.00    -0.355 N 
HETATM   23  C15 UNL     1      32.116   8.717  47.443  1.00  0.00     0.092 A 
HETATM   24  C16 UNL     1      31.360   9.735  47.087  1.00  0.00     0.036 A 
HETATM   25  C17 UNL     1      29.967   9.609  46.691  1.00  0.00     0.010 A 
HETATM   26 BR1  UNL     1      28.860  11.072  46.174  1.00  0.00    -0.051 Br
HETATM   27  C18 UNL     1      29.479   8.372  46.705  1.00  0.00     0.012 A 
HETATM   28  C19 UNL     1      30.175   7.111  47.074  1.00  0.00     0.157 A 
ENDBRANCH  14  22
TORSDOF 4
ENDMDL
MODEL 2
REMARK VINA RESULT:      -7.4     10.356     12.363
REMARK  4 active torsions:
REMARK  status: ('A' for Active; 'I' for Inactive)
REMARK    1  A    between atoms: C13_14  and  C14_15 
REMARK    2  A    between atoms: C13_14  and  N4_18 
REMARK    3  A    between atoms: C14_15  and  N2_16 
REMARK    4  A    between atoms: N2_16  and  N3_17 
ROOT
HETATM    1  C1  UNL     1      20.825   0.608  53.962  1.00  0.00     0.031 C 
HETATM    2  C2  UNL     1      21.623   1.362  52.929  1.00  0.00     0.045 A 
HETATM    3  C3  UNL     1      21.126   2.698  52.663  1.00  0.00     0.006 A 
HETATM    4  C4  UNL     1      20.654   2.744  51.406  1.00  0.00    -0.026 A 
HETATM    5  C5  UNL     1      20.067   3.735  50.612  1.00  0.00     0.012 A 
HETATM    6  C6  UNL     1      19.692   3.493  49.312  1.00  0.00     0.001 A 
HETATM    7  C7  UNL     1      19.880   2.262  48.736  1.00  0.00     0.001 A 
HETATM    8  C8  UNL     1      20.455   1.249  49.477  1.00  0.00     0.014 A 
HETATM    9  C9  UNL     1      20.819   1.524  50.777  1.00  0.00    -0.003 A 
HETATM   10  C10 UNL     1      21.393   0.671  51.601  1.00  0.00     0.033 A 
HETATM   11  N1  UNL     1      21.958  -0.589  51.962  1.00  0.00    -0.387 N 
HETATM   12  C11 UNL     1      22.909  -0.309  53.050  1.00  0.00     0.157 C 
HETATM   13  C12 UNL     1      23.061   1.170  53.051  1.00  0.00    -0.020 C 
HETATM   14  C13 UNL     1      24.214   1.803  53.143  1.00  0.00     0.031 C 
HETATM   15  H9  UNL     1      21.675  -1.474  51.474  1.00  0.00     0.159 HD
ENDROOT
BRANCH  14  16
HETATM   16  C14 UNL     1      24.394   3.275  53.146  1.00  0.00     0.162 C 
BRANCH  16  17
HETATM   17  N2  UNL     1      24.542   3.780  51.793  1.00  0.00    -0.258 NA
HETATM   18  H14 UNL     1      25.518   3.707  51.453  1.00  0.00     0.140 HD
BRANCH  17  19
HETATM   19  N3  UNL     1      24.169   5.126  51.730  1.00  0.00    -0.270 NA
HETATM   20  H15 UNL     1      24.680   5.726  52.391  1.00  0.00     0.137 HD
HETATM   21  H16 UNL     1      23.153   5.264  51.821  1.00  0.00     0.137 HD
ENDBRANCH  17  19
ENDBRANCH  16  17
ENDBRANCH  14  16
BRANCH  14  22
HETATM   22  N4  UNL     1      25.429   1.091  53.250  1.00  0.00    -0.355 N 
HETATM   23  C15 UNL     1      25.969   0.521  52.064  1.00  0.00     0.092 A 
HETATM   24  C16 UNL     1      27.101  -0.144  52.145  1.00  0.00     0.036 A 
HETATM   25  C17 UNL     1      27.840  -0.336  53.382  1.00  0.00     0.010 A 
HETATM   26 BR1  UNL     1      29.480  -1.298  53.517  1.00  0.00    -0.051 Br
HETATM   27  C18 UNL     1      27.296   0.214  54.464  1.00  0.00     0.012 A 
HETATM   28  C19 UNL     1      26.035   0.995  54.564  1.00  0.00     0.157 A 
ENDBRANCH  14  22
TORSDOF 4
ENDMDL
MODEL 3
REMARK VINA RESULT:      -7.3      8.724     10.872
REMARK  4 active torsions:
REMARK  status: ('A' for Active; 'I' for Inactive)
REMARK    1  A    between atoms: C13_14  and  C14_15 
REMARK    2  A    between atoms: C13_14  and  N4_18 
REMARK    3  A    between atoms: C14_15  and  N2_16 
REMARK    4  A    between atoms: N2_16  and  N3_17 
ROOT
HETATM    1  C1  UNL     1      23.082   4.501  52.715  1.00  0.00     0.031 C 
HETATM    2  C2  UNL     1      23.463   3.630  51.545  1.00  0.00     0.045 A 
HETATM    3  C3  UNL     1      23.260   4.258  50.255  1.00  0.00     0.006 A 
HETATM    4  C4  UNL     1      22.282   3.607  49.602  1.00  0.00    -0.026 A 
HETATM    5  C5  UNL     1      21.666   3.751  48.355  1.00  0.00     0.012 A 
HETATM    6  C6  UNL     1      20.677   2.895  47.932  1.00  0.00     0.001 A 
HETATM    7  C7  UNL     1      20.251   1.858  48.723  1.00  0.00     0.001 A 
HETATM    8  C8  UNL     1      20.826   1.671  49.963  1.00  0.00     0.014 A 
HETATM    9  C9  UNL     1      21.814   2.547  50.356  1.00  0.00    -0.003 A 
HETATM   10  C10 UNL     1      22.469   2.489  51.499  1.00  0.00     0.033 A 
HETATM   11  N1  UNL     1      22.794   1.926  52.770  1.00  0.00    -0.387 N 
HETATM   12  C11 UNL     1      24.179   2.333  53.050  1.00  0.00     0.157 C 
HETATM   13  C12 UNL     1      24.687   2.871  51.760  1.00  0.00    -0.020 C 
HETATM   14  C13 UNL     1      25.866   2.586  51.244  1.00  0.00     0.031 C 
HETATM   15  H9  UNL     1      22.100   1.349  53.305  1.00  0.00     0.159 HD
ENDROOT
BRANCH  14  16
HETATM   16  C14 UNL     1      26.395   3.107  49.960  1.00  0.00     0.162 C 
BRANCH  16  17
HETATM   17  N2  UNL     1      26.735   4.514  50.075  1.00  0.00    -0.258 NA
HETATM   18  H14 UNL     1      25.976   5.129  49.732  1.00  0.00     0.140 HD
BRANCH  17  19
HETATM   19  N3  UNL     1      27.884   4.801  49.332  1.00  0.00    -0.270 NA
HETATM   20  H15 UNL     1      28.238   3.999  48.794  1.00  0.00     0.137 HD
HETATM   21  H16 UNL     1      28.634   5.219  49.901  1.00  0.00     0.137 HD
ENDBRANCH  17  19
ENDBRANCH  16  17
ENDBRANCH  14  16
BRANCH  14  22
HETATM   22  N4  UNL     1      26.761   1.718  51.906  1.00  0.00    -0.355 N 
HETATM   23  C15 UNL     1      26.545   0.318  51.774  1.00  0.00     0.092 A 
HETATM   24  C16 UNL     1      27.370  -0.506  52.384  1.00  0.00     0.036 A 
HETATM   25  C17 UNL     1      28.498  -0.071  53.192  1.00  0.00     0.010 A 
HETATM   26 BR1  UNL     1      29.701  -1.250  54.083  1.00  0.00    -0.051 Br
HETATM   27  C18 UNL     1      28.658   1.246  53.287  1.00  0.00     0.012 A 
HETATM   28  C19 UNL     1      27.834   2.321  52.673  1.00  0.00     0.157 A 
ENDBRANCH  14  22
TORSDOF 4
ENDMDL
MODEL 4
REMARK VINA RESULT:      -7.3      6.199      7.587
REMARK  4 active torsions:
REMARK  status: ('A' for Active; 'I' for Inactive)
REMARK    1  A    between atoms: C13_14  and  C14_15 
REMARK    2  A    between atoms: C13_14  and  N4_18 
REMARK    3  A    between atoms: C14_15  and  N2_16 
REMARK    4  A    between atoms: N2_16  and  N3_17 
ROOT
HETATM    1  C1  UNL     1      23.582   3.245  48.912  1.00  0.00     0.031 C 
HETATM    2  C2  UNL     1      24.833   3.664  49.641  1.00  0.00     0.045 A 
HETATM    3  C3  UNL     1      25.836   2.622  49.734  1.00  0.00     0.006 A 
HETATM    4  C4  UNL     1      25.971   2.262  51.022  1.00  0.00    -0.026 A 
HETATM    5  C5  UNL     1      26.763   1.333  51.705  1.00  0.00     0.012 A 
HETATM    6  C6  UNL     1      26.702   1.196  53.072  1.00  0.00     0.001 A 
HETATM    7  C7  UNL     1      25.856   1.971  53.826  1.00  0.00     0.001 A 
HETATM    8  C8  UNL     1      25.053   2.902  53.200  1.00  0.00     0.014 A 
HETATM    9  C9  UNL     1      25.139   3.014  51.829  1.00  0.00    -0.003 A 
HETATM   10  C10 UNL     1      24.454   3.866  51.093  1.00  0.00     0.033 A 
HETATM   11  N1  UNL     1      23.524   4.928  50.882  1.00  0.00    -0.387 N 
HETATM   12  C11 UNL     1      23.921   5.570  49.619  1.00  0.00     0.157 C 
HETATM   13  C12 UNL     1      25.269   5.016  49.319  1.00  0.00    -0.020 C 
HETATM   14  C13 UNL     1      26.300   5.735  48.921  1.00  0.00     0.031 C 
HETATM   15  H9  UNL     1      22.750   5.121  51.565  1.00  0.00     0.159 HD
ENDROOT
BRANCH  14  16
HETATM   16  C14 UNL     1      27.653   5.209  48.617  1.00  0.00     0.162 C 
BRANCH  16  17
HETATM   17  N2  UNL     1      28.676   6.174  48.976  1.00  0.00    -0.258 NA
HETATM   18  H14 UNL     1      28.752   6.939  48.282  1.00  0.00     0.140 HD
BRANCH  17  19
HETATM   19  N3  UNL     1      29.924   5.553  49.064  1.00  0.00    -0.270 NA
HETATM   20  H15 UNL     1      30.659   6.024  48.521  1.00  0.00     0.137 HD
HETATM   21  H16 UNL     1      29.889   4.549  48.838  1.00  0.00     0.137 HD
ENDBRANCH  17  19
ENDBRANCH  16  17
ENDBRANCH  14  16
BRANCH  14  22
HETATM   22  N4  UNL     1      26.191   7.131  48.747  1.00  0.00    -0.355 N 
HETATM   23  C15 UNL     1      26.022   7.622  47.423  1.00  0.00     0.092 A 
HETATM   24  C16 UNL     1      25.917   8.921  47.242  1.00  0.00     0.036 A 
HETATM   25  C17 UNL     1      25.965   9.895  48.320  1.00  0.00     0.010 A 
HETATM   26 BR1  UNL     1      25.815  11.779  48.076  1.00  0.00    -0.051 Br
HETATM   27  C18 UNL     1      26.124   9.389  49.540  1.00  0.00     0.012 A 
HETATM   28  C19 UNL     1      26.258   7.962  49.935  1.00  0.00     0.157 A 
ENDBRANCH  14  22
TORSDOF 4
ENDMDL
MODEL 5
REMARK VINA RESULT:      -7.2      2.106      2.963
REMARK  4 active torsions:
REMARK  status: ('A' for Active; 'I' for Inactive)
REMARK    1  A    between atoms: C13_14  and  C14_15 
REMARK    2  A    between atoms: C13_14  and  N4_18 
REMARK    3  A    between atoms: C14_15  and  N2_16 
REMARK    4  A    between atoms: N2_16  and  N3_17 
ROOT
HETATM    1  C1  UNL     1      34.921   8.805  46.976  1.00  0.00     0.031 C 
HETATM    2  C2  UNL     1      33.914   7.750  47.355  1.00  0.00     0.045 A 
HETATM    3  C3  UNL     1      34.389   6.819  48.360  1.00  0.00     0.006 A 
HETATM    4  C4  UNL     1      34.504   5.600  47.804  1.00  0.00    -0.026 A 
HETATM    5  C5  UNL     1      34.906   4.342  48.267  1.00  0.00     0.012 A 
HETATM    6  C6  UNL     1      34.901   3.236  47.451  1.00  0.00     0.001 A 
HETATM    7  C7  UNL     1      34.501   3.322  46.141  1.00  0.00     0.001 A 
HETATM    8  C8  UNL     1      34.096   4.540  45.635  1.00  0.00     0.014 A 
HETATM    9  C9  UNL     1      34.112   5.629  46.479  1.00  0.00    -0.003 A 
HETATM   10  C10 UNL     1      33.739   6.849  46.150  1.00  0.00     0.033 A 
HETATM   11  N1  UNL     1      33.228   7.845  45.264  1.00  0.00    -0.387 N 
HETATM   12  C11 UNL     1      32.623   8.877  46.120  1.00  0.00     0.157 C 
HETATM   13  C12 UNL     1      32.554   8.258  47.471  1.00  0.00    -0.020 C 
HETATM   14  C13 UNL     1      31.503   8.313  48.266  1.00  0.00     0.031 C 
HETATM   15  H9  UNL     1      33.322   7.750  44.223  1.00  0.00     0.159 HD
ENDROOT
BRANCH  14  16
HETATM   16  C14 UNL     1      31.408   7.705  49.615  1.00  0.00     0.162 C 
BRANCH  16  17
HETATM   17  N2  UNL     1      30.930   6.337  49.532  1.00  0.00    -0.258 NA
HETATM   18  H14 UNL     1      29.902   6.274  49.647  1.00  0.00     0.140 HD
BRANCH  17  19
HETATM   19  N3  UNL     1      31.518   5.552  50.528  1.00  0.00    -0.270 NA
HETATM   20  H15 UNL     1      32.251   6.042  51.059  1.00  0.00     0.137 HD
HETATM   21  H16 UNL     1      31.864   4.650  50.174  1.00  0.00     0.137 HD
ENDBRANCH  17  19
ENDBRANCH  16  17
ENDBRANCH  14  16
BRANCH  14  22
HETATM   22  N4  UNL     1      30.328   8.989  47.873  1.00  0.00    -0.355 N 
HETATM   23  C15 UNL     1      30.142  10.320  48.341  1.00  0.00     0.092 A 
HETATM   24  C16 UNL     1      29.052  10.966  47.983  1.00  0.00     0.036 A 
HETATM   25  C17 UNL     1      28.018  10.399  47.134  1.00  0.00     0.010 A 
HETATM   26 BR1  UNL     1      26.434  11.319  46.608  1.00  0.00    -0.051 Br
HETATM   27  C18 UNL     1      28.236   9.153  46.722  1.00  0.00     0.012 A 
HETATM   28  C19 UNL     1      29.397   8.274  47.020  1.00  0.00     0.157 A 
ENDBRANCH  14  22
TORSDOF 4
ENDMDL
MODEL 6
REMARK VINA RESULT:      -7.0      9.056     10.260
REMARK  4 active torsions:
REMARK  status: ('A' for Active; 'I' for Inactive)
REMARK    1  A    between atoms: C13_14  and  C14_15 
REMARK    2  A    between atoms: C13_14  and  N4_18 
REMARK    3  A    between atoms: C14_15  and  N2_16 
REMARK    4  A    between atoms: N2_16  and  N3_17 
ROOT
HETATM    1  C1  UNL     1      23.032   2.547  48.200  1.00  0.00     0.031 C 
HETATM    2  C2  UNL     1      23.123   3.142  49.582  1.00  0.00     0.045 A 
HETATM    3  C3  UNL     1      24.245   2.655  50.359  1.00  0.00     0.006 A 
HETATM    4  C4  UNL     1      23.779   1.933  51.393  1.00  0.00    -0.026 A 
HETATM    5  C5  UNL     1      24.370   1.234  52.450  1.00  0.00     0.012 A 
HETATM    6  C6  UNL     1      23.617   0.587  53.401  1.00  0.00     0.001 A 
HETATM    7  C7  UNL     1      22.246   0.602  53.351  1.00  0.00     0.001 A 
HETATM    8  C8  UNL     1      21.613   1.277  52.328  1.00  0.00     0.014 A 
HETATM    9  C9  UNL     1      22.396   1.915  51.391  1.00  0.00    -0.003 A 
HETATM   10  C10 UNL     1      21.942   2.614  50.370  1.00  0.00     0.033 A 
HETATM   11  N1  UNL     1      20.920   3.191  49.558  1.00  0.00    -0.387 N 
HETATM   12  C11 UNL     1      21.534   4.357  48.904  1.00  0.00     0.157 C 
HETATM   13  C12 UNL     1      22.818   4.566  49.624  1.00  0.00    -0.020 C 
HETATM   14  C13 UNL     1      23.264   5.737  50.033  1.00  0.00     0.031 C 
HETATM   15  H9  UNL     1      19.956   2.778  49.517  1.00  0.00     0.159 HD
ENDROOT
BRANCH  14  16
HETATM   16  C14 UNL     1      24.539   5.971  50.753  1.00  0.00     0.162 C 
BRANCH  16  17
HETATM   17  N2  UNL     1      24.293   6.506  52.080  1.00  0.00    -0.258 NA
HETATM   18  H14 UNL     1      25.134   6.957  52.483  1.00  0.00     0.140 HD
BRANCH  17  19
HETATM   19  N3  UNL     1      23.898   5.488  52.952  1.00  0.00    -0.270 NA
HETATM   20  H15 UNL     1      24.554   4.697  52.986  1.00  0.00     0.137 HD
HETATM   21  H16 UNL     1      22.938   5.160  52.774  1.00  0.00     0.137 HD
ENDBRANCH  17  19
ENDBRANCH  16  17
ENDBRANCH  14  16
BRANCH  14  22
HETATM   22  N4  UNL     1      22.525   6.917  49.806  1.00  0.00    -0.355 N 
HETATM   23  C15 UNL     1      23.071   7.879  48.911  1.00  0.00     0.092 A 
HETATM   24  C16 UNL     1      22.394   8.985  48.686  1.00  0.00     0.036 A 
HETATM   25  C17 UNL     1      21.113   9.289  49.303  1.00  0.00     0.010 A 
HETATM   26 BR1  UNL     1      20.121  10.886  48.989  1.00  0.00    -0.051 Br
HETATM   27  C18 UNL     1      20.644   8.361  50.132  1.00  0.00     0.012 A 
HETATM   28  C19 UNL     1      21.261   7.061  50.504  1.00  0.00     0.157 A 
ENDBRANCH  14  22
TORSDOF 4
ENDMDL
MODEL 7
REMARK VINA RESULT:      -7.0     10.034     11.240
REMARK  4 active torsions:
REMARK  status: ('A' for Active; 'I' for Inactive)
REMARK    1  A    between atoms: C13_14  and  C14_15 
REMARK    2  A    between atoms: C13_14  and  N4_18 
REMARK    3  A    between atoms: C14_15  and  N2_16 
REMARK    4  A    between atoms: N2_16  and  N3_17 
ROOT
HETATM    1  C1  UNL     1      21.564   0.990  49.175  1.00  0.00     0.031 C 
HETATM    2  C2  UNL     1      21.981   1.691  50.443  1.00  0.00     0.045 A 
HETATM    3  C3  UNL     1      23.012   0.995  51.186  1.00  0.00     0.006 A 
HETATM    4  C4  UNL     1      22.495   0.564  52.350  1.00  0.00    -0.026 A 
HETATM    5  C5  UNL     1      22.995  -0.148  53.445  1.00  0.00     0.012 A 
HETATM    6  C6  UNL     1      22.215  -0.435  54.540  1.00  0.00     0.001 A 
HETATM    7  C7  UNL     1      20.905  -0.032  54.602  1.00  0.00     0.001 A 
HETATM    8  C8  UNL     1      20.362   0.673  53.547  1.00  0.00     0.014 A 
HETATM    9  C9  UNL     1      21.171   0.944  52.466  1.00  0.00    -0.003 A 
HETATM   10  C10 UNL     1      20.805   1.620  51.395  1.00  0.00     0.033 A 
HETATM   11  N1  UNL     1      19.890   2.368  50.595  1.00  0.00    -0.387 N 
HETATM   12  C11 UNL     1      20.715   3.224  49.729  1.00  0.00     0.157 C 
HETATM   13  C12 UNL     1      22.085   3.137  50.302  1.00  0.00    -0.020 C 
HETATM   14  C13 UNL     1      22.881   4.169  50.496  1.00  0.00     0.031 C 
HETATM   15  H9  UNL     1      18.852   2.247  50.695  1.00  0.00     0.159 HD
ENDROOT
BRANCH  14  16
HETATM   16  C14 UNL     1      24.249   4.109  51.066  1.00  0.00     0.162 C 
BRANCH  16  17
HETATM   17  N2  UNL     1      24.212   4.224  52.513  1.00  0.00    -0.258 NA
HETATM   18  H14 UNL     1      24.573   5.137  52.842  1.00  0.00     0.140 HD
BRANCH  17  19
HETATM   19  N3  UNL     1      24.987   3.222  53.102  1.00  0.00    -0.270 NA
HETATM   20  H15 UNL     1      25.102   3.334  54.118  1.00  0.00     0.137 HD
HETATM   21  H16 UNL     1      25.900   3.099  52.642  1.00  0.00     0.137 HD
ENDBRANCH  17  19
ENDBRANCH  16  17
ENDBRANCH  14  16
BRANCH  14  22
HETATM   22  N4  UNL     1      22.471   5.478  50.162  1.00  0.00    -0.355 N 
HETATM   23  C15 UNL     1      22.881   5.998  48.903  1.00  0.00     0.092 A 
HETATM   24  C16 UNL     1      22.507   7.216  48.574  1.00  0.00     0.036 A 
HETATM   25  C17 UNL     1      21.695   8.071  49.425  1.00  0.00     0.010 A 
HETATM   26 BR1  UNL     1      21.146   9.837  48.964  1.00  0.00    -0.051 Br
HETATM   27  C18 UNL     1      21.337   7.541  50.591  1.00  0.00     0.012 A 
HETATM   28  C19 UNL     1      21.662   6.194  51.129  1.00  0.00     0.157 A 
ENDBRANCH  14  22
TORSDOF 4
ENDMDL
MODEL 8
REMARK VINA RESULT:      -7.0      9.385     10.617
REMARK  4 active torsions:
REMARK  status: ('A' for Active; 'I' for Inactive)
REMARK    1  A    between atoms: C13_14  and  C14_15 
REMARK    2  A    between atoms: C13_14  and  N4_18 
REMARK    3  A    between atoms: C14_15  and  N2_16 
REMARK    4  A    between atoms: N2_16  and  N3_17 
ROOT
HETATM    1  C1  UNL     1      23.793   3.944  53.124  1.00  0.00     0.031 C 
HETATM    2  C2  UNL     1      23.777   2.678  52.306  1.00  0.00     0.045 A 
HETATM    3  C3  UNL     1      23.527   1.480  53.082  1.00  0.00     0.006 A 
HETATM    4  C4  UNL     1      24.633   0.716  53.072  1.00  0.00    -0.026 A 
HETATM    5  C5  UNL     1      24.982  -0.518  53.631  1.00  0.00     0.012 A 
HETATM    6  C6  UNL     1      26.218  -1.082  53.426  1.00  0.00     0.001 A 
HETATM    7  C7  UNL     1      27.167  -0.453  52.660  1.00  0.00     0.001 A 
HETATM    8  C8  UNL     1      26.874   0.767  52.086  1.00  0.00     0.014 A 
HETATM    9  C9  UNL     1      25.626   1.305  52.311  1.00  0.00    -0.003 A 
HETATM   10  C10 UNL     1      25.192   2.448  51.818  1.00  0.00     0.033 A 
HETATM   11  N1  UNL     1      25.302   3.639  51.040  1.00  0.00    -0.387 N 
HETATM   12  C11 UNL     1      23.926   4.013  50.676  1.00  0.00     0.157 C 
HETATM   13  C12 UNL     1      23.104   2.824  51.022  1.00  0.00    -0.020 C 
HETATM   14  C13 UNL     1      22.171   2.309  50.246  1.00  0.00     0.031 C 
HETATM   15  H9  UNL     1      26.236   4.070  50.830  1.00  0.00     0.159 HD
ENDROOT
BRANCH  14  16
HETATM   16  C14 UNL     1      21.338   1.124  50.567  1.00  0.00     0.162 C 
BRANCH  16  17
HETATM   17  N2  UNL     1      20.287   1.471  51.507  1.00  0.00    -0.258 NA
HETATM   18  H14 UNL     1      20.515   2.321  52.053  1.00  0.00     0.140 HD
BRANCH  17  19
HETATM   19  N3  UNL     1      20.076   0.427  52.411  1.00  0.00    -0.270 NA
HETATM   20  H15 UNL     1      19.961  -0.491  51.962  1.00  0.00     0.137 HD
HETATM   21  H16 UNL     1      19.302   0.614  53.065  1.00  0.00     0.137 HD
ENDBRANCH  17  19
ENDBRANCH  16  17
ENDBRANCH  14  16
BRANCH  14  22
HETATM   22  N4  UNL     1      21.878   2.873  48.986  1.00  0.00    -0.355 N 
HETATM   23  C15 UNL     1      22.554   2.344  47.851  1.00  0.00     0.092 A 
HETATM   24  C16 UNL     1      22.292   2.858  46.668  1.00  0.00     0.036 A 
HETATM   25  C17 UNL     1      21.349   3.941  46.447  1.00  0.00     0.010 A 
HETATM   26 BR1  UNL     1      20.960   4.696  44.741  1.00  0.00    -0.051 Br
HETATM   27  C18 UNL     1      20.743   4.403  47.537  1.00  0.00     0.012 A 
HETATM   28  C19 UNL     1      20.909   3.951  48.944  1.00  0.00     0.157 A 
ENDBRANCH  14  22
TORSDOF 4
ENDMDL
MODEL 9
REMARK VINA RESULT:      -7.0     11.024     12.805
REMARK  4 active torsions:
REMARK  status: ('A' for Active; 'I' for Inactive)
REMARK    1  A    between atoms: C13_14  and  C14_15 
REMARK    2  A    between atoms: C13_14  and  N4_18 
REMARK    3  A    between atoms: C14_15  and  N2_16 
REMARK    4  A    between atoms: N2_16  and  N3_17 
ROOT
HETATM    1  C1  UNL     1      21.556   1.017  48.670  1.00  0.00     0.031 C 
HETATM    2  C2  UNL     1      21.265   1.300  50.121  1.00  0.00     0.045 A 
HETATM    3  C3  UNL     1      20.072   0.643  50.620  1.00  0.00     0.006 A 
HETATM    4  C4  UNL     1      19.151   1.576  50.912  1.00  0.00    -0.026 A 
HETATM    5  C5  UNL     1      17.845   1.547  51.412  1.00  0.00     0.012 A 
HETATM    6  C6  UNL     1      17.129   2.698  51.638  1.00  0.00     0.001 A 
HETATM    7  C7  UNL     1      17.671   3.932  51.380  1.00  0.00     0.001 A 
HETATM    8  C8  UNL     1      18.956   4.017  50.885  1.00  0.00     0.014 A 
HETATM    9  C9  UNL     1      19.646   2.844  50.670  1.00  0.00    -0.003 A 
HETATM   10  C10 UNL     1      20.882   2.762  50.220  1.00  0.00     0.033 A 
HETATM   11  N1  UNL     1      22.125   3.296  49.765  1.00  0.00    -0.387 N 
HETATM   12  C11 UNL     1      23.139   2.272  50.062  1.00  0.00     0.157 C 
HETATM   13  C12 UNL     1      22.453   1.308  50.963  1.00  0.00    -0.020 C 
HETATM   14  C13 UNL     1      22.980   0.808  52.063  1.00  0.00     0.031 C 
HETATM   15  H9  UNL     1      22.182   4.247  49.323  1.00  0.00     0.159 HD
ENDROOT
BRANCH  14  16
HETATM   16  C14 UNL     1      22.318  -0.153  52.978  1.00  0.00     0.162 C 
BRANCH  16  17
HETATM   17  N2  UNL     1      21.402   0.532  53.872  1.00  0.00    -0.258 NA
HETATM   18  H14 UNL     1      21.893   0.994  54.658  1.00  0.00     0.140 HD
BRANCH  17  19
HETATM   19  N3  UNL     1      20.483  -0.371  54.416  1.00  0.00    -0.270 NA
HETATM   20  H15 UNL     1      20.172  -0.122  55.364  1.00  0.00     0.137 HD
HETATM   21  H16 UNL     1      20.813  -1.345  54.383  1.00  0.00     0.137 HD
ENDBRANCH  17  19
ENDBRANCH  16  17
ENDBRANCH  14  16
BRANCH  14  22
HETATM   22  N4  UNL     1      24.281   1.169  52.476  1.00  0.00    -0.355 N 
HETATM   23  C15 UNL     1      25.352   0.303  52.120  1.00  0.00     0.092 A 
HETATM   24  C16 UNL     1      26.572   0.624  52.496  1.00  0.00     0.036 A 
HETATM   25  C17 UNL     1      26.896   1.818  53.260  1.00  0.00     0.010 A 
HETATM   26 BR1  UNL     1      28.655   2.297  53.812  1.00  0.00    -0.051 Br
HETATM   27  C18 UNL     1      25.862   2.596  53.569  1.00  0.00     0.012 A 
HETATM   28  C19 UNL     1      24.427   2.397  53.234  1.00  0.00     0.157 A 
ENDBRANCH  14  22
TORSDOF 4
ENDMDL
