MODEL 1
REMARK VINA RESULT:      -8.3      0.000      0.000
REMARK  4 active torsions:
REMARK  status: ('A' for Active; 'I' for Inactive)
REMARK    1  A    between atoms: O1_2  and  C2_3 
REMARK    2  A    between atoms: C6_9  and  O2_10 
REMARK    3  A    between atoms: O2_10  and  C7_11 
REMARK    4  A    between atoms: C15_21  and  O3_22 
ROOT
HETATM    1  C2  UNL     1      19.843  -0.175  52.581  1.00  0.00     0.103 A 
HETATM    2  C3  UNL     1      20.207  -0.821  53.744  1.00  0.00     0.072 A 
HETATM    3  C4  UNL     1      21.521  -0.890  54.144  1.00  0.00     0.075 A 
HETATM    4  N1  UNL     1      22.026  -1.479  55.240  1.00  0.00    -0.241 NA
HETATM    5  C5  UNL     1      23.356  -1.460  55.499  1.00  0.00     0.236 A 
HETATM    6  N2  UNL     1      24.279  -0.863  54.702  1.00  0.00    -0.217 NA
HETATM    7  C6  UNL     1      23.818  -0.249  53.572  1.00  0.00     0.183 A 
HETATM    8  C13 UNL     1      22.462  -0.290  53.344  1.00  0.00     0.049 A 
HETATM    9  C14 UNL     1      22.128   0.360  52.182  1.00  0.00     0.057 A 
HETATM   10  C15 UNL     1      20.811   0.423  51.791  1.00  0.00     0.102 A 
ENDROOT
BRANCH   7  11
HETATM   11  O2  UNL     1      24.920   0.237  53.000  1.00  0.00    -0.291 OA
BRANCH  11  12
HETATM   12  C7  UNL     1      26.219   0.046  53.186  1.00  0.00     0.079 A 
HETATM   13  C8  UNL     1      26.846  -1.167  52.862  1.00  0.00     0.040 A 
HETATM   14  C9  UNL     1      28.177  -1.485  53.010  1.00  0.00     0.047 A 
HETATM   15  C10 UNL     1      28.985  -0.499  53.537  1.00  0.00     0.138 A 
HETATM   16  F1  UNL     1      30.294  -0.763  53.700  1.00  0.00    -0.204 F 
HETATM   17  C11 UNL     1      28.494   0.737  53.897  1.00  0.00     0.075 A 
HETATM   18 CL1  UNL     1      29.502   2.002  54.567  1.00  0.00    -0.081 Cl
HETATM   19  C12 UNL     1      27.147   0.961  53.710  1.00  0.00     0.064 A 
ENDBRANCH  11  12
ENDBRANCH   7  11
BRANCH  10  20
HETATM   20  O3  UNL     1      20.392   1.063  50.628  1.00  0.00    -0.353 OA
HETATM   21  C16 UNL     1      21.203   0.896  49.471  1.00  0.00     0.210 C 
ENDBRANCH  10  20
BRANCH   1  22
HETATM   22  O1  UNL     1      18.512  -0.119  52.199  1.00  0.00    -0.353 OA
HETATM   23  C1  UNL     1      17.501  -0.903  52.748  1.00  0.00     0.210 C 
ENDBRANCH   1  22
TORSDOF 4
ENDMDL
MODEL 2
REMARK VINA RESULT:      -8.1      2.520      3.566
REMARK  4 active torsions:
REMARK  status: ('A' for Active; 'I' for Inactive)
REMARK    1  A    between atoms: O1_2  and  C2_3 
REMARK    2  A    between atoms: C6_9  and  O2_10 
REMARK    3  A    between atoms: O2_10  and  C7_11 
REMARK    4  A    between atoms: C15_21  and  O3_22 
ROOT
HETATM    1  C2  UNL     1      21.075   0.281  52.282  1.00  0.00     0.103 A 
HETATM    2  C3  UNL     1      21.385   1.049  51.180  1.00  0.00     0.072 A 
HETATM    3  C4  UNL     1      22.606   1.669  51.059  1.00  0.00     0.075 A 
HETATM    4  N1  UNL     1      23.050   2.443  50.054  1.00  0.00    -0.241 NA
HETATM    5  C5  UNL     1      24.291   2.986  50.081  1.00  0.00     0.236 A 
HETATM    6  N2  UNL     1      25.180   2.808  51.091  1.00  0.00    -0.217 NA
HETATM    7  C6  UNL     1      24.778   2.029  52.140  1.00  0.00     0.183 A 
HETATM    8  C13 UNL     1      23.512   1.496  52.076  1.00  0.00     0.049 A 
HETATM    9  C14 UNL     1      23.231   0.736  53.185  1.00  0.00     0.057 A 
HETATM   10  C15 UNL     1      22.006   0.121  53.296  1.00  0.00     0.102 A 
ENDROOT
BRANCH   7  11
HETATM   11  O2  UNL     1      25.828   2.032  52.961  1.00  0.00    -0.291 OA
BRANCH  11  12
HETATM   12  C7  UNL     1      26.856   1.216  53.150  1.00  0.00     0.079 A 
HETATM   13  C8  UNL     1      28.085   1.671  53.654  1.00  0.00     0.040 A 
HETATM   14  C9  UNL     1      29.218   0.927  53.890  1.00  0.00     0.047 A 
HETATM   15  C10 UNL     1      29.137  -0.418  53.597  1.00  0.00     0.138 A 
HETATM   16  F1  UNL     1      30.219  -1.188  53.811  1.00  0.00    -0.204 F 
HETATM   17  C11 UNL     1      27.988  -0.992  53.096  1.00  0.00     0.075 A 
HETATM   18 CL1  UNL     1      27.864  -2.697  52.718  1.00  0.00    -0.081 Cl
HETATM   19  C12 UNL     1      26.905  -0.165  52.894  1.00  0.00     0.064 A 
ENDBRANCH  11  12
ENDBRANCH   7  11
BRANCH  10  20
HETATM   20  O3  UNL     1      21.645  -0.665  54.387  1.00  0.00    -0.353 OA
HETATM   21  C16 UNL     1      22.701  -1.238  55.147  1.00  0.00     0.210 C 
ENDBRANCH  10  20
BRANCH   1  22
HETATM   22  O1  UNL     1      19.837  -0.334  52.381  1.00  0.00    -0.353 OA
HETATM   23  C1  UNL     1      18.717   0.025  51.636  1.00  0.00     0.210 C 
ENDBRANCH   1  22
TORSDOF 4
ENDMDL
MODEL 3
REMARK VINA RESULT:      -8.0      4.147      7.531
REMARK  4 active torsions:
REMARK  status: ('A' for Active; 'I' for Inactive)
REMARK    1  A    between atoms: O1_2  and  C2_3 
REMARK    2  A    between atoms: C6_9  and  O2_10 
REMARK    3  A    between atoms: O2_10  and  C7_11 
REMARK    4  A    between atoms: C15_21  and  O3_22 
ROOT
HETATM    1  C2  UNL     1      27.530   0.185  53.854  1.00  0.00     0.103 A 
HETATM    2  C3  UNL     1      27.836   1.017  52.798  1.00  0.00     0.072 A 
HETATM    3  C4  UNL     1      26.877   1.804  52.204  1.00  0.00     0.075 A 
HETATM    4  N1  UNL     1      27.021   2.657  51.176  1.00  0.00    -0.241 NA
HETATM    5  C5  UNL     1      25.970   3.368  50.700  1.00  0.00     0.236 A 
HETATM    6  N2  UNL     1      24.710   3.291  51.199  1.00  0.00    -0.217 NA
HETATM    7  C6  UNL     1      24.508   2.437  52.246  1.00  0.00     0.183 A 
HETATM    8  C13 UNL     1      25.598   1.733  52.700  1.00  0.00     0.049 A 
HETATM    9  C14 UNL     1      25.265   0.914  53.750  1.00  0.00     0.057 A 
HETATM   10  C15 UNL     1      26.232   0.131  54.337  1.00  0.00     0.102 A 
ENDROOT
BRANCH   7  11
HETATM   11  O2  UNL     1      23.210   2.567  52.519  1.00  0.00    -0.291 OA
BRANCH  11  12
HETATM   12  C7  UNL     1      22.149   1.786  52.362  1.00  0.00     0.079 A 
HETATM   13  C8  UNL     1      21.213   2.000  51.339  1.00  0.00     0.040 A 
HETATM   14  C9  UNL     1      20.079   1.264  51.077  1.00  0.00     0.047 A 
HETATM   15  C10 UNL     1      19.837   0.197  51.916  1.00  0.00     0.138 A 
HETATM   16  F1  UNL     1      18.741  -0.552  51.699  1.00  0.00    -0.204 F 
HETATM   17  C11 UNL     1      20.679  -0.122  52.960  1.00  0.00     0.075 A 
HETATM   18 CL1  UNL     1      20.390  -1.472  54.036  1.00  0.00    -0.081 Cl
HETATM   19  C12 UNL     1      21.789   0.674  53.141  1.00  0.00     0.064 A 
ENDBRANCH  11  12
ENDBRANCH   7  11
BRANCH  10  20
HETATM   20  O3  UNL     1      25.975  -0.725  55.404  1.00  0.00    -0.353 OA
HETATM   21  C16 UNL     1      24.641  -1.197  55.546  1.00  0.00     0.210 C 
ENDBRANCH  10  20
BRANCH   1  22
HETATM   22  O1  UNL     1      28.514  -0.598  54.435  1.00  0.00    -0.353 OA
HETATM   23  C1  UNL     1      29.729  -0.913  53.834  1.00  0.00     0.210 C 
ENDBRANCH   1  22
TORSDOF 4
ENDMDL
MODEL 4
REMARK VINA RESULT:      -7.9      4.261      6.777
REMARK  4 active torsions:
REMARK  status: ('A' for Active; 'I' for Inactive)
REMARK    1  A    between atoms: O1_2  and  C2_3 
REMARK    2  A    between atoms: C6_9  and  O2_10 
REMARK    3  A    between atoms: O2_10  and  C7_11 
REMARK    4  A    between atoms: C15_21  and  O3_22 
ROOT
HETATM    1  C2  UNL     1      26.658   0.196  54.290  1.00  0.00     0.103 A 
HETATM    2  C3  UNL     1      25.580  -0.625  54.032  1.00  0.00     0.072 A 
HETATM    3  C4  UNL     1      24.414  -0.130  53.496  1.00  0.00     0.075 A 
HETATM    4  N1  UNL     1      23.290  -0.799  53.192  1.00  0.00    -0.241 NA
HETATM    5  C5  UNL     1      22.215  -0.164  52.664  1.00  0.00     0.236 A 
HETATM    6  N2  UNL     1      22.171   1.166  52.399  1.00  0.00    -0.217 NA
HETATM    7  C6  UNL     1      23.290   1.894  52.690  1.00  0.00     0.183 A 
HETATM    8  C13 UNL     1      24.359   1.215  53.224  1.00  0.00     0.049 A 
HETATM    9  C14 UNL     1      25.416   2.055  53.471  1.00  0.00     0.057 A 
HETATM   10  C15 UNL     1      26.577   1.550  54.007  1.00  0.00     0.102 A 
ENDROOT
BRANCH   7  11
HETATM   11  O2  UNL     1      22.964   3.137  52.333  1.00  0.00    -0.291 OA
BRANCH  11  12
HETATM   12  C7  UNL     1      23.424   3.990  51.427  1.00  0.00     0.079 A 
HETATM   13  C8  UNL     1      23.976   3.557  50.212  1.00  0.00     0.040 A 
HETATM   14  C9  UNL     1      24.485   4.339  49.199  1.00  0.00     0.047 A 
HETATM   15  C10 UNL     1      24.449   5.702  49.405  1.00  0.00     0.138 A 
HETATM   16  F1  UNL     1      24.935   6.508  48.444  1.00  0.00    -0.204 F 
HETATM   17  C11 UNL     1      23.933   6.257  50.557  1.00  0.00     0.075 A 
HETATM   18 CL1  UNL     1      23.877   7.984  50.837  1.00  0.00    -0.081 Cl
HETATM   19  C12 UNL     1      23.446   5.391  51.512  1.00  0.00     0.064 A 
ENDBRANCH  11  12
ENDBRANCH   7  11
BRANCH  10  20
HETATM   20  O3  UNL     1      27.692   2.336  54.285  1.00  0.00    -0.353 OA
HETATM   21  C16 UNL     1      28.606   2.560  53.218  1.00  0.00     0.210 C 
ENDBRANCH  10  20
BRANCH   1  22
HETATM   22  O1  UNL     1      27.822  -0.326  54.830  1.00  0.00    -0.353 OA
HETATM   23  C1  UNL     1      28.883  -0.828  54.081  1.00  0.00     0.210 C 
ENDBRANCH   1  22
TORSDOF 4
ENDMDL
MODEL 5
REMARK VINA RESULT:      -7.8      3.483      6.420
REMARK  4 active torsions:
REMARK  status: ('A' for Active; 'I' for Inactive)
REMARK    1  A    between atoms: O1_2  and  C2_3 
REMARK    2  A    between atoms: C6_9  and  O2_10 
REMARK    3  A    between atoms: O2_10  and  C7_11 
REMARK    4  A    between atoms: C15_21  and  O3_22 
ROOT
HETATM    1  C2  UNL     1      26.305  -0.326  53.827  1.00  0.00     0.103 A 
HETATM    2  C3  UNL     1      25.328  -0.941  54.582  1.00  0.00     0.072 A 
HETATM    3  C4  UNL     1      23.995  -0.665  54.391  1.00  0.00     0.075 A 
HETATM    4  N1  UNL     1      22.938  -1.178  55.042  1.00  0.00    -0.241 NA
HETATM    5  C5  UNL     1      21.672  -0.802  54.734  1.00  0.00     0.236 A 
HETATM    6  N2  UNL     1      21.359   0.100  53.769  1.00  0.00    -0.217 NA
HETATM    7  C6  UNL     1      22.398   0.653  53.076  1.00  0.00     0.183 A 
HETATM    8  C13 UNL     1      23.667   0.247  53.417  1.00  0.00     0.049 A 
HETATM    9  C14 UNL     1      24.618   0.874  52.651  1.00  0.00     0.057 A 
HETATM   10  C15 UNL     1      25.949   0.591  52.851  1.00  0.00     0.102 A 
ENDROOT
BRANCH   7  11
HETATM   11  O2  UNL     1      21.804   1.481  52.216  1.00  0.00    -0.291 OA
BRANCH  11  12
HETATM   12  C7  UNL     1      21.981   1.763  50.932  1.00  0.00     0.079 A 
HETATM   13  C8  UNL     1      21.533   0.908  49.914  1.00  0.00     0.040 A 
HETATM   14  C9  UNL     1      21.658   1.089  48.555  1.00  0.00     0.047 A 
HETATM   15  C10 UNL     1      22.298   2.241  48.150  1.00  0.00     0.138 A 
HETATM   16  F1  UNL     1      22.445   2.463  46.831  1.00  0.00    -0.204 F 
HETATM   17  C11 UNL     1      22.787   3.165  49.050  1.00  0.00     0.075 A 
HETATM   18 CL1  UNL     1      23.602   4.633  48.556  1.00  0.00    -0.081 Cl
HETATM   19  C12 UNL     1      22.612   2.894  50.389  1.00  0.00     0.064 A 
ENDBRANCH  11  12
ENDBRANCH   7  11
BRANCH  10  20
HETATM   20  O3  UNL     1      26.972   1.183  52.116  1.00  0.00    -0.353 OA
HETATM   21  C16 UNL     1      26.630   2.320  51.334  1.00  0.00     0.210 C 
ENDBRANCH  10  20
BRANCH   1  22
HETATM   22  O1  UNL     1      27.642  -0.621  54.039  1.00  0.00    -0.353 OA
HETATM   23  C1  UNL     1      28.485   0.100  54.881  1.00  0.00     0.210 C 
ENDBRANCH   1  22
TORSDOF 4
ENDMDL
MODEL 6
REMARK VINA RESULT:      -7.8      3.008      4.316
REMARK  4 active torsions:
REMARK  status: ('A' for Active; 'I' for Inactive)
REMARK    1  A    between atoms: O1_2  and  C2_3 
REMARK    2  A    between atoms: C6_9  and  O2_10 
REMARK    3  A    between atoms: O2_10  and  C7_11 
REMARK    4  A    between atoms: C15_21  and  O3_22 
ROOT
HETATM    1  C2  UNL     1      23.490   3.337  49.515  1.00  0.00     0.103 A 
HETATM    2  C3  UNL     1      22.607   2.366  49.936  1.00  0.00     0.072 A 
HETATM    3  C4  UNL     1      22.861   1.599  51.050  1.00  0.00     0.075 A 
HETATM    4  N1  UNL     1      22.104   0.624  51.579  1.00  0.00    -0.241 NA
HETATM    5  C5  UNL     1      22.495  -0.045  52.691  1.00  0.00     0.236 A 
HETATM    6  N2  UNL     1      23.652   0.197  53.358  1.00  0.00    -0.217 NA
HETATM    7  C6  UNL     1      24.460   1.180  52.861  1.00  0.00     0.183 A 
HETATM    8  C13 UNL     1      24.029   1.836  51.732  1.00  0.00     0.049 A 
HETATM    9  C14 UNL     1      24.927   2.796  51.335  1.00  0.00     0.057 A 
HETATM   10  C15 UNL     1      24.663   3.556  50.220  1.00  0.00     0.102 A 
ENDROOT
BRANCH   7  11
HETATM   11  O2  UNL     1      25.498   1.195  53.699  1.00  0.00    -0.291 OA
BRANCH  11  12
HETATM   12  C7  UNL     1      26.719   0.679  53.666  1.00  0.00     0.079 A 
HETATM   13  C8  UNL     1      27.860   1.452  53.934  1.00  0.00     0.040 A 
HETATM   14  C9  UNL     1      29.172   1.036  53.929  1.00  0.00     0.047 A 
HETATM   15  C10 UNL     1      29.388  -0.292  53.625  1.00  0.00     0.138 A 
HETATM   16  F1  UNL     1      30.655  -0.747  53.608  1.00  0.00    -0.204 F 
HETATM   17  C11 UNL     1      28.354  -1.159  53.342  1.00  0.00     0.075 A 
HETATM   18 CL1  UNL     1      28.609  -2.847  52.955  1.00  0.00    -0.081 Cl
HETATM   19  C12 UNL     1      27.075  -0.647  53.372  1.00  0.00     0.064 A 
ENDBRANCH  11  12
ENDBRANCH   7  11
BRANCH  10  20
HETATM   20  O3  UNL     1      25.521   4.549  49.755  1.00  0.00    -0.353 OA
HETATM   21  C16 UNL     1      26.791   4.130  49.273  1.00  0.00     0.210 C 
ENDBRANCH  10  20
BRANCH   1  22
HETATM   22  O1  UNL     1      23.211   4.096  48.390  1.00  0.00    -0.353 OA
HETATM   23  C1  UNL     1      21.938   4.279  47.859  1.00  0.00     0.210 C 
ENDBRANCH   1  22
TORSDOF 4
ENDMDL
MODEL 7
REMARK VINA RESULT:      -7.7      3.712      6.985
REMARK  4 active torsions:
REMARK  status: ('A' for Active; 'I' for Inactive)
REMARK    1  A    between atoms: O1_2  and  C2_3 
REMARK    2  A    between atoms: C6_9  and  O2_10 
REMARK    3  A    between atoms: O2_10  and  C7_11 
REMARK    4  A    between atoms: C15_21  and  O3_22 
ROOT
HETATM    1  C2  UNL     1      27.268   0.579  53.456  1.00  0.00     0.103 A 
HETATM    2  C3  UNL     1      26.803  -0.087  54.570  1.00  0.00     0.072 A 
HETATM    3  C4  UNL     1      25.494  -0.498  54.665  1.00  0.00     0.075 A 
HETATM    4  N1  UNL     1      24.899  -1.151  55.677  1.00  0.00    -0.241 NA
HETATM    5  C5  UNL     1      23.588  -1.490  55.620  1.00  0.00     0.236 A 
HETATM    6  N2  UNL     1      22.774  -1.213  54.570  1.00  0.00    -0.217 NA
HETATM    7  C6  UNL     1      23.330  -0.549  53.513  1.00  0.00     0.183 A 
HETATM    8  C13 UNL     1      24.661  -0.222  53.608  1.00  0.00     0.049 A 
HETATM    9  C14 UNL     1      25.097   0.440  52.487  1.00  0.00     0.057 A 
HETATM   10  C15 UNL     1      26.408   0.847  52.402  1.00  0.00     0.102 A 
ENDROOT
BRANCH   7  11
HETATM   11  O2  UNL     1      22.320  -0.417  52.652  1.00  0.00    -0.291 OA
BRANCH  11  12
HETATM   12  C7  UNL     1      21.436   0.540  52.404  1.00  0.00     0.079 A 
HETATM   13  C8  UNL     1      20.076   0.261  52.196  1.00  0.00     0.040 A 
HETATM   14  C9  UNL     1      19.069   1.161  51.930  1.00  0.00     0.047 A 
HETATM   15  C10 UNL     1      19.441   2.487  51.858  1.00  0.00     0.138 A 
HETATM   16  F1  UNL     1      18.492   3.405  51.601  1.00  0.00    -0.204 F 
HETATM   17  C11 UNL     1      20.745   2.896  52.043  1.00  0.00     0.075 A 
HETATM   18 CL1  UNL     1      21.236   4.574  51.957  1.00  0.00    -0.081 Cl
HETATM   19  C12 UNL     1      21.681   1.919  52.305  1.00  0.00     0.064 A 
ENDBRANCH  11  12
ENDBRANCH   7  11
BRANCH  10  20
HETATM   20  O3  UNL     1      26.927   1.521  51.300  1.00  0.00    -0.353 OA
HETATM   21  C16 UNL     1      26.364   2.792  50.999  1.00  0.00     0.210 C 
ENDBRANCH  10  20
BRANCH   1  22
HETATM   22  O1  UNL     1      28.592   0.983  53.384  1.00  0.00    -0.353 OA
HETATM   23  C1  UNL     1      29.681   0.171  53.685  1.00  0.00     0.210 C 
ENDBRANCH   1  22
TORSDOF 4
ENDMDL
MODEL 8
REMARK VINA RESULT:      -7.5      4.909      5.844
REMARK  4 active torsions:
REMARK  status: ('A' for Active; 'I' for Inactive)
REMARK    1  A    between atoms: O1_2  and  C2_3 
REMARK    2  A    between atoms: C6_9  and  O2_10 
REMARK    3  A    between atoms: O2_10  and  C7_11 
REMARK    4  A    between atoms: C15_21  and  O3_22 
ROOT
HETATM    1  C2  UNL     1      23.311   0.058  53.331  1.00  0.00     0.103 A 
HETATM    2  C3  UNL     1      24.566   0.195  53.885  1.00  0.00     0.072 A 
HETATM    3  C4  UNL     1      25.546   0.935  53.265  1.00  0.00     0.075 A 
HETATM    4  N1  UNL     1      26.804   1.159  53.677  1.00  0.00    -0.241 NA
HETATM    5  C5  UNL     1      27.658   1.918  52.947  1.00  0.00     0.236 A 
HETATM    6  N2  UNL     1      27.336   2.507  51.768  1.00  0.00    -0.217 NA
HETATM    7  C6  UNL     1      26.067   2.311  51.303  1.00  0.00     0.183 A 
HETATM    8  C13 UNL     1      25.230   1.535  52.070  1.00  0.00     0.049 A 
HETATM    9  C14 UNL     1      23.989   1.415  51.496  1.00  0.00     0.057 A 
HETATM   10  C15 UNL     1      23.017   0.672  52.125  1.00  0.00     0.102 A 
ENDROOT
BRANCH   7  11
HETATM   11  O2  UNL     1      26.038   2.990  50.156  1.00  0.00    -0.291 OA
BRANCH  11  12
HETATM   12  C7  UNL     1      26.057   4.279  49.845  1.00  0.00     0.079 A 
HETATM   13  C8  UNL     1      26.982   4.811  48.933  1.00  0.00     0.040 A 
HETATM   14  C9  UNL     1      27.103   6.123  48.533  1.00  0.00     0.047 A 
HETATM   15  C10 UNL     1      26.212   7.014  49.093  1.00  0.00     0.138 A 
HETATM   16  F1  UNL     1      26.290   8.308  48.733  1.00  0.00    -0.204 F 
HETATM   17  C11 UNL     1      25.253   6.622  50.002  1.00  0.00     0.075 A 
HETATM   18 CL1  UNL     1      24.113   7.738  50.723  1.00  0.00    -0.081 Cl
HETATM   19  C12 UNL     1      25.212   5.286  50.339  1.00  0.00     0.064 A 
ENDBRANCH  11  12
ENDBRANCH   7  11
BRANCH  10  20
HETATM   20  O3  UNL     1      21.735   0.503  51.608  1.00  0.00    -0.353 OA
HETATM   21  C16 UNL     1      21.549   0.807  50.232  1.00  0.00     0.210 C 
ENDBRANCH  10  20
BRANCH   1  22
HETATM   22  O1  UNL     1      22.340  -0.693  53.976  1.00  0.00    -0.353 OA
HETATM   23  C1  UNL     1      21.318  -0.158  54.754  1.00  0.00     0.210 C 
ENDBRANCH   1  22
TORSDOF 4
ENDMDL
MODEL 9
REMARK VINA RESULT:      -7.5      3.004      3.369
REMARK  4 active torsions:
REMARK  status: ('A' for Active; 'I' for Inactive)
REMARK    1  A    between atoms: O1_2  and  C2_3 
REMARK    2  A    between atoms: C6_9  and  O2_10 
REMARK    3  A    between atoms: O2_10  and  C7_11 
REMARK    4  A    between atoms: C15_21  and  O3_22 
ROOT
HETATM    1  C2  UNL     1      20.189  -0.688  53.424  1.00  0.00     0.103 A 
HETATM    2  C3  UNL     1      20.868  -1.161  54.528  1.00  0.00     0.072 A 
HETATM    3  C4  UNL     1      22.235  -1.055  54.628  1.00  0.00     0.075 A 
HETATM    4  N1  UNL     1      23.030  -1.465  55.631  1.00  0.00    -0.241 NA
HETATM    5  C5  UNL     1      24.372  -1.286  55.582  1.00  0.00     0.236 A 
HETATM    6  N2  UNL     1      25.025  -0.695  54.550  1.00  0.00    -0.217 NA
HETATM    7  C6  UNL     1      24.263  -0.259  53.503  1.00  0.00     0.183 A 
HETATM    8  C13 UNL     1      22.906  -0.458  53.589  1.00  0.00     0.049 A 
HETATM    9  C14 UNL     1      22.257   0.021  52.479  1.00  0.00     0.057 A 
HETATM   10  C15 UNL     1      20.889  -0.090  52.388  1.00  0.00     0.102 A 
ENDROOT
BRANCH   7  11
HETATM   11  O2  UNL     1      25.152   0.266  52.658  1.00  0.00    -0.291 OA
BRANCH  11  12
HETATM   12  C7  UNL     1      25.261   1.434  52.040  1.00  0.00     0.079 A 
HETATM   13  C8  UNL     1      26.312   1.710  51.151  1.00  0.00     0.040 A 
HETATM   14  C9  UNL     1      26.533   2.877  50.455  1.00  0.00     0.047 A 
HETATM   15  C10 UNL     1      25.619   3.889  50.657  1.00  0.00     0.138 A 
HETATM   16  F1  UNL     1      25.793   5.050  49.998  1.00  0.00    -0.204 F 
HETATM   17  C11 UNL     1      24.541   3.748  51.505  1.00  0.00     0.075 A 
HETATM   18 CL1  UNL     1      23.370   5.021  51.773  1.00  0.00    -0.081 Cl
HETATM   19  C12 UNL     1      24.405   2.541  52.156  1.00  0.00     0.064 A 
ENDBRANCH  11  12
ENDBRANCH   7  11
BRANCH  10  20
HETATM   20  O3  UNL     1      20.158   0.372  51.297  1.00  0.00    -0.353 OA
HETATM   21  C16 UNL     1      20.895   0.924  50.214  1.00  0.00     0.210 C 
ENDBRANCH  10  20
BRANCH   1  22
HETATM   22  O1  UNL     1      18.811  -0.807  53.346  1.00  0.00    -0.353 OA
HETATM   23  C1  UNL     1      18.109  -1.990  53.557  1.00  0.00     0.210 C 
ENDBRANCH   1  22
TORSDOF 4
ENDMDL
