MODEL 1
REMARK VINA RESULT:      -7.0      0.000      0.000
REMARK  2 active torsions:
REMARK  status: ('A' for Active; 'I' for Inactive)
REMARK    1  A    between atoms: N2_12  and  C10_13 
REMARK    2  A    between atoms: C10_13  and  N3_14 
ROOT
HETATM    1  C1  UNL     1      25.903   4.321  49.644  1.00  0.00     0.099 C 
HETATM    2  C2  UNL     1      25.023   3.396  49.981  1.00  0.00     0.040 C 
HETATM    3  C3  UNL     1      23.808   2.931  49.343  1.00  0.00     0.147 C 
HETATM    4  C4  UNL     1      23.094   4.070  48.636  1.00  0.00     0.062 C 
HETATM    5  C5  UNL     1      22.739   5.142  49.602  1.00  0.00    -0.005 C 
HETATM    6  C6  UNL     1      22.999   5.046  50.891  1.00  0.00     0.112 C 
HETATM    7  N1  UNL     1      23.336   4.806  52.226  1.00  0.00    -0.275 NA
HETATM    8  C7  UNL     1      23.855   3.737  52.681  1.00  0.00     0.116 C 
HETATM    9  C8  UNL     1      24.285   2.443  52.129  1.00  0.00     0.145 C 
HETATM   10  C9  UNL     1      23.258   1.743  51.295  1.00  0.00     0.198 C 
HETATM   11  O1  UNL     1      22.880   2.348  50.149  1.00  0.00    -0.381 OA
HETATM   12  N2  UNL     1      25.382   2.741  51.225  1.00  0.00    -0.379 N 
ENDROOT
BRANCH  12  13
HETATM   13  C10 UNL     1      26.753   2.410  51.535  1.00  0.00     0.248 C 
BRANCH  13  14
HETATM   14  N3  UNL     1      26.872   1.247  52.389  1.00  0.00    -0.332 N 
HETATM   15  C11 UNL     1      26.673  -0.140  51.945  1.00  0.00     0.153 C 
HETATM   16  C12 UNL     1      27.220  -1.043  53.035  1.00  0.00     0.188 C 
HETATM   17  O2  UNL     1      26.459  -0.806  54.178  1.00  0.00    -0.380 OA
HETATM   18  C13 UNL     1      26.736   0.416  54.756  1.00  0.00     0.270 C 
HETATM   19  C14 UNL     1      27.203   1.420  53.765  1.00  0.00     0.244 C 
HETATM   20  O3  UNL     1      27.884   2.411  54.134  1.00  0.00    -0.271 OA
ENDBRANCH  13  14
ENDBRANCH  12  13
TORSDOF 2
ENDMDL
MODEL 2
REMARK VINA RESULT:      -6.7      2.715      5.747
REMARK  2 active torsions:
REMARK  status: ('A' for Active; 'I' for Inactive)
REMARK    1  A    between atoms: N2_12  and  C10_13 
REMARK    2  A    between atoms: C10_13  and  N3_14 
ROOT
HETATM    1  C1  UNL     1      26.785   1.705  51.497  1.00  0.00     0.099 C 
HETATM    2  C2  UNL     1      26.488   1.391  52.745  1.00  0.00     0.040 C 
HETATM    3  C3  UNL     1      27.032   1.830  54.014  1.00  0.00     0.147 C 
HETATM    4  C4  UNL     1      28.523   2.096  53.904  1.00  0.00     0.062 C 
HETATM    5  C5  UNL     1      29.243   0.867  53.483  1.00  0.00    -0.005 C 
HETATM    6  C6  UNL     1      28.624  -0.280  53.282  1.00  0.00     0.112 C 
HETATM    7  N1  UNL     1      27.838  -1.423  53.108  1.00  0.00    -0.275 NA
HETATM    8  C7  UNL     1      26.590  -1.509  53.339  1.00  0.00     0.116 C 
HETATM    9  C8  UNL     1      25.532  -0.607  53.821  1.00  0.00     0.145 C 
HETATM   10  C9  UNL     1      25.849   0.111  55.096  1.00  0.00     0.198 C 
HETATM   11  O1  UNL     1      26.877   0.985  55.069  1.00  0.00    -0.381 OA
HETATM   12  N2  UNL     1      25.403   0.430  52.812  1.00  0.00    -0.379 N 
ENDROOT
BRANCH  12  13
HETATM   13  C10 UNL     1      24.268   0.510  51.924  1.00  0.00     0.248 C 
BRANCH  13  14
HETATM   14  N3  UNL     1      23.010   0.638  52.629  1.00  0.00    -0.332 N 
HETATM   15  C11 UNL     1      22.332  -0.458  53.337  1.00  0.00     0.153 C 
HETATM   16  C12 UNL     1      21.258   0.166  54.207  1.00  0.00     0.188 C 
HETATM   17  O2  UNL     1      20.356   0.795  53.350  1.00  0.00    -0.380 OA
HETATM   18  C13 UNL     1      20.871   1.946  52.790  1.00  0.00     0.270 C 
HETATM   19  C14 UNL     1      22.350   1.902  52.661  1.00  0.00     0.244 C 
HETATM   20  O3  UNL     1      23.016   2.967  52.581  1.00  0.00    -0.271 OA
ENDBRANCH  13  14
ENDBRANCH  12  13
TORSDOF 2
ENDMDL
MODEL 3
REMARK VINA RESULT:      -6.6      2.399      5.781
REMARK  2 active torsions:
REMARK  status: ('A' for Active; 'I' for Inactive)
REMARK    1  A    between atoms: N2_12  and  C10_13 
REMARK    2  A    between atoms: C10_13  and  N3_14 
ROOT
HETATM    1  C1  UNL     1      24.925  -0.704  54.210  1.00  0.00     0.099 C 
HETATM    2  C2  UNL     1      25.413  -0.105  53.139  1.00  0.00     0.040 C 
HETATM    3  C3  UNL     1      26.374  -0.529  52.141  1.00  0.00     0.147 C 
HETATM    4  C4  UNL     1      27.448  -1.409  52.758  1.00  0.00     0.062 C 
HETATM    5  C5  UNL     1      28.172  -0.675  53.828  1.00  0.00    -0.005 C 
HETATM    6  C6  UNL     1      27.901   0.579  54.132  1.00  0.00     0.112 C 
HETATM    7  N1  UNL     1      27.508   1.904  54.343  1.00  0.00    -0.275 NA
HETATM    8  C7  UNL     1      26.641   2.539  53.663  1.00  0.00     0.116 C 
HETATM    9  C8  UNL     1      25.769   2.250  52.513  1.00  0.00     0.145 C 
HETATM   10  C9  UNL     1      26.469   1.672  51.322  1.00  0.00     0.198 C 
HETATM   11  O1  UNL     1      27.034   0.456  51.472  1.00  0.00    -0.381 OA
HETATM   12  N2  UNL     1      24.848   1.220  52.961  1.00  0.00    -0.379 N 
ENDROOT
BRANCH  12  13
HETATM   13  C10 UNL     1      23.452   1.486  53.216  1.00  0.00     0.248 C 
BRANCH  13  14
HETATM   14  N3  UNL     1      22.613   1.242  52.062  1.00  0.00    -0.332 N 
HETATM   15  C11 UNL     1      22.717   1.961  50.785  1.00  0.00     0.153 C 
HETATM   16  C12 UNL     1      21.912   1.180  49.763  1.00  0.00     0.188 C 
HETATM   17  O2  UNL     1      20.588   1.189  50.196  1.00  0.00    -0.380 OA
HETATM   18  C13 UNL     1      20.382   0.378  51.293  1.00  0.00     0.270 C 
HETATM   19  C14 UNL     1      21.600   0.239  52.132  1.00  0.00     0.244 C 
HETATM   20  O3  UNL     1      21.740  -0.750  52.897  1.00  0.00    -0.271 OA
ENDBRANCH  13  14
ENDBRANCH  12  13
TORSDOF 2
ENDMDL
MODEL 4
REMARK VINA RESULT:      -6.4      1.180      1.327
REMARK  2 active torsions:
REMARK  status: ('A' for Active; 'I' for Inactive)
REMARK    1  A    between atoms: N2_12  and  C10_13 
REMARK    2  A    between atoms: C10_13  and  N3_14 
ROOT
HETATM    1  C1  UNL     1      26.200   3.274  50.721  1.00  0.00     0.099 C 
HETATM    2  C2  UNL     1      25.026   2.800  51.097  1.00  0.00     0.040 C 
HETATM    3  C3  UNL     1      23.903   2.276  50.345  1.00  0.00     0.147 C 
HETATM    4  C4  UNL     1      23.752   3.000  49.018  1.00  0.00     0.062 C 
HETATM    5  C5  UNL     1      23.536   4.453  49.238  1.00  0.00    -0.005 C 
HETATM    6  C6  UNL     1      23.459   4.981  50.444  1.00  0.00     0.112 C 
HETATM    7  N1  UNL     1      23.397   5.399  51.776  1.00  0.00    -0.275 NA
HETATM    8  C7  UNL     1      23.446   4.640  52.796  1.00  0.00     0.116 C 
HETATM    9  C8  UNL     1      23.569   3.194  53.042  1.00  0.00     0.145 C 
HETATM   10  C9  UNL     1      22.591   2.342  52.294  1.00  0.00     0.198 C 
HETATM   11  O1  UNL     1      22.685   2.337  50.948  1.00  0.00    -0.381 OA
HETATM   12  N2  UNL     1      24.879   2.815  52.540  1.00  0.00    -0.379 N 
ENDROOT
BRANCH  12  13
HETATM   13  C10 UNL     1      25.975   2.473  53.414  1.00  0.00     0.248 C 
BRANCH  13  14
HETATM   14  N3  UNL     1      26.432   1.111  53.237  1.00  0.00    -0.332 N 
HETATM   15  C11 UNL     1      25.550  -0.055  53.079  1.00  0.00     0.153 C 
HETATM   16  C12 UNL     1      26.407  -1.203  52.583  1.00  0.00     0.188 C 
HETATM   17  O2  UNL     1      27.350  -1.464  53.575  1.00  0.00    -0.380 OA
HETATM   18  C13 UNL     1      28.324  -0.490  53.651  1.00  0.00     0.270 C 
HETATM   19  C14 UNL     1      27.832   0.840  53.208  1.00  0.00     0.244 C 
HETATM   20  O3  UNL     1      28.640   1.719  52.811  1.00  0.00    -0.271 OA
ENDBRANCH  13  14
ENDBRANCH  12  13
TORSDOF 2
ENDMDL
MODEL 5
REMARK VINA RESULT:      -6.4      7.677     10.105
REMARK  2 active torsions:
REMARK  status: ('A' for Active; 'I' for Inactive)
REMARK    1  A    between atoms: N2_12  and  C10_13 
REMARK    2  A    between atoms: C10_13  and  N3_14 
ROOT
HETATM    1  C1  UNL     1      31.668   3.767  47.081  1.00  0.00     0.099 C 
HETATM    2  C2  UNL     1      32.291   4.913  46.875  1.00  0.00     0.040 C 
HETATM    3  C3  UNL     1      32.972   5.455  45.717  1.00  0.00     0.147 C 
HETATM    4  C4  UNL     1      33.667   4.357  44.931  1.00  0.00     0.062 C 
HETATM    5  C5  UNL     1      34.666   3.659  45.781  1.00  0.00    -0.005 C 
HETATM    6  C6  UNL     1      34.900   4.012  47.030  1.00  0.00     0.112 C 
HETATM    7  N1  UNL     1      35.043   4.496  48.333  1.00  0.00    -0.275 NA
HETATM    8  C7  UNL     1      34.444   5.508  48.820  1.00  0.00     0.116 C 
HETATM    9  C8  UNL     1      33.471   6.502  48.340  1.00  0.00     0.145 C 
HETATM   10  C9  UNL     1      33.843   7.178  47.057  1.00  0.00     0.198 C 
HETATM   11  O1  UNL     1      33.918   6.404  45.954  1.00  0.00    -0.381 OA
HETATM   12  N2  UNL     1      32.255   5.762  48.051  1.00  0.00    -0.379 N 
ENDROOT
BRANCH  12  13
HETATM   13  C10 UNL     1      31.075   5.858  48.877  1.00  0.00     0.248 C 
BRANCH  13  14
HETATM   14  N3  UNL     1      29.978   6.532  48.216  1.00  0.00    -0.332 N 
HETATM   15  C11 UNL     1      30.102   7.783  47.453  1.00  0.00     0.153 C 
HETATM   16  C12 UNL     1      28.823   7.952  46.656  1.00  0.00     0.188 C 
HETATM   17  O2  UNL     1      27.784   8.070  47.577  1.00  0.00    -0.380 OA
HETATM   18  C13 UNL     1      27.489   6.874  48.201  1.00  0.00     0.270 C 
HETATM   19  C14 UNL     1      28.667   5.974  48.288  1.00  0.00     0.244 C 
HETATM   20  O3  UNL     1      28.514   4.733  48.422  1.00  0.00    -0.271 OA
ENDBRANCH  13  14
ENDBRANCH  12  13
TORSDOF 2
ENDMDL
MODEL 6
REMARK VINA RESULT:      -6.3      1.634      5.809
REMARK  2 active torsions:
REMARK  status: ('A' for Active; 'I' for Inactive)
REMARK    1  A    between atoms: N2_12  and  C10_13 
REMARK    2  A    between atoms: C10_13  and  N3_14 
ROOT
HETATM    1  C1  UNL     1      26.867   1.864  51.295  1.00  0.00     0.099 C 
HETATM    2  C2  UNL     1      26.527   1.664  52.555  1.00  0.00     0.040 C 
HETATM    3  C3  UNL     1      27.153   2.048  53.804  1.00  0.00     0.147 C 
HETATM    4  C4  UNL     1      28.667   2.029  53.683  1.00  0.00     0.062 C 
HETATM    5  C5  UNL     1      29.143   0.670  53.316  1.00  0.00    -0.005 C 
HETATM    6  C6  UNL     1      28.321  -0.350  53.164  1.00  0.00     0.112 C 
HETATM    7  N1  UNL     1      27.336  -1.334  53.040  1.00  0.00    -0.275 NA
HETATM    8  C7  UNL     1      26.096  -1.176  53.274  1.00  0.00     0.116 C 
HETATM    9  C8  UNL     1      25.226  -0.075  53.717  1.00  0.00     0.145 C 
HETATM   10  C9  UNL     1      25.681   0.625  54.959  1.00  0.00     0.198 C 
HETATM   11  O1  UNL     1      26.853   1.292  54.895  1.00  0.00    -0.381 OA
HETATM   12  N2  UNL     1      25.283   0.924  52.664  1.00  0.00    -0.379 N 
ENDROOT
BRANCH  12  13
HETATM   13  C10 UNL     1      24.175   1.176  51.774  1.00  0.00     0.248 C 
BRANCH  13  14
HETATM   14  N3  UNL     1      23.704   2.544  51.835  1.00  0.00    -0.332 N 
HETATM   15  C11 UNL     1      23.607   3.341  53.066  1.00  0.00     0.153 C 
HETATM   16  C12 UNL     1      23.407   4.786  52.650  1.00  0.00     0.188 C 
HETATM   17  O2  UNL     1      22.198   4.846  51.959  1.00  0.00    -0.380 OA
HETATM   18  C13 UNL     1      22.273   4.274  50.706  1.00  0.00     0.270 C 
HETATM   19  C14 UNL     1      23.295   3.197  50.635  1.00  0.00     0.244 C 
HETATM   20  O3  UNL     1      23.796   2.865  49.529  1.00  0.00    -0.271 OA
ENDBRANCH  13  14
ENDBRANCH  12  13
TORSDOF 2
ENDMDL
MODEL 7
REMARK VINA RESULT:      -6.2      2.873      4.925
REMARK  2 active torsions:
REMARK  status: ('A' for Active; 'I' for Inactive)
REMARK    1  A    between atoms: N2_12  and  C10_13 
REMARK    2  A    between atoms: C10_13  and  N3_14 
ROOT
HETATM    1  C1  UNL     1      21.930   1.230  49.803  1.00  0.00     0.099 C 
HETATM    2  C2  UNL     1      22.690   1.648  50.799  1.00  0.00     0.040 C 
HETATM    3  C3  UNL     1      23.048   1.046  52.067  1.00  0.00     0.147 C 
HETATM    4  C4  UNL     1      21.899   0.224  52.624  1.00  0.00     0.062 C 
HETATM    5  C5  UNL     1      20.698   1.076  52.827  1.00  0.00    -0.005 C 
HETATM    6  C6  UNL     1      20.701   2.371  52.577  1.00  0.00     0.112 C 
HETATM    7  N1  UNL     1      20.850   3.726  52.271  1.00  0.00    -0.275 NA
HETATM    8  C7  UNL     1      21.929   4.289  51.900  1.00  0.00     0.116 C 
HETATM    9  C8  UNL     1      23.318   3.871  51.651  1.00  0.00     0.145 C 
HETATM   10  C9  UNL     1      23.952   3.100  52.766  1.00  0.00     0.198 C 
HETATM   11  O1  UNL     1      23.418   1.897  53.063  1.00  0.00    -0.381 OA
HETATM   12  N2  UNL     1      23.261   2.953  50.526  1.00  0.00    -0.379 N 
ENDROOT
BRANCH  12  13
HETATM   13  C10 UNL     1      23.742   3.308  49.212  1.00  0.00     0.248 C 
BRANCH  13  14
HETATM   14  N3  UNL     1      24.816   4.278  49.248  1.00  0.00    -0.332 N 
HETATM   15  C11 UNL     1      24.641   5.727  49.075  1.00  0.00     0.153 C 
HETATM   16  C12 UNL     1      25.930   6.391  49.520  1.00  0.00     0.188 C 
HETATM   17  O2  UNL     1      26.936   5.938  48.668  1.00  0.00    -0.380 OA
HETATM   18  C13 UNL     1      27.281   4.624  48.906  1.00  0.00     0.270 C 
HETATM   19  C14 UNL     1      26.154   3.833  49.464  1.00  0.00     0.244 C 
HETATM   20  O3  UNL     1      26.374   2.783  50.121  1.00  0.00    -0.271 OA
ENDBRANCH  13  14
ENDBRANCH  12  13
TORSDOF 2
ENDMDL
MODEL 8
REMARK VINA RESULT:      -6.1      1.983      2.445
REMARK  2 active torsions:
REMARK  status: ('A' for Active; 'I' for Inactive)
REMARK    1  A    between atoms: N2_12  and  C10_13 
REMARK    2  A    between atoms: C10_13  and  N3_14 
ROOT
HETATM    1  C1  UNL     1      23.904   3.138  49.382  1.00  0.00     0.099 C 
HETATM    2  C2  UNL     1      23.091   2.438  50.153  1.00  0.00     0.040 C 
HETATM    3  C3  UNL     1      22.170   1.357  49.866  1.00  0.00     0.147 C 
HETATM    4  C4  UNL     1      21.539   1.528  48.495  1.00  0.00     0.062 C 
HETATM    5  C5  UNL     1      20.796   2.813  48.419  1.00  0.00    -0.005 C 
HETATM    6  C6  UNL     1      20.701   3.635  49.445  1.00  0.00     0.112 C 
HETATM    7  N1  UNL     1      20.683   4.404  50.612  1.00  0.00    -0.275 NA
HETATM    8  C7  UNL     1      21.188   4.069  51.731  1.00  0.00     0.116 C 
HETATM    9  C8  UNL     1      21.916   2.907  52.266  1.00  0.00     0.145 C 
HETATM   10  C9  UNL     1      21.258   1.585  52.020  1.00  0.00     0.198 C 
HETATM   11  O1  UNL     1      21.137   1.187  50.736  1.00  0.00    -0.381 OA
HETATM   12  N2  UNL     1      23.173   2.857  51.539  1.00  0.00    -0.379 N 
ENDROOT
BRANCH  12  13
HETATM   13  C10 UNL     1      24.435   3.200  52.150  1.00  0.00     0.248 C 
BRANCH  13  14
HETATM   14  N3  UNL     1      25.260   2.043  52.427  1.00  0.00    -0.332 N 
HETATM   15  C11 UNL     1      24.769   0.785  53.007  1.00  0.00     0.153 C 
HETATM   16  C12 UNL     1      25.856  -0.255  52.809  1.00  0.00     0.188 C 
HETATM   17  O2  UNL     1      26.971   0.183  53.522  1.00  0.00    -0.380 OA
HETATM   18  C13 UNL     1      27.595   1.258  52.924  1.00  0.00     0.270 C 
HETATM   19  C14 UNL     1      26.654   2.090  52.129  1.00  0.00     0.244 C 
HETATM   20  O3  UNL     1      27.080   2.827  51.203  1.00  0.00    -0.271 OA
ENDBRANCH  13  14
ENDBRANCH  12  13
TORSDOF 2
ENDMDL
MODEL 9
REMARK VINA RESULT:      -6.0      1.604      2.895
REMARK  2 active torsions:
REMARK  status: ('A' for Active; 'I' for Inactive)
REMARK    1  A    between atoms: N2_12  and  C10_13 
REMARK    2  A    between atoms: C10_13  and  N3_14 
ROOT
HETATM    1  C1  UNL     1      22.860   1.891  52.768  1.00  0.00     0.099 C 
HETATM    2  C2  UNL     1      23.619   2.836  52.242  1.00  0.00     0.040 C 
HETATM    3  C3  UNL     1      23.621   4.277  52.392  1.00  0.00     0.147 C 
HETATM    4  C4  UNL     1      22.209   4.808  52.572  1.00  0.00     0.062 C 
HETATM    5  C5  UNL     1      21.366   4.457  51.399  1.00  0.00    -0.005 C 
HETATM    6  C6  UNL     1      21.843   3.805  50.357  1.00  0.00     0.112 C 
HETATM    7  N1  UNL     1      22.483   3.113  49.325  1.00  0.00    -0.275 NA
HETATM    8  C7  UNL     1      23.721   2.822  49.282  1.00  0.00     0.116 C 
HETATM    9  C8  UNL     1      24.895   3.030  50.145  1.00  0.00     0.145 C 
HETATM   10  C9  UNL     1      25.111   4.446  50.582  1.00  0.00     0.198 C 
HETATM   11  O1  UNL     1      24.166   4.996  51.373  1.00  0.00    -0.381 OA
HETATM   12  N2  UNL     1      24.631   2.283  51.362  1.00  0.00    -0.379 N 
ENDROOT
BRANCH  12  13
HETATM   13  C10 UNL     1      25.329   1.062  51.689  1.00  0.00     0.248 C 
BRANCH  13  14
HETATM   14  N3  UNL     1      26.440   1.273  52.593  1.00  0.00    -0.332 N 
HETATM   15  C11 UNL     1      27.527   2.239  52.372  1.00  0.00     0.153 C 
HETATM   16  C12 UNL     1      28.270   2.385  53.686  1.00  0.00     0.188 C 
HETATM   17  O2  UNL     1      28.811   1.137  53.989  1.00  0.00    -0.380 OA
HETATM   18  C13 UNL     1      27.854   0.227  54.387  1.00  0.00     0.270 C 
HETATM   19  C14 UNL     1      26.521   0.508  53.794  1.00  0.00     0.244 C 
HETATM   20  O3  UNL     1      25.474   0.077  54.342  1.00  0.00    -0.271 OA
ENDBRANCH  13  14
ENDBRANCH  12  13
TORSDOF 2
ENDMDL
