MODEL 1
REMARK VINA RESULT:      -9.5      0.000      0.000
REMARK  3 active torsions:
REMARK  status: ('A' for Active; 'I' for Inactive)
REMARK    1  A    between atoms: O1_2  and  C2_3 
REMARK    2  A    between atoms: C6_9  and  N3_10 
REMARK    3  A    between atoms: C22_29  and  O3_30 
ROOT
HETATM    1  C2  UNL     1      26.249  -0.096  54.258  1.00  0.00     0.076 C 
HETATM    2  C3  UNL     1      24.999  -0.258  54.206  1.00  0.00     0.067 C 
HETATM    3  C4  UNL     1      23.634  -0.493  54.113  1.00  0.00     0.074 A 
HETATM    4  N1  UNL     1      22.977  -1.507  54.683  1.00  0.00    -0.241 NA
HETATM    5  C5  UNL     1      21.639  -1.632  54.373  1.00  0.00     0.236 A 
HETATM    6  N2  UNL     1      20.968  -0.829  53.561  1.00  0.00    -0.224 NA
HETATM    7  C6  UNL     1      21.571   0.196  52.969  1.00  0.00     0.140 A 
HETATM    8  C13 UNL     1      22.902   0.371  53.245  1.00  0.00     0.041 A 
HETATM    9  C14 UNL     1      23.573   1.552  52.743  1.00  0.00     0.045 C 
HETATM   10  C15 UNL     1      24.277   2.505  52.225  1.00  0.00     0.032 C 
HETATM   11  C16 UNL     1      23.743   3.810  52.536  1.00  0.00     0.224 C 
HETATM   12  O2  UNL     1      23.455   4.530  51.347  1.00  0.00    -0.384 OA
HETATM   13  C17 UNL     1      24.601   4.763  50.614  1.00  0.00     0.187 C 
HETATM   14  C18 UNL     1      25.400   3.511  50.351  1.00  0.00     0.149 C 
HETATM   15  N4  UNL     1      25.544   2.677  51.492  1.00  0.00    -0.380 N 
HETATM   16  C19 UNL     1      26.369   1.870  52.332  1.00  0.00     0.123 C 
HETATM   17  C20 UNL     1      27.799   2.120  52.559  1.00  0.00     0.023 C 
HETATM   18  C21 UNL     1      28.314   0.984  53.414  1.00  0.00     0.040 C 
HETATM   19  C22 UNL     1      27.484   0.594  54.613  1.00  0.00     0.174 C 
ENDROOT
BRANCH   7  20
HETATM   20  N3  UNL     1      21.242   1.203  52.020  1.00  0.00    -0.361 N 
HETATM   21  C7  UNL     1      21.594   1.204  50.613  1.00  0.00     0.153 C 
HETATM   22  C8  UNL     1      20.352   1.040  49.763  1.00  0.00     0.013 C 
HETATM   23  C9  UNL     1      19.364   1.569  50.424  1.00  0.00     0.015 C 
HETATM   24 CL1  UNL     1      17.791   1.499  49.628  1.00  0.00    -0.089 Cl
HETATM   25  C10 UNL     1      19.152   2.254  51.718  1.00  0.00     0.044 C 
HETATM   26  C11 UNL     1      18.492   3.605  51.528  1.00  0.00     0.017 C 
HETATM   27  C12 UNL     1      20.482   2.373  52.418  1.00  0.00     0.134 C 
ENDBRANCH   7  20
BRANCH   1  28
HETATM   28  O1  UNL     1      26.736  -1.194  53.607  1.00  0.00    -0.357 OA
HETATM   29  C1  UNL     1      26.457  -1.708  52.346  1.00  0.00     0.209 C 
ENDBRANCH   1  28
BRANCH  19  30
HETATM   30  O3  UNL     1      28.278  -0.222  55.413  1.00  0.00    -0.389 OA
HETATM   31  H29 UNL     1      27.802  -0.653  56.153  1.00  0.00     0.210 HD
ENDBRANCH  19  30
TORSDOF 3
ENDMDL
MODEL 2
REMARK VINA RESULT:      -8.8      2.642      4.979
REMARK  3 active torsions:
REMARK  status: ('A' for Active; 'I' for Inactive)
REMARK    1  A    between atoms: O1_2  and  C2_3 
REMARK    2  A    between atoms: C6_9  and  N3_10 
REMARK    3  A    between atoms: C22_29  and  O3_30 
ROOT
HETATM    1  C2  UNL     1      26.569   0.909  52.231  1.00  0.00     0.076 C 
HETATM    2  C3  UNL     1      26.349   1.829  51.396  1.00  0.00     0.067 C 
HETATM    3  C4  UNL     1      26.131   2.885  50.522  1.00  0.00     0.074 A 
HETATM    4  N1  UNL     1      27.080   3.636  49.954  1.00  0.00    -0.241 NA
HETATM    5  C5  UNL     1      26.653   4.715  49.207  1.00  0.00     0.236 A 
HETATM    6  N2  UNL     1      25.387   5.054  49.016  1.00  0.00    -0.224 NA
HETATM    7  C6  UNL     1      24.404   4.342  49.555  1.00  0.00     0.140 A 
HETATM    8  C13 UNL     1      24.771   3.254  50.305  1.00  0.00     0.041 A 
HETATM    9  C14 UNL     1      23.741   2.362  50.795  1.00  0.00     0.045 C 
HETATM   10  C15 UNL     1      22.882   1.593  51.381  1.00  0.00     0.032 C 
HETATM   11  C16 UNL     1      21.953   1.001  50.448  1.00  0.00     0.224 C 
HETATM   12  O2  UNL     1      20.616   1.329  50.795  1.00  0.00    -0.384 OA
HETATM   13  C17 UNL     1      20.280   0.813  52.030  1.00  0.00     0.187 C 
HETATM   14  C18 UNL     1      21.264   1.181  53.112  1.00  0.00     0.149 C 
HETATM   15  N4  UNL     1      22.622   1.036  52.721  1.00  0.00    -0.380 N 
HETATM   16  C19 UNL     1      23.946   0.587  53.008  1.00  0.00     0.123 C 
HETATM   17  C20 UNL     1      24.251  -0.585  53.840  1.00  0.00     0.023 C 
HETATM   18  C21 UNL     1      25.755  -0.646  53.980  1.00  0.00     0.040 C 
HETATM   19  C22 UNL     1      26.571  -0.463  52.723  1.00  0.00     0.174 C 
ENDROOT
BRANCH   7  20
HETATM   20  N3  UNL     1      22.986   4.407  49.645  1.00  0.00    -0.361 N 
HETATM   21  C7  UNL     1      22.220   4.903  50.772  1.00  0.00     0.153 C 
HETATM   22  C8  UNL     1      21.515   6.191  50.399  1.00  0.00     0.013 C 
HETATM   23  C9  UNL     1      21.269   6.136  49.123  1.00  0.00     0.015 C 
HETATM   24 CL1  UNL     1      20.444   7.541  48.446  1.00  0.00    -0.089 Cl
HETATM   25  C10 UNL     1      21.486   5.194  48.003  1.00  0.00     0.044 C 
HETATM   26  C11 UNL     1      20.185   4.868  47.296  1.00  0.00     0.017 C 
HETATM   27  C12 UNL     1      22.155   3.956  48.545  1.00  0.00     0.134 C 
ENDBRANCH   7  20
BRANCH   1  28
HETATM   28  O1  UNL     1      27.124   1.572  53.289  1.00  0.00    -0.357 OA
HETATM   29  C1  UNL     1      28.275   2.346  53.381  1.00  0.00     0.209 C 
ENDBRANCH   1  28
BRANCH  19  30
HETATM   30  O3  UNL     1      27.870  -0.869  53.015  1.00  0.00    -0.389 OA
HETATM   31  H29 UNL     1      27.984  -1.255  53.908  1.00  0.00     0.210 HD
ENDBRANCH  19  30
TORSDOF 3
ENDMDL
MODEL 3
REMARK VINA RESULT:      -8.2      3.080      7.399
REMARK  3 active torsions:
REMARK  status: ('A' for Active; 'I' for Inactive)
REMARK    1  A    between atoms: O1_2  and  C2_3 
REMARK    2  A    between atoms: C6_9  and  N3_10 
REMARK    3  A    between atoms: C22_29  and  O3_30 
ROOT
HETATM    1  C2  UNL     1      21.521   2.535  49.813  1.00  0.00     0.076 C 
HETATM    2  C3  UNL     1      22.749   2.674  50.063  1.00  0.00     0.067 C 
HETATM    3  C4  UNL     1      24.115   2.799  50.279  1.00  0.00     0.074 A 
HETATM    4  N1  UNL     1      24.944   3.589  49.589  1.00  0.00    -0.241 NA
HETATM    5  C5  UNL     1      26.289   3.481  49.880  1.00  0.00     0.236 A 
HETATM    6  N2  UNL     1      26.808   2.662  50.782  1.00  0.00    -0.224 NA
HETATM    7  C6  UNL     1      26.031   1.858  51.497  1.00  0.00     0.140 A 
HETATM    8  C13 UNL     1      24.683   1.926  51.253  1.00  0.00     0.041 A 
HETATM    9  C14 UNL     1      23.778   1.178  52.101  1.00  0.00     0.045 C 
HETATM   10  C15 UNL     1      22.915   0.442  52.722  1.00  0.00     0.032 C 
HETATM   11  C16 UNL     1      22.959   0.637  54.152  1.00  0.00     0.224 C 
HETATM   12  O2  UNL     1      23.211  -0.592  54.818  1.00  0.00    -0.384 OA
HETATM   13  C17 UNL     1      22.193  -1.496  54.598  1.00  0.00     0.187 C 
HETATM   14  C18 UNL     1      21.876  -1.687  53.135  1.00  0.00     0.149 C 
HETATM   15  N4  UNL     1      21.802  -0.471  52.405  1.00  0.00    -0.380 N 
HETATM   16  C19 UNL     1      21.135   0.356  51.452  1.00  0.00     0.123 C 
HETATM   17  C20 UNL     1      19.680   0.352  51.241  1.00  0.00     0.023 C 
HETATM   18  C21 UNL     1      19.401   1.280  50.081  1.00  0.00     0.040 C 
HETATM   19  C22 UNL     1      20.092   2.622  50.092  1.00  0.00     0.174 C 
ENDROOT
BRANCH   7  20
HETATM   20  N3  UNL     1      26.191   0.830  52.468  1.00  0.00    -0.361 N 
HETATM   21  C7  UNL     1      25.931  -0.583  52.272  1.00  0.00     0.153 C 
HETATM   22  C8  UNL     1      27.227  -1.364  52.313  1.00  0.00     0.013 C 
HETATM   23  C9  UNL     1      28.037  -0.719  53.100  1.00  0.00     0.015 C 
HETATM   24 CL1  UNL     1      29.633  -1.442  53.308  1.00  0.00    -0.089 Cl
HETATM   25  C10 UNL     1      28.021   0.511  53.921  1.00  0.00     0.044 C 
HETATM   26  C11 UNL     1      28.385   0.218  55.364  1.00  0.00     0.017 C 
HETATM   27  C12 UNL     1      26.657   1.144  53.806  1.00  0.00     0.134 C 
ENDBRANCH   7  20
BRANCH   1  28
HETATM   28  O1  UNL     1      21.515   1.985  48.563  1.00  0.00    -0.357 OA
HETATM   29  C1  UNL     1      22.268   2.277  47.432  1.00  0.00     0.209 C 
ENDBRANCH   1  28
BRANCH  19  30
HETATM   30  O3  UNL     1      19.463   3.414  49.136  1.00  0.00    -0.389 OA
HETATM   31  H29 UNL     1      20.062   4.016  48.648  1.00  0.00     0.210 HD
ENDBRANCH  19  30
TORSDOF 3
ENDMDL
MODEL 4
REMARK VINA RESULT:      -7.6      3.202      6.004
REMARK  3 active torsions:
REMARK  status: ('A' for Active; 'I' for Inactive)
REMARK    1  A    between atoms: O1_2  and  C2_3 
REMARK    2  A    between atoms: C6_9  and  N3_10 
REMARK    3  A    between atoms: C22_29  and  O3_30 
ROOT
HETATM    1  C2  UNL     1      20.147   0.693  52.831  1.00  0.00     0.076 C 
HETATM    2  C3  UNL     1      20.192   1.845  52.321  1.00  0.00     0.067 C 
HETATM    3  C4  UNL     1      20.220   3.087  51.702  1.00  0.00     0.074 A 
HETATM    4  N1  UNL     1      19.154   3.766  51.267  1.00  0.00    -0.241 NA
HETATM    5  C5  UNL     1      19.401   4.931  50.571  1.00  0.00     0.236 A 
HETATM    6  N2  UNL     1      20.604   5.418  50.305  1.00  0.00    -0.224 NA
HETATM    7  C6  UNL     1      21.698   4.785  50.715  1.00  0.00     0.140 A 
HETATM    8  C13 UNL     1      21.511   3.622  51.417  1.00  0.00     0.041 A 
HETATM    9  C14 UNL     1      22.660   2.969  52.010  1.00  0.00     0.045 C 
HETATM   10  C15 UNL     1      23.641   2.255  52.456  1.00  0.00     0.032 C 
HETATM   11  C16 UNL     1      24.496   2.998  53.351  1.00  0.00     0.224 C 
HETATM   12  O2  UNL     1      25.835   3.001  52.877  1.00  0.00    -0.384 OA
HETATM   13  C17 UNL     1      26.355   1.723  52.843  1.00  0.00     0.187 C 
HETATM   14  C18 UNL     1      25.481   0.749  52.094  1.00  0.00     0.149 C 
HETATM   15  N4  UNL     1      24.101   0.855  52.419  1.00  0.00    -0.380 N 
HETATM   16  C19 UNL     1      22.861   0.230  52.747  1.00  0.00     0.123 C 
HETATM   17  C20 UNL     1      22.752  -1.033  53.491  1.00  0.00     0.023 C 
HETATM   18  C21 UNL     1      21.285  -1.396  53.529  1.00  0.00     0.040 C 
HETATM   19  C22 UNL     1      20.313  -0.297  53.889  1.00  0.00     0.174 C 
ENDROOT
BRANCH   7  20
HETATM   20  N3  UNL     1      23.107   4.930  50.583  1.00  0.00    -0.361 N 
HETATM   21  C7  UNL     1      23.981   4.108  49.768  1.00  0.00     0.153 C 
HETATM   22  C8  UNL     1      24.536   4.919  48.616  1.00  0.00     0.013 C 
HETATM   23  C9  UNL     1      24.610   6.153  49.018  1.00  0.00     0.015 C 
HETATM   24 CL1  UNL     1      25.234   7.304  47.835  1.00  0.00    -0.089 Cl
HETATM   25  C10 UNL     1      24.312   6.928  50.243  1.00  0.00     0.044 C 
HETATM   26  C11 UNL     1      25.525   7.706  50.715  1.00  0.00     0.017 C 
HETATM   27  C12 UNL     1      23.812   5.976  51.300  1.00  0.00     0.134 C 
ENDBRANCH   7  20
BRANCH   1  28
HETATM   28  O1  UNL     1      19.671  -0.083  51.813  1.00  0.00    -0.357 OA
HETATM   29  C1  UNL     1      18.518   0.023  51.044  1.00  0.00     0.209 C 
ENDBRANCH   1  28
BRANCH  19  30
HETATM   30  O3  UNL     1      19.094  -0.906  54.174  1.00  0.00    -0.389 OA
HETATM   31  H29 UNL     1      19.144  -1.623  54.840  1.00  0.00     0.210 HD
ENDBRANCH  19  30
TORSDOF 3
ENDMDL
MODEL 5
REMARK VINA RESULT:      -7.5      3.210      5.969
REMARK  3 active torsions:
REMARK  status: ('A' for Active; 'I' for Inactive)
REMARK    1  A    between atoms: O1_2  and  C2_3 
REMARK    2  A    between atoms: C6_9  and  N3_10 
REMARK    3  A    between atoms: C22_29  and  O3_30 
ROOT
HETATM    1  C2  UNL     1      24.543   1.214  52.258  1.00  0.00     0.076 C 
HETATM    2  C3  UNL     1      24.946   2.056  51.409  1.00  0.00     0.067 C 
HETATM    3  C4  UNL     1      25.418   3.016  50.526  1.00  0.00     0.074 A 
HETATM    4  N1  UNL     1      26.703   3.251  50.243  1.00  0.00    -0.241 NA
HETATM    5  C5  UNL     1      26.971   4.331  49.427  1.00  0.00     0.236 A 
HETATM    6  N2  UNL     1      26.058   5.140  48.911  1.00  0.00    -0.224 NA
HETATM    7  C6  UNL     1      24.767   4.951  49.157  1.00  0.00     0.140 A 
HETATM    8  C13 UNL     1      24.441   3.889  49.960  1.00  0.00     0.041 A 
HETATM    9  C14 UNL     1      23.045   3.551  50.145  1.00  0.00     0.045 C 
HETATM   10  C15 UNL     1      21.826   3.264  50.468  1.00  0.00     0.032 C 
HETATM   11  C16 UNL     1      20.997   3.018  49.312  1.00  0.00     0.224 C 
HETATM   12  O2  UNL     1      19.884   3.898  49.296  1.00  0.00    -0.384 OA
HETATM   13  C17 UNL     1      19.068   3.690  50.389  1.00  0.00     0.187 C 
HETATM   14  C18 UNL     1      19.813   3.726  51.700  1.00  0.00     0.149 C 
HETATM   15  N4  UNL     1      21.033   2.999  51.682  1.00  0.00    -0.380 N 
HETATM   16  C19 UNL     1      21.927   2.076  52.303  1.00  0.00     0.123 C 
HETATM   17  C20 UNL     1      21.492   0.970  53.169  1.00  0.00     0.023 C 
HETATM   18  C21 UNL     1      22.742   0.311  53.702  1.00  0.00     0.040 C 
HETATM   19  C22 UNL     1      23.842   0.018  52.711  1.00  0.00     0.174 C 
ENDROOT
BRANCH   7  20
HETATM   20  N3  UNL     1      23.535   5.602  48.867  1.00  0.00    -0.361 N 
HETATM   21  C7  UNL     1      22.815   6.506  49.744  1.00  0.00     0.153 C 
HETATM   22  C8  UNL     1      22.838   7.910  49.180  1.00  0.00     0.013 C 
HETATM   23  C9  UNL     1      22.898   7.801  47.885  1.00  0.00     0.015 C 
HETATM   24 CL1  UNL     1      22.937   9.323  46.993  1.00  0.00    -0.089 Cl
HETATM   25  C10 UNL     1      22.945   6.720  46.876  1.00  0.00     0.044 C 
HETATM   26  C11 UNL     1      21.835   6.868  45.854  1.00  0.00     0.017 C 
HETATM   27  C12 UNL     1      22.873   5.396  47.593  1.00  0.00     0.134 C 
ENDBRANCH   7  20
BRANCH   1  28
HETATM   28  O1  UNL     1      25.044   1.691  53.436  1.00  0.00    -0.357 OA
HETATM   29  C1  UNL     1      26.333   2.066  53.796  1.00  0.00     0.209 C 
ENDBRANCH   1  28
BRANCH  19  30
HETATM   30  O3  UNL     1      24.732  -0.855  53.332  1.00  0.00    -0.389 OA
HETATM   31  H29 UNL     1      24.464  -1.796  53.305  1.00  0.00     0.210 HD
ENDBRANCH  19  30
TORSDOF 3
ENDMDL
MODEL 6
REMARK VINA RESULT:      -7.5      3.516      5.550
REMARK  3 active torsions:
REMARK  status: ('A' for Active; 'I' for Inactive)
REMARK    1  A    between atoms: O1_2  and  C2_3 
REMARK    2  A    between atoms: C6_9  and  N3_10 
REMARK    3  A    between atoms: C22_29  and  O3_30 
ROOT
HETATM    1  C2  UNL     1      20.554   1.087  53.064  1.00  0.00     0.076 C 
HETATM    2  C3  UNL     1      19.993   2.059  52.489  1.00  0.00     0.067 C 
HETATM    3  C4  UNL     1      19.347   3.086  51.814  1.00  0.00     0.074 A 
HETATM    4  N1  UNL     1      18.025   3.279  51.768  1.00  0.00    -0.241 NA
HETATM    5  C5  UNL     1      17.573   4.288  50.944  1.00  0.00     0.236 A 
HETATM    6  N2  UNL     1      18.346   5.070  50.205  1.00  0.00    -0.224 NA
HETATM    7  C6  UNL     1      19.666   4.923  50.213  1.00  0.00     0.140 A 
HETATM    8  C13 UNL     1      20.172   3.936  51.020  1.00  0.00     0.041 A 
HETATM    9  C14 UNL     1      21.607   3.827  51.178  1.00  0.00     0.045 C 
HETATM   10  C15 UNL     1      22.872   3.576  51.270  1.00  0.00     0.032 C 
HETATM   11  C16 UNL     1      23.627   4.725  51.712  1.00  0.00     0.224 C 
HETATM   12  O2  UNL     1      24.631   5.060  50.766  1.00  0.00    -0.384 OA
HETATM   13  C17 UNL     1      25.551   4.040  50.633  1.00  0.00     0.187 C 
HETATM   14  C18 UNL     1      24.915   2.702  50.350  1.00  0.00     0.149 C 
HETATM   15  N4  UNL     1      23.786   2.424  51.166  1.00  0.00    -0.380 N 
HETATM   16  C19 UNL     1      23.053   1.516  51.988  1.00  0.00     0.123 C 
HETATM   17  C20 UNL     1      23.677   0.470  52.811  1.00  0.00     0.023 C 
HETATM   18  C21 UNL     1      22.555  -0.329  53.431  1.00  0.00     0.040 C 
HETATM   19  C22 UNL     1      21.417   0.447  54.050  1.00  0.00     0.174 C 
ENDROOT
BRANCH   7  20
HETATM   20  N3  UNL     1      20.790   5.483  49.545  1.00  0.00    -0.361 N 
HETATM   21  C7  UNL     1      21.455   4.935  48.378  1.00  0.00     0.153 C 
HETATM   22  C8  UNL     1      21.229   5.831  47.179  1.00  0.00     0.013 C 
HETATM   23  C9  UNL     1      21.097   7.044  47.627  1.00  0.00     0.015 C 
HETATM   24 CL1  UNL     1      20.820   8.283  46.402  1.00  0.00    -0.089 Cl
HETATM   25  C10 UNL     1      21.111   7.738  48.934  1.00  0.00     0.044 C 
HETATM   26  C11 UNL     1      22.126   8.865  48.951  1.00  0.00     0.017 C 
HETATM   27  C12 UNL     1      21.386   6.721  50.012  1.00  0.00     0.134 C 
ENDBRANCH   7  20
BRANCH   1  28
HETATM   28  O1  UNL     1      20.100   0.004  52.365  1.00  0.00    -0.357 OA
HETATM   29  C1  UNL     1      18.813  -0.379  52.007  1.00  0.00     0.209 C 
ENDBRANCH   1  28
BRANCH  19  30
HETATM   30  O3  UNL     1      20.683  -0.448  54.823  1.00  0.00    -0.389 OA
HETATM   31  H29 UNL     1      19.736  -0.218  54.922  1.00  0.00     0.210 HD
ENDBRANCH  19  30
TORSDOF 3
ENDMDL
MODEL 7
REMARK VINA RESULT:      -7.2     10.884     13.336
REMARK  3 active torsions:
REMARK  status: ('A' for Active; 'I' for Inactive)
REMARK    1  A    between atoms: O1_2  and  C2_3 
REMARK    2  A    between atoms: C6_9  and  N3_10 
REMARK    3  A    between atoms: C22_29  and  O3_30 
ROOT
HETATM    1  C2  UNL     1      33.659   4.898  47.837  1.00  0.00     0.076 C 
HETATM    2  C3  UNL     1      32.991   5.957  47.995  1.00  0.00     0.067 C 
HETATM    3  C4  UNL     1      32.201   7.084  48.169  1.00  0.00     0.074 A 
HETATM    4  N1  UNL     1      31.481   7.372  49.258  1.00  0.00    -0.241 NA
HETATM    5  C5  UNL     1      30.667   8.484  49.189  1.00  0.00     0.236 A 
HETATM    6  N2  UNL     1      30.550   9.276  48.134  1.00  0.00    -0.224 NA
HETATM    7  C6  UNL     1      31.243   9.038  47.026  1.00  0.00     0.140 A 
HETATM    8  C13 UNL     1      32.073   7.947  47.040  1.00  0.00     0.041 A 
HETATM    9  C14 UNL     1      32.957   7.724  45.915  1.00  0.00     0.045 C 
HETATM   10  C15 UNL     1      33.679   7.379  44.899  1.00  0.00     0.032 C 
HETATM   11  C16 UNL     1      34.586   8.426  44.491  1.00  0.00     0.224 C 
HETATM   12  O2  UNL     1      34.366   8.778  43.133  1.00  0.00    -0.384 OA
HETATM   13  C17 UNL     1      34.626   7.714  42.293  1.00  0.00     0.187 C 
HETATM   14  C18 UNL     1      33.894   6.456  42.688  1.00  0.00     0.149 C 
HETATM   15  N4  UNL     1      33.944   6.181  44.081  1.00  0.00    -0.380 N 
HETATM   16  C19 UNL     1      34.137   5.253  45.148  1.00  0.00     0.123 C 
HETATM   17  C20 UNL     1      35.038   4.093  45.071  1.00  0.00     0.023 C 
HETATM   18  C21 UNL     1      34.867   3.318  46.358  1.00  0.00     0.040 C 
HETATM   19  C22 UNL     1      34.870   4.110  47.644  1.00  0.00     0.174 C 
ENDROOT
BRANCH   7  20
HETATM   20  N3  UNL     1      31.347   9.579  45.714  1.00  0.00    -0.361 N 
HETATM   21  C7  UNL     1      30.692   9.072  44.523  1.00  0.00     0.153 C 
HETATM   22  C8  UNL     1      29.644  10.054  44.045  1.00  0.00     0.013 C 
HETATM   23  C9  UNL     1      30.045  11.241  44.390  1.00  0.00     0.015 C 
HETATM   24 CL1  UNL     1      28.975  12.569  43.938  1.00  0.00    -0.089 Cl
HETATM   25  C10 UNL     1      31.199  11.849  45.090  1.00  0.00     0.044 C 
HETATM   26  C11 UNL     1      31.860  12.917  44.241  1.00  0.00     0.017 C 
HETATM   27  C12 UNL     1      32.163  10.751  45.461  1.00  0.00     0.134 C 
ENDBRANCH   7  20
BRANCH   1  28
HETATM   28  O1  UNL     1      32.705   3.920  47.853  1.00  0.00    -0.357 OA
HETATM   29  C1  UNL     1      31.532   3.774  47.122  1.00  0.00     0.209 C 
ENDBRANCH   1  28
BRANCH  19  30
HETATM   30  O3  UNL     1      35.023   3.199  48.685  1.00  0.00    -0.389 OA
HETATM   31  H29 UNL     1      34.540   3.433  49.504  1.00  0.00     0.210 HD
ENDBRANCH  19  30
TORSDOF 3
ENDMDL
MODEL 8
REMARK VINA RESULT:      -7.2      8.276     10.674
REMARK  3 active torsions:
REMARK  status: ('A' for Active; 'I' for Inactive)
REMARK    1  A    between atoms: O1_2  and  C2_3 
REMARK    2  A    between atoms: C6_9  and  N3_10 
REMARK    3  A    between atoms: C22_29  and  O3_30 
ROOT
HETATM    1  C2  UNL     1      32.367   5.668  48.234  1.00  0.00     0.076 C 
HETATM    2  C3  UNL     1      31.116   5.798  48.333  1.00  0.00     0.067 C 
HETATM    3  C4  UNL     1      29.733   5.898  48.390  1.00  0.00     0.074 A 
HETATM    4  N1  UNL     1      28.891   4.907  48.698  1.00  0.00    -0.241 NA
HETATM    5  C5  UNL     1      27.543   5.179  48.583  1.00  0.00     0.236 A 
HETATM    6  N2  UNL     1      27.032   6.337  48.194  1.00  0.00    -0.224 NA
HETATM    7  C6  UNL     1      27.822   7.357  47.878  1.00  0.00     0.140 A 
HETATM    8  C13 UNL     1      29.173   7.144  47.978  1.00  0.00     0.041 A 
HETATM    9  C14 UNL     1      30.075   8.260  47.786  1.00  0.00     0.045 C 
HETATM   10  C15 UNL     1      30.951   9.168  47.499  1.00  0.00     0.032 C 
HETATM   11  C16 UNL     1      30.786  10.359  48.298  1.00  0.00     0.224 C 
HETATM   12  O2  UNL     1      30.593  11.495  47.470  1.00  0.00    -0.384 OA
HETATM   13  C17 UNL     1      31.699  11.729  46.678  1.00  0.00     0.187 C 
HETATM   14  C18 UNL     1      32.136  10.515  45.898  1.00  0.00     0.149 C 
HETATM   15  N4  UNL     1      32.159   9.321  46.668  1.00  0.00    -0.380 N 
HETATM   16  C19 UNL     1      32.820   8.118  47.057  1.00  0.00     0.123 C 
HETATM   17  C20 UNL     1      34.281   7.970  47.121  1.00  0.00     0.023 C 
HETATM   18  C21 UNL     1      34.562   6.525  47.466  1.00  0.00     0.040 C 
HETATM   19  C22 UNL     1      33.759   5.918  48.591  1.00  0.00     0.174 C 
ENDROOT
BRANCH   7  20
HETATM   20  N3  UNL     1      27.681   8.679  47.373  1.00  0.00    -0.361 N 
HETATM   21  C7  UNL     1      27.858   9.095  45.995  1.00  0.00     0.153 C 
HETATM   22  C8  UNL     1      26.532   9.521  45.402  1.00  0.00     0.013 C 
HETATM   23  C9  UNL     1      25.811   9.991  46.377  1.00  0.00     0.015 C 
HETATM   24 CL1  UNL     1      24.200  10.556  45.930  1.00  0.00    -0.089 Cl
HETATM   25  C10 UNL     1      25.944  10.207  47.835  1.00  0.00     0.044 C 
HETATM   26  C11 UNL     1      25.667  11.650  48.207  1.00  0.00     0.017 C 
HETATM   27  C12 UNL     1      27.325   9.773  48.257  1.00  0.00     0.134 C 
ENDBRANCH   7  20
BRANCH   1  28
HETATM   28  O1  UNL     1      32.511   4.796  47.193  1.00  0.00    -0.357 OA
HETATM   29  C1  UNL     1      31.922   3.561  46.947  1.00  0.00     0.209 C 
ENDBRANCH   1  28
BRANCH  19  30
HETATM   30  O3  UNL     1      34.385   4.726  48.945  1.00  0.00    -0.389 OA
HETATM   31  H29 UNL     1      34.745   4.216  48.190  1.00  0.00     0.210 HD
ENDBRANCH  19  30
TORSDOF 3
ENDMDL
MODEL 9
REMARK VINA RESULT:      -7.1      2.823      5.558
REMARK  3 active torsions:
REMARK  status: ('A' for Active; 'I' for Inactive)
REMARK    1  A    between atoms: O1_2  and  C2_3 
REMARK    2  A    between atoms: C6_9  and  N3_10 
REMARK    3  A    between atoms: C22_29  and  O3_30 
ROOT
HETATM    1  C2  UNL     1      25.230   4.068  49.584  1.00  0.00     0.076 C 
HETATM    2  C3  UNL     1      24.070   4.357  49.183  1.00  0.00     0.067 C 
HETATM    3  C4  UNL     1      22.797   4.732  48.775  1.00  0.00     0.074 A 
HETATM    4  N1  UNL     1      22.507   5.756  47.966  1.00  0.00    -0.241 NA
HETATM    5  C5  UNL     1      21.170   6.038  47.776  1.00  0.00     0.236 A 
HETATM    6  N2  UNL     1      20.167   5.374  48.330  1.00  0.00    -0.224 NA
HETATM    7  C6  UNL     1      20.397   4.347  49.140  1.00  0.00     0.140 A 
HETATM    8  C13 UNL     1      21.710   4.019  49.362  1.00  0.00     0.041 A 
HETATM    9  C14 UNL     1      22.015   2.823  50.118  1.00  0.00     0.045 C 
HETATM   10  C15 UNL     1      22.374   1.850  50.892  1.00  0.00     0.032 C 
HETATM   11  C16 UNL     1      21.828   0.583  50.467  1.00  0.00     0.224 C 
HETATM   12  O2  UNL     1      21.059  -0.005  51.505  1.00  0.00    -0.384 OA
HETATM   13  C17 UNL     1      21.842  -0.289  52.606  1.00  0.00     0.187 C 
HETATM   14  C18 UNL     1      22.644   0.895  53.083  1.00  0.00     0.149 C 
HETATM   15  N4  UNL     1      23.277   1.615  52.033  1.00  0.00    -0.380 N 
HETATM   16  C19 UNL     1      24.433   2.265  51.507  1.00  0.00     0.123 C 
HETATM   17  C20 UNL     1      25.812   1.857  51.813  1.00  0.00     0.023 C 
HETATM   18  C21 UNL     1      26.725   2.862  51.151  1.00  0.00     0.040 C 
HETATM   19  C22 UNL     1      26.418   3.233  49.720  1.00  0.00     0.174 C 
ENDROOT
BRANCH   7  20
HETATM   20  N3  UNL     1      19.639   3.457  49.951  1.00  0.00    -0.361 N 
HETATM   21  C7  UNL     1      19.361   3.614  51.366  1.00  0.00     0.153 C 
HETATM   22  C8  UNL     1      17.888   3.886  51.583  1.00  0.00     0.013 C 
HETATM   23  C9  UNL     1      17.244   3.296  50.619  1.00  0.00     0.015 C 
HETATM   24 CL1  UNL     1      15.489   3.473  50.654  1.00  0.00    -0.089 Cl
HETATM   25  C10 UNL     1      17.561   2.470  49.433  1.00  0.00     0.044 C 
HETATM   26  C11 UNL     1      16.805   1.156  49.456  1.00  0.00     0.017 C 
HETATM   27  C12 UNL     1      19.053   2.258  49.384  1.00  0.00     0.134 C 
ENDBRANCH   7  20
BRANCH   1  28
HETATM   28  O1  UNL     1      25.590   5.163  50.319  1.00  0.00    -0.357 OA
HETATM   29  C1  UNL     1      25.530   6.520  50.026  1.00  0.00     0.209 C 
ENDBRANCH   1  28
BRANCH  19  30
HETATM   30  O3  UNL     1      27.534   3.898  49.220  1.00  0.00    -0.389 OA
HETATM   31  H29 UNL     1      27.327   4.685  48.674  1.00  0.00     0.210 HD
ENDBRANCH  19  30
TORSDOF 3
ENDMDL
