MODEL 1
REMARK VINA RESULT:      -8.7      0.000      0.000
REMARK  6 active torsions:
REMARK  status: ('A' for Active; 'I' for Inactive)
REMARK    1  A    between atoms: O1_2  and  C2_3 
REMARK    2  A    between atoms: C8_11  and  N3_12 
REMARK    3  A    between atoms: N3_12  and  C9_13 
REMARK       I    between atoms: N4_24  and  C18_25 
REMARK    4  A    between atoms: C18_25  and  C19_27 
REMARK    5  A    between atoms: C20_28  and  C21_29 
REMARK    6  A    between atoms: C21_29  and  N5_30 
ROOT
HETATM    1  C2  UNL     1      26.464   6.939  48.647  1.00  0.00     0.153 C 
HETATM    2  C3  UNL     1      25.319   6.710  49.269  1.00  0.00     0.089 C 
HETATM    3  C4  UNL     1      24.992   5.561  50.094  1.00  0.00     0.073 A 
HETATM    4  N1  UNL     1      23.934   5.751  50.927  1.00  0.00    -0.259 NA
HETATM    5  C5  UNL     1      23.532   4.743  51.748  1.00  0.00     0.142 A 
HETATM    6  C6  UNL     1      24.223   3.550  51.704  1.00  0.00     0.089 A 
HETATM    7  C7  UNL     1      23.767   2.509  52.587  1.00  0.00     0.103 C 
HETATM    8  N2  UNL     1      23.396   1.682  53.297  1.00  0.00    -0.191 NA
HETATM    9  C8  UNL     1      25.301   3.290  50.885  1.00  0.00     0.067 A 
HETATM   10  C15 UNL     1      25.665   4.341  50.078  1.00  0.00     0.022 A 
HETATM   11  C16 UNL     1      26.827   3.935  49.264  1.00  0.00     0.034 C 
HETATM   12  C17 UNL     1      27.695   4.761  48.617  1.00  0.00     0.103 C 
HETATM   13  N4  UNL     1      27.681   6.199  48.574  1.00  0.00    -0.270 N 
HETATM   14  C18 UNL     1      28.957   6.744  48.436  1.00  0.00     0.253 C 
HETATM   15  O2  UNL     1      29.876   5.880  48.311  1.00  0.00    -0.268 OA
ENDROOT
BRANCH   9  16
HETATM   16  N3  UNL     1      26.000   2.064  50.850  1.00  0.00    -0.354 N 
HETATM   17  H6  UNL     1      25.818   1.733  49.889  1.00  0.00     0.166 HD
BRANCH  16  18
HETATM   18  C9  UNL     1      26.769   1.396  51.824  1.00  0.00     0.034 A 
HETATM   19  C10 UNL     1      26.554   0.039  51.932  1.00  0.00     0.032 A 
HETATM   20  C11 UNL     1      27.299  -0.651  52.881  1.00  0.00     0.046 A 
HETATM   21  C12 UNL     1      28.207   0.051  53.659  1.00  0.00     0.138 A 
HETATM   22  F1  UNL     1      28.912  -0.645  54.568  1.00  0.00    -0.204 F 
HETATM   23  C13 UNL     1      28.403   1.411  53.529  1.00  0.00     0.074 A 
HETATM   24 CL1  UNL     1      29.574   2.231  54.552  1.00  0.00    -0.081 Cl
HETATM   25  C14 UNL     1      27.661   2.110  52.582  1.00  0.00     0.056 A 
ENDBRANCH  16  18
ENDBRANCH   9  16
BRANCH   1  26
HETATM   26  O1  UNL     1      26.538   8.116  47.912  1.00  0.00    -0.340 OA
HETATM   27  C1  UNL     1      26.309   9.399  48.465  1.00  0.00     0.211 C 
ENDBRANCH   1  26
BRANCH  14  28
HETATM   28  C19 UNL     1      29.839   7.868  48.359  1.00  0.00     0.073 C 
HETATM   29  C20 UNL     1      30.045   9.001  48.972  1.00  0.00     0.008 C 
BRANCH  29  30
HETATM   30  C21 UNL     1      30.673  10.290  49.271  1.00  0.00     0.299 C 
BRANCH  30  31
HETATM   31  N5  UNL     1      29.985  11.286  48.462  1.00  0.00     0.083 N 
HETATM   32  C22 UNL     1      30.084  12.596  49.049  1.00  0.00     0.309 C 
HETATM   33  C23 UNL     1      30.424  11.259  47.086  1.00  0.00     0.309 C 
ENDBRANCH  30  31
ENDBRANCH  29  30
ENDBRANCH  14  28
TORSDOF 6
ENDMDL
MODEL 2
REMARK VINA RESULT:      -8.6      2.711      4.619
REMARK  6 active torsions:
REMARK  status: ('A' for Active; 'I' for Inactive)
REMARK    1  A    between atoms: O1_2  and  C2_3 
REMARK    2  A    between atoms: C8_11  and  N3_12 
REMARK    3  A    between atoms: N3_12  and  C9_13 
REMARK       I    between atoms: N4_24  and  C18_25 
REMARK    4  A    between atoms: C18_25  and  C19_27 
REMARK    5  A    between atoms: C20_28  and  C21_29 
REMARK    6  A    between atoms: C21_29  and  N5_30 
ROOT
HETATM    1  C2  UNL     1      22.089   4.162  50.918  1.00  0.00     0.153 C 
HETATM    2  C3  UNL     1      21.239   3.383  51.566  1.00  0.00     0.089 C 
HETATM    3  C4  UNL     1      21.557   2.179  52.311  1.00  0.00     0.073 A 
HETATM    4  N1  UNL     1      20.599   1.798  53.199  1.00  0.00    -0.259 NA
HETATM    5  C5  UNL     1      20.785   0.681  53.955  1.00  0.00     0.142 A 
HETATM    6  C6  UNL     1      21.955  -0.031  53.790  1.00  0.00     0.089 A 
HETATM    7  C7  UNL     1      22.112  -1.205  54.608  1.00  0.00     0.103 C 
HETATM    8  N2  UNL     1      22.232  -2.143  55.265  1.00  0.00    -0.191 NA
HETATM    9  C8  UNL     1      22.964   0.297  52.911  1.00  0.00     0.067 A 
HETATM   10  C15 UNL     1      22.726   1.433  52.174  1.00  0.00     0.022 A 
HETATM   11  C16 UNL     1      23.879   1.673  51.285  1.00  0.00     0.034 C 
HETATM   12  C17 UNL     1      24.200   2.844  50.670  1.00  0.00     0.103 C 
HETATM   13  N4  UNL     1      23.502   4.100  50.739  1.00  0.00    -0.270 N 
HETATM   14  C18 UNL     1      24.352   5.196  50.593  1.00  0.00     0.253 C 
HETATM   15  O2  UNL     1      25.560   4.884  50.364  1.00  0.00    -0.268 OA
ENDROOT
BRANCH   9  16
HETATM   16  N3  UNL     1      24.157  -0.440  52.753  1.00  0.00    -0.354 N 
HETATM   17  H6  UNL     1      23.880  -1.165  52.071  1.00  0.00     0.166 HD
BRANCH  16  18
HETATM   18  C9  UNL     1      25.433  -0.295  53.334  1.00  0.00     0.034 A 
HETATM   19  C10 UNL     1      25.537   0.658  54.324  1.00  0.00     0.032 A 
HETATM   20  C11 UNL     1      26.782   0.824  54.920  1.00  0.00     0.046 A 
HETATM   21  C12 UNL     1      27.839   0.034  54.494  1.00  0.00     0.138 A 
HETATM   22  F1  UNL     1      29.030   0.219  55.090  1.00  0.00    -0.204 F 
HETATM   23  C13 UNL     1      27.706  -0.914  53.500  1.00  0.00     0.074 A 
HETATM   24 CL1  UNL     1      29.093  -1.878  53.014  1.00  0.00    -0.081 Cl
HETATM   25  C14 UNL     1      26.463  -1.087  52.897  1.00  0.00     0.056 A 
ENDBRANCH  16  18
ENDBRANCH   9  16
BRANCH   1  26
HETATM   26  O1  UNL     1      21.541   5.266  50.274  1.00  0.00    -0.340 OA
HETATM   27  C1  UNL     1      20.149   5.458  50.100  1.00  0.00     0.211 C 
ENDBRANCH   1  26
BRANCH  14  28
HETATM   28  C19 UNL     1      24.586   6.607  50.567  1.00  0.00     0.073 C 
HETATM   29  C20 UNL     1      25.500   7.445  50.159  1.00  0.00     0.008 C 
BRANCH  29  30
HETATM   30  C21 UNL     1      26.149   8.735  49.915  1.00  0.00     0.299 C 
BRANCH  30  31
HETATM   31  N5  UNL     1      27.547   8.449  49.626  1.00  0.00     0.083 N 
HETATM   32  C22 UNL     1      27.677   7.536  48.523  1.00  0.00     0.309 C 
HETATM   33  C23 UNL     1      28.316   9.659  49.439  1.00  0.00     0.309 C 
ENDBRANCH  30  31
ENDBRANCH  29  30
ENDBRANCH  14  28
TORSDOF 6
ENDMDL
MODEL 3
REMARK VINA RESULT:      -8.5      2.736      4.364
REMARK  6 active torsions:
REMARK  status: ('A' for Active; 'I' for Inactive)
REMARK    1  A    between atoms: O1_2  and  C2_3 
REMARK    2  A    between atoms: C8_11  and  N3_12 
REMARK    3  A    between atoms: N3_12  and  C9_13 
REMARK       I    between atoms: N4_24  and  C18_25 
REMARK    4  A    between atoms: C18_25  and  C19_27 
REMARK    5  A    between atoms: C20_28  and  C21_29 
REMARK    6  A    between atoms: C21_29  and  N5_30 
ROOT
HETATM    1  C2  UNL     1      23.010   3.046  49.059  1.00  0.00     0.153 C 
HETATM    2  C3  UNL     1      22.276   2.039  49.502  1.00  0.00     0.089 C 
HETATM    3  C4  UNL     1      22.423   1.346  50.768  1.00  0.00     0.073 A 
HETATM    4  N1  UNL     1      21.325   0.642  51.154  1.00  0.00    -0.259 NA
HETATM    5  C5  UNL     1      21.345  -0.051  52.326  1.00  0.00     0.142 A 
HETATM    6  C6  UNL     1      22.494  -0.013  53.087  1.00  0.00     0.089 A 
HETATM    7  C7  UNL     1      22.475  -0.759  54.318  1.00  0.00     0.103 C 
HETATM    8  N2  UNL     1      22.452  -1.358  55.301  1.00  0.00    -0.191 NA
HETATM    9  C8  UNL     1      23.640   0.678  52.756  1.00  0.00     0.067 A 
HETATM   10  C15 UNL     1      23.566   1.360  51.566  1.00  0.00     0.022 A 
HETATM   11  C16 UNL     1      24.846   2.057  51.336  1.00  0.00     0.034 C 
HETATM   12  C17 UNL     1      25.064   3.098  50.486  1.00  0.00     0.103 C 
HETATM   13  N4  UNL     1      24.115   3.749  49.625  1.00  0.00    -0.270 N 
HETATM   14  C18 UNL     1      24.417   5.094  49.412  1.00  0.00     0.253 C 
HETATM   15  O2  UNL     1      25.498   5.472  49.958  1.00  0.00    -0.268 OA
ENDROOT
BRANCH   9  16
HETATM   16  N3  UNL     1      24.810   0.710  53.546  1.00  0.00    -0.354 N 
HETATM   17  H6  UNL     1      24.557   1.382  54.289  1.00  0.00     0.166 HD
BRANCH  16  18
HETATM   18  C9  UNL     1      26.041   0.034  53.425  1.00  0.00     0.034 A 
HETATM   19  C10 UNL     1      25.979  -1.238  52.899  1.00  0.00     0.032 A 
HETATM   20  C11 UNL     1      27.177  -1.930  52.763  1.00  0.00     0.046 A 
HETATM   21  C12 UNL     1      28.354  -1.314  53.159  1.00  0.00     0.138 A 
HETATM   22  F1  UNL     1      29.496  -2.010  53.015  1.00  0.00    -0.204 F 
HETATM   23  C13 UNL     1      28.387  -0.038  53.683  1.00  0.00     0.074 A 
HETATM   24 CL1  UNL     1      29.921   0.676  54.161  1.00  0.00    -0.081 Cl
HETATM   25  C14 UNL     1      27.192   0.663  53.823  1.00  0.00     0.056 A 
ENDBRANCH  16  18
ENDBRANCH   9  16
BRANCH   1  26
HETATM   26  O1  UNL     1      22.675   3.546  47.806  1.00  0.00    -0.340 OA
HETATM   27  C1  UNL     1      21.354   3.889  47.429  1.00  0.00     0.211 C 
ENDBRANCH   1  26
BRANCH  14  28
HETATM   28  C19 UNL     1      24.114   6.374  48.850  1.00  0.00     0.073 C 
HETATM   29  C20 UNL     1      24.567   7.598  48.890  1.00  0.00     0.008 C 
BRANCH  29  30
HETATM   30  C21 UNL     1      24.645   9.029  48.586  1.00  0.00     0.299 C 
BRANCH  30  31
HETATM   31  N5  UNL     1      26.046   9.405  48.710  1.00  0.00     0.083 N 
HETATM   32  C22 UNL     1      26.224  10.822  48.542  1.00  0.00     0.309 C 
HETATM   33  C23 UNL     1      26.628   8.913  49.939  1.00  0.00     0.309 C 
ENDBRANCH  30  31
ENDBRANCH  29  30
ENDBRANCH  14  28
TORSDOF 6
ENDMDL
MODEL 4
REMARK VINA RESULT:      -8.4      2.534      3.275
REMARK  6 active torsions:
REMARK  status: ('A' for Active; 'I' for Inactive)
REMARK    1  A    between atoms: O1_2  and  C2_3 
REMARK    2  A    between atoms: C8_11  and  N3_12 
REMARK    3  A    between atoms: N3_12  and  C9_13 
REMARK       I    between atoms: N4_24  and  C18_25 
REMARK    4  A    between atoms: C18_25  and  C19_27 
REMARK    5  A    between atoms: C20_28  and  C21_29 
REMARK    6  A    between atoms: C21_29  and  N5_30 
ROOT
HETATM    1  C2  UNL     1      28.063   7.604  48.468  1.00  0.00     0.153 C 
HETATM    2  C3  UNL     1      26.881   7.945  48.954  1.00  0.00     0.089 C 
HETATM    3  C4  UNL     1      25.946   7.082  49.651  1.00  0.00     0.073 A 
HETATM    4  N1  UNL     1      25.013   7.743  50.388  1.00  0.00    -0.259 NA
HETATM    5  C5  UNL     1      24.080   7.039  51.085  1.00  0.00     0.142 A 
HETATM    6  C6  UNL     1      24.116   5.662  51.016  1.00  0.00     0.089 A 
HETATM    7  C7  UNL     1      23.112   4.955  51.768  1.00  0.00     0.103 C 
HETATM    8  N2  UNL     1      22.306   4.396  52.371  1.00  0.00    -0.191 NA
HETATM    9  C8  UNL     1      25.031   4.929  50.291  1.00  0.00     0.067 A 
HETATM   10  C15 UNL     1      25.950   5.689  49.607  1.00  0.00     0.022 A 
HETATM   11  C16 UNL     1      26.867   4.788  48.884  1.00  0.00     0.034 C 
HETATM   12  C17 UNL     1      28.097   5.104  48.392  1.00  0.00     0.103 C 
HETATM   13  N4  UNL     1      28.777   6.370  48.459  1.00  0.00    -0.270 N 
HETATM   14  C18 UNL     1      30.164   6.233  48.491  1.00  0.00     0.253 C 
HETATM   15  O2  UNL     1      30.566   5.034  48.390  1.00  0.00    -0.268 OA
ENDROOT
BRANCH   9  16
HETATM   16  N3  UNL     1      25.058   3.520  50.231  1.00  0.00    -0.354 N 
HETATM   17  H6  UNL     1      24.720   3.332  49.273  1.00  0.00     0.166 HD
BRANCH  16  18
HETATM   18  C9  UNL     1      25.432   2.548  51.181  1.00  0.00     0.034 A 
HETATM   19  C10 UNL     1      24.440   1.672  51.566  1.00  0.00     0.032 A 
HETATM   20  C11 UNL     1      24.777   0.698  52.499  1.00  0.00     0.046 A 
HETATM   21  C12 UNL     1      26.075   0.660  52.988  1.00  0.00     0.138 A 
HETATM   22  F1  UNL     1      26.369  -0.293  53.889  1.00  0.00    -0.204 F 
HETATM   23  C13 UNL     1      27.048   1.551  52.584  1.00  0.00     0.074 A 
HETATM   24 CL1  UNL     1      28.672   1.438  53.249  1.00  0.00    -0.081 Cl
HETATM   25  C14 UNL     1      26.720   2.529  51.650  1.00  0.00     0.056 A 
ENDBRANCH  16  18
ENDBRANCH   9  16
BRANCH   1  26
HETATM   26  O1  UNL     1      28.782   8.613  47.837  1.00  0.00    -0.340 OA
HETATM   27  C1  UNL     1      29.111   9.843  48.456  1.00  0.00     0.211 C 
ENDBRANCH   1  26
BRANCH  14  28
HETATM   28  C19 UNL     1      31.478   6.791  48.588  1.00  0.00     0.073 C 
HETATM   29  C20 UNL     1      32.654   6.640  48.041  1.00  0.00     0.008 C 
BRANCH  29  30
HETATM   30  C21 UNL     1      34.077   6.879  47.791  1.00  0.00     0.299 C 
BRANCH  30  31
HETATM   31  N5  UNL     1      34.617   5.642  47.245  1.00  0.00     0.083 N 
HETATM   32  C22 UNL     1      34.819   4.659  48.275  1.00  0.00     0.309 C 
HETATM   33  C23 UNL     1      33.817   5.143  46.149  1.00  0.00     0.309 C 
ENDBRANCH  30  31
ENDBRANCH  29  30
ENDBRANCH  14  28
TORSDOF 6
ENDMDL
MODEL 5
REMARK VINA RESULT:      -8.4      4.246      5.501
REMARK  6 active torsions:
REMARK  status: ('A' for Active; 'I' for Inactive)
REMARK    1  A    between atoms: O1_2  and  C2_3 
REMARK    2  A    between atoms: C8_11  and  N3_12 
REMARK    3  A    between atoms: N3_12  and  C9_13 
REMARK       I    between atoms: N4_24  and  C18_25 
REMARK    4  A    between atoms: C18_25  and  C19_27 
REMARK    5  A    between atoms: C20_28  and  C21_29 
REMARK    6  A    between atoms: C21_29  and  N5_30 
ROOT
HETATM    1  C2  UNL     1      22.828   3.237  49.171  1.00  0.00     0.153 C 
HETATM    2  C3  UNL     1      22.168   2.139  49.502  1.00  0.00     0.089 C 
HETATM    3  C4  UNL     1      22.298   1.384  50.734  1.00  0.00     0.073 A 
HETATM    4  N1  UNL     1      21.251   0.558  51.000  1.00  0.00    -0.259 NA
HETATM    5  C5  UNL     1      21.261  -0.203  52.129  1.00  0.00     0.142 A 
HETATM    6  C6  UNL     1      22.348  -0.105  52.972  1.00  0.00     0.089 A 
HETATM    7  C7  UNL     1      22.320  -0.927  54.154  1.00  0.00     0.103 C 
HETATM    8  N2  UNL     1      22.290  -1.586  55.097  1.00  0.00    -0.191 NA
HETATM    9  C8  UNL     1      23.440   0.709  52.764  1.00  0.00     0.067 A 
HETATM   10  C15 UNL     1      23.378   1.455  51.612  1.00  0.00     0.022 A 
HETATM   11  C16 UNL     1      24.596   2.282  51.515  1.00  0.00     0.034 C 
HETATM   12  C17 UNL     1      24.768   3.390  50.743  1.00  0.00     0.103 C 
HETATM   13  N4  UNL     1      23.818   4.003  49.854  1.00  0.00    -0.270 N 
HETATM   14  C18 UNL     1      24.001   5.381  49.739  1.00  0.00     0.253 C 
HETATM   15  O2  UNL     1      25.001   5.823  50.382  1.00  0.00    -0.268 OA
ENDROOT
BRANCH   9  16
HETATM   16  N3  UNL     1      24.546   0.800  53.637  1.00  0.00    -0.354 N 
HETATM   17  H6  UNL     1      24.168   1.365  54.415  1.00  0.00     0.166 HD
BRANCH  16  18
HETATM   18  C9  UNL     1      25.856   0.287  53.547  1.00  0.00     0.034 A 
HETATM   19  C10 UNL     1      25.979  -0.938  52.929  1.00  0.00     0.032 A 
HETATM   20  C11 UNL     1      27.258  -1.471  52.821  1.00  0.00     0.046 A 
HETATM   21  C12 UNL     1      28.328  -0.753  53.333  1.00  0.00     0.138 A 
HETATM   22  F1  UNL     1      29.552  -1.295  53.213  1.00  0.00    -0.204 F 
HETATM   23  C13 UNL     1      28.175   0.474  53.947  1.00  0.00     0.074 A 
HETATM   24 CL1  UNL     1      29.581   1.325  54.571  1.00  0.00    -0.081 Cl
HETATM   25  C14 UNL     1      26.898   1.015  54.060  1.00  0.00     0.056 A 
ENDBRANCH  16  18
ENDBRANCH   9  16
BRANCH   1  26
HETATM   26  O1  UNL     1      22.529   3.781  47.927  1.00  0.00    -0.340 OA
HETATM   27  C1  UNL     1      21.243   3.725  47.338  1.00  0.00     0.211 C 
ENDBRANCH   1  26
BRANCH  14  28
HETATM   28  C19 UNL     1      23.612   6.660  49.230  1.00  0.00     0.073 C 
HETATM   29  C20 UNL     1      22.683   7.556  49.426  1.00  0.00     0.008 C 
BRANCH  29  30
HETATM   30  C21 UNL     1      21.935   8.801  49.241  1.00  0.00     0.299 C 
BRANCH  30  31
HETATM   31  N5  UNL     1      20.536   8.489  49.497  1.00  0.00     0.083 N 
HETATM   32  C22 UNL     1      19.776   9.679  49.768  1.00  0.00     0.309 C 
HETATM   33  C23 UNL     1      19.961   7.691  48.438  1.00  0.00     0.309 C 
ENDBRANCH  30  31
ENDBRANCH  29  30
ENDBRANCH  14  28
TORSDOF 6
ENDMDL
MODEL 6
REMARK VINA RESULT:      -8.2      4.975      9.669
REMARK  6 active torsions:
REMARK  status: ('A' for Active; 'I' for Inactive)
REMARK    1  A    between atoms: O1_2  and  C2_3 
REMARK    2  A    between atoms: C8_11  and  N3_12 
REMARK    3  A    between atoms: N3_12  and  C9_13 
REMARK       I    between atoms: N4_24  and  C18_25 
REMARK    4  A    between atoms: C18_25  and  C19_27 
REMARK    5  A    between atoms: C20_28  and  C21_29 
REMARK    6  A    between atoms: C21_29  and  N5_30 
ROOT
HETATM    1  C2  UNL     1      20.384   1.826  51.478  1.00  0.00     0.153 C 
HETATM    2  C3  UNL     1      20.964   2.535  50.524  1.00  0.00     0.089 C 
HETATM    3  C4  UNL     1      22.383   2.798  50.375  1.00  0.00     0.073 A 
HETATM    4  N1  UNL     1      22.754   3.193  49.128  1.00  0.00    -0.259 NA
HETATM    5  C5  UNL     1      24.061   3.470  48.868  1.00  0.00     0.142 A 
HETATM    6  C6  UNL     1      24.973   3.337  49.894  1.00  0.00     0.089 A 
HETATM    7  C7  UNL     1      26.345   3.639  49.579  1.00  0.00     0.103 C 
HETATM    8  N2  UNL     1      27.440   3.883  49.319  1.00  0.00    -0.191 NA
HETATM    9  C8  UNL     1      24.667   2.942  51.179  1.00  0.00     0.067 A 
HETATM   10  C15 UNL     1      23.335   2.675  51.386  1.00  0.00     0.022 A 
HETATM   11  C16 UNL     1      23.146   2.259  52.789  1.00  0.00     0.034 C 
HETATM   12  C17 UNL     1      22.081   1.584  53.301  1.00  0.00     0.103 C 
HETATM   13  N4  UNL     1      20.908   1.127  52.606  1.00  0.00    -0.270 N 
HETATM   14  C18 UNL     1      20.364  -0.027  53.170  1.00  0.00     0.253 C 
HETATM   15  O2  UNL     1      20.961  -0.419  54.219  1.00  0.00    -0.268 OA
ENDROOT
BRANCH   9  16
HETATM   16  N3  UNL     1      25.611   2.809  52.220  1.00  0.00    -0.354 N 
HETATM   17  H6  UNL     1      25.481   3.687  52.750  1.00  0.00     0.166 HD
BRANCH  16  18
HETATM   18  C9  UNL     1      26.527   1.784  52.529  1.00  0.00     0.034 A 
HETATM   19  C10 UNL     1      27.714   2.191  53.097  1.00  0.00     0.032 A 
HETATM   20  C11 UNL     1      28.639   1.203  53.418  1.00  0.00     0.046 A 
HETATM   21  C12 UNL     1      28.323  -0.121  53.153  1.00  0.00     0.138 A 
HETATM   22  F1  UNL     1      29.238  -1.052  53.474  1.00  0.00    -0.204 F 
HETATM   23  C13 UNL     1      27.125  -0.500  52.583  1.00  0.00     0.074 A 
HETATM   24 CL1  UNL     1      26.797  -2.200  52.279  1.00  0.00    -0.081 Cl
HETATM   25  C14 UNL     1      26.193   0.482  52.259  1.00  0.00     0.056 A 
ENDBRANCH  16  18
ENDBRANCH   9  16
BRANCH   1  26
HETATM   26  O1  UNL     1      19.000   1.716  51.407  1.00  0.00    -0.340 OA
HETATM   27  C1  UNL     1      18.120   2.814  51.566  1.00  0.00     0.211 C 
ENDBRANCH   1  26
BRANCH  14  28
HETATM   28  C19 UNL     1      19.404  -1.088  53.178  1.00  0.00     0.073 C 
HETATM   29  C20 UNL     1      18.112  -1.245  53.079  1.00  0.00     0.008 C 
BRANCH  29  30
HETATM   30  C21 UNL     1      16.829  -1.950  53.028  1.00  0.00     0.299 C 
BRANCH  30  31
HETATM   31  N5  UNL     1      15.892  -1.061  52.354  1.00  0.00     0.083 N 
HETATM   32  C22 UNL     1      16.390  -0.657  51.066  1.00  0.00     0.309 C 
HETATM   33  C23 UNL     1      14.566  -1.631  52.284  1.00  0.00     0.309 C 
ENDBRANCH  30  31
ENDBRANCH  29  30
ENDBRANCH  14  28
TORSDOF 6
ENDMDL
MODEL 7
REMARK VINA RESULT:      -8.1      4.214      8.226
REMARK  6 active torsions:
REMARK  status: ('A' for Active; 'I' for Inactive)
REMARK    1  A    between atoms: O1_2  and  C2_3 
REMARK    2  A    between atoms: C8_11  and  N3_12 
REMARK    3  A    between atoms: N3_12  and  C9_13 
REMARK       I    between atoms: N4_24  and  C18_25 
REMARK    4  A    between atoms: C18_25  and  C19_27 
REMARK    5  A    between atoms: C20_28  and  C21_29 
REMARK    6  A    between atoms: C21_29  and  N5_30 
ROOT
HETATM    1  C2  UNL     1      22.915   1.163  51.659  1.00  0.00     0.153 C 
HETATM    2  C3  UNL     1      22.286   1.235  50.498  1.00  0.00     0.089 C 
HETATM    3  C4  UNL     1      22.304   2.347  49.566  1.00  0.00     0.073 A 
HETATM    4  N1  UNL     1      21.924   2.026  48.300  1.00  0.00    -0.259 NA
HETATM    5  C5  UNL     1      21.900   2.988  47.337  1.00  0.00     0.142 A 
HETATM    6  C6  UNL     1      22.267   4.271  47.688  1.00  0.00     0.089 A 
HETATM    7  C7  UNL     1      22.228   5.259  46.641  1.00  0.00     0.103 C 
HETATM    8  N2  UNL     1      22.194   6.043  45.799  1.00  0.00    -0.191 NA
HETATM    9  C8  UNL     1      22.661   4.665  48.948  1.00  0.00     0.067 A 
HETATM   10  C15 UNL     1      22.668   3.655  49.880  1.00  0.00     0.022 A 
HETATM   11  C16 UNL     1      23.113   4.206  51.175  1.00  0.00     0.034 C 
HETATM   12  C17 UNL     1      23.588   3.502  52.238  1.00  0.00     0.103 C 
HETATM   13  N4  UNL     1      23.764   2.079  52.348  1.00  0.00    -0.270 N 
HETATM   14  C18 UNL     1      24.815   1.731  53.196  1.00  0.00     0.253 C 
HETATM   15  O2  UNL     1      25.373   2.722  53.758  1.00  0.00    -0.268 OA
ENDROOT
BRANCH   9  16
HETATM   16  N3  UNL     1      23.036   5.981  49.292  1.00  0.00    -0.354 N 
HETATM   17  H6  UNL     1      22.126   6.422  49.504  1.00  0.00     0.166 HD
BRANCH  16  18
HETATM   18  C9  UNL     1      24.295   6.611  49.357  1.00  0.00     0.034 A 
HETATM   19  C10 UNL     1      24.318   7.845  49.970  1.00  0.00     0.032 A 
HETATM   20  C11 UNL     1      25.545   8.492  50.053  1.00  0.00     0.046 A 
HETATM   21  C12 UNL     1      26.667   7.871  49.523  1.00  0.00     0.138 A 
HETATM   22  F1  UNL     1      27.839   8.523  49.620  1.00  0.00    -0.204 F 
HETATM   23  C13 UNL     1      26.614   6.634  48.915  1.00  0.00     0.074 A 
HETATM   24 CL1  UNL     1      28.080   5.911  48.268  1.00  0.00    -0.081 Cl
HETATM   25  C14 UNL     1      25.389   5.979  48.827  1.00  0.00     0.056 A 
ENDBRANCH  16  18
ENDBRANCH   9  16
BRANCH   1  26
HETATM   26  O1  UNL     1      22.742  -0.013  52.379  1.00  0.00    -0.340 OA
HETATM   27  C1  UNL     1      21.562  -0.325  53.097  1.00  0.00     0.211 C 
ENDBRANCH   1  26
BRANCH  14  28
HETATM   28  C19 UNL     1      25.661   0.755  53.811  1.00  0.00     0.073 C 
HETATM   29  C20 UNL     1      26.850   0.679  54.344  1.00  0.00     0.008 C 
BRANCH  29  30
HETATM   30  C21 UNL     1      28.009   0.069  55.000  1.00  0.00     0.299 C 
BRANCH  30  31
HETATM   31  N5  UNL     1      29.191   0.696  54.424  1.00  0.00     0.083 N 
HETATM   32  C22 UNL     1      29.841  -0.177  53.484  1.00  0.00     0.309 C 
HETATM   33  C23 UNL     1      28.891   1.994  53.864  1.00  0.00     0.309 C 
ENDBRANCH  30  31
ENDBRANCH  29  30
ENDBRANCH  14  28
TORSDOF 6
ENDMDL
MODEL 8
REMARK VINA RESULT:      -8.1      4.263      8.658
REMARK  6 active torsions:
REMARK  status: ('A' for Active; 'I' for Inactive)
REMARK    1  A    between atoms: O1_2  and  C2_3 
REMARK    2  A    between atoms: C8_11  and  N3_12 
REMARK    3  A    between atoms: N3_12  and  C9_13 
REMARK       I    between atoms: N4_24  and  C18_25 
REMARK    4  A    between atoms: C18_25  and  C19_27 
REMARK    5  A    between atoms: C20_28  and  C21_29 
REMARK    6  A    between atoms: C21_29  and  N5_30 
ROOT
HETATM    1  C2  UNL     1      22.156   1.825  52.860  1.00  0.00     0.153 C 
HETATM    2  C3  UNL     1      21.143   2.464  52.298  1.00  0.00     0.089 C 
HETATM    3  C4  UNL     1      21.189   3.754  51.635  1.00  0.00     0.073 A 
HETATM    4  N1  UNL     1      20.139   3.999  50.807  1.00  0.00    -0.259 NA
HETATM    5  C5  UNL     1      20.072   5.178  50.131  1.00  0.00     0.142 A 
HETATM    6  C6  UNL     1      21.087   6.094  50.314  1.00  0.00     0.089 A 
HETATM    7  C7  UNL     1      20.979   7.329  49.582  1.00  0.00     0.103 C 
HETATM    8  N2  UNL     1      20.885   8.314  48.993  1.00  0.00    -0.191 NA
HETATM    9  C8  UNL     1      22.178   5.912  51.136  1.00  0.00     0.067 A 
HETATM   10  C15 UNL     1      22.197   4.705  51.794  1.00  0.00     0.022 A 
HETATM   11  C16 UNL     1      23.412   4.636  52.627  1.00  0.00     0.034 C 
HETATM   12  C17 UNL     1      23.980   3.512  53.144  1.00  0.00     0.103 C 
HETATM   13  N4  UNL     1      23.537   2.152  53.002  1.00  0.00    -0.270 N 
HETATM   14  C18 UNL     1      24.588   1.237  53.041  1.00  0.00     0.253 C 
HETATM   15  O2  UNL     1      25.722   1.763  53.257  1.00  0.00    -0.268 OA
ENDROOT
BRANCH   9  16
HETATM   16  N3  UNL     1      23.211   6.857  51.314  1.00  0.00    -0.354 N 
HETATM   17  H6  UNL     1      22.932   7.328  52.190  1.00  0.00     0.166 HD
BRANCH  16  18
HETATM   18  C9  UNL     1      24.357   7.149  50.546  1.00  0.00     0.034 A 
HETATM   19  C10 UNL     1      24.624   8.486  50.350  1.00  0.00     0.032 A 
HETATM   20  C11 UNL     1      25.749   8.808  49.601  1.00  0.00     0.046 A 
HETATM   21  C12 UNL     1      26.533   7.782  49.096  1.00  0.00     0.138 A 
HETATM   22  F1  UNL     1      27.615   8.126  48.375  1.00  0.00    -0.204 F 
HETATM   23  C13 UNL     1      26.242   6.450  49.309  1.00  0.00     0.074 A 
HETATM   24 CL1  UNL     1      27.286   5.205  48.637  1.00  0.00    -0.081 Cl
HETATM   25  C14 UNL     1      25.117   6.118  50.058  1.00  0.00     0.056 A 
ENDBRANCH  16  18
ENDBRANCH   9  16
BRANCH   1  26
HETATM   26  O1  UNL     1      21.861   0.595  53.436  1.00  0.00    -0.340 OA
HETATM   27  C1  UNL     1      20.718   0.361  54.239  1.00  0.00     0.211 C 
ENDBRANCH   1  26
BRANCH  14  28
HETATM   28  C19 UNL     1      25.093  -0.099  52.955  1.00  0.00     0.073 C 
HETATM   29  C20 UNL     1      26.239  -0.712  52.838  1.00  0.00     0.008 C 
BRANCH  29  30
HETATM   30  C21 UNL     1      27.175  -1.833  52.723  1.00  0.00     0.299 C 
BRANCH  30  31
HETATM   31  N5  UNL     1      28.493  -1.310  53.055  1.00  0.00     0.083 N 
HETATM   32  C22 UNL     1      28.420  -0.347  54.121  1.00  0.00     0.309 C 
HETATM   33  C23 UNL     1      29.439  -2.368  53.326  1.00  0.00     0.309 C 
ENDBRANCH  30  31
ENDBRANCH  29  30
ENDBRANCH  14  28
TORSDOF 6
ENDMDL
MODEL 9
REMARK VINA RESULT:      -8.0      4.715      7.077
REMARK  6 active torsions:
REMARK  status: ('A' for Active; 'I' for Inactive)
REMARK    1  A    between atoms: O1_2  and  C2_3 
REMARK    2  A    between atoms: C8_11  and  N3_12 
REMARK    3  A    between atoms: N3_12  and  C9_13 
REMARK       I    between atoms: N4_24  and  C18_25 
REMARK    4  A    between atoms: C18_25  and  C19_27 
REMARK    5  A    between atoms: C20_28  and  C21_29 
REMARK    6  A    between atoms: C21_29  and  N5_30 
ROOT
HETATM    1  C2  UNL     1      25.935   2.337  51.952  1.00  0.00     0.153 C 
HETATM    2  C3  UNL     1      25.470   1.300  52.629  1.00  0.00     0.089 C 
HETATM    3  C4  UNL     1      24.079   0.925  52.799  1.00  0.00     0.073 A 
HETATM    4  N1  UNL     1      23.887  -0.366  53.179  1.00  0.00    -0.259 NA
HETATM    5  C5  UNL     1      22.623  -0.833  53.372  1.00  0.00     0.142 A 
HETATM    6  C6  UNL     1      21.570   0.033  53.170  1.00  0.00     0.089 A 
HETATM    7  C7  UNL     1      20.249  -0.499  53.384  1.00  0.00     0.103 C 
HETATM    8  N2  UNL     1      19.196  -0.932  53.557  1.00  0.00    -0.191 NA
HETATM    9  C8  UNL     1      21.691   1.351  52.785  1.00  0.00     0.067 A 
HETATM   10  C15 UNL     1      22.988   1.770  52.604  1.00  0.00     0.022 A 
HETATM   11  C16 UNL     1      22.976   3.186  52.190  1.00  0.00     0.034 C 
HETATM   12  C17 UNL     1      23.989   3.863  51.582  1.00  0.00     0.103 C 
HETATM   13  N4  UNL     1      25.286   3.367  51.210  1.00  0.00    -0.270 N 
HETATM   14  C18 UNL     1      25.807   4.013  50.089  1.00  0.00     0.253 C 
HETATM   15  O2  UNL     1      25.077   4.953  49.650  1.00  0.00    -0.268 OA
ENDROOT
BRANCH   9  16
HETATM   16  N3  UNL     1      20.604   2.227  52.581  1.00  0.00    -0.354 N 
HETATM   17  H6  UNL     1      20.591   2.773  53.458  1.00  0.00     0.166 HD
BRANCH  16  18
HETATM   18  C9  UNL     1      19.717   2.384  51.496  1.00  0.00     0.034 A 
HETATM   19  C10 UNL     1      20.077   1.745  50.330  1.00  0.00     0.032 A 
HETATM   20  C11 UNL     1      19.221   1.876  49.242  1.00  0.00     0.046 A 
HETATM   21  C12 UNL     1      18.067   2.632  49.385  1.00  0.00     0.138 A 
HETATM   22  F1  UNL     1      17.261   2.740  48.314  1.00  0.00    -0.204 F 
HETATM   23  C13 UNL     1      17.732   3.261  50.566  1.00  0.00     0.074 A 
HETATM   24 CL1  UNL     1      16.251   4.202  50.670  1.00  0.00    -0.081 Cl
HETATM   25  C14 UNL     1      18.583   3.135  51.661  1.00  0.00     0.056 A 
ENDBRANCH  16  18
ENDBRANCH   9  16
BRANCH   1  26
HETATM   26  O1  UNL     1      27.317   2.489  51.935  1.00  0.00    -0.340 OA
HETATM   27  C1  UNL     1      28.148   2.210  53.046  1.00  0.00     0.211 C 
ENDBRANCH   1  26
BRANCH  14  28
HETATM   28  C19 UNL     1      26.823   4.177  49.095  1.00  0.00     0.073 C 
HETATM   29  C20 UNL     1      27.840   4.957  48.846  1.00  0.00     0.008 C 
BRANCH  29  30
HETATM   30  C21 UNL     1      29.000   5.490  48.129  1.00  0.00     0.299 C 
BRANCH  30  31
HETATM   31  N5  UNL     1      28.941   6.939  48.261  1.00  0.00     0.083 N 
HETATM   32  C22 UNL     1      30.176   7.552  47.852  1.00  0.00     0.309 C 
HETATM   33  C23 UNL     1      27.792   7.495  47.582  1.00  0.00     0.309 C 
ENDBRANCH  30  31
ENDBRANCH  29  30
ENDBRANCH  14  28
TORSDOF 6
ENDMDL
