MODEL 1
REMARK VINA RESULT:      -9.9      0.000      0.000
REMARK  5 active torsions:
REMARK  status: ('A' for Active; 'I' for Inactive)
REMARK    1  A    between atoms: C2_2  and  C3_4 
REMARK    2  A    between atoms: C4_5  and  C5_6 
REMARK    3  A    between atoms: C12_14  and  N1_15 
REMARK    4  A    between atoms: N1_15  and  C13_16 
REMARK    5  A    between atoms: C18_23  and  N4_24 
REMARK       I    between atoms: N4_24  and  C19_25 
REMARK       I    between atoms: C19_25  and  N5_26 
ROOT
HETATM    1  N1  UNL     1      25.992   4.021  48.970  1.00  0.00    -0.342 N 
HETATM    2  H8  UNL     1      26.195   3.469  48.131  1.00  0.00     0.167 HD
ENDROOT
BRANCH   1   3
HETATM    3  C12 UNL     1      25.541   3.151  49.997  1.00  0.00     0.036 A 
HETATM    4  C11 UNL     1      26.379   2.563  50.817  1.00  0.00     0.042 A 
HETATM    5  C4  UNL     1      26.030   1.656  51.898  1.00  0.00     0.011 A 
HETATM    6  C3  UNL     1      24.739   1.479  51.969  1.00  0.00     0.096 A 
HETATM    7  O2  UNL     1      23.766   2.022  51.187  1.00  0.00    -0.343 OA
HETATM    8  C22 UNL     1      24.093   2.915  50.139  1.00  0.00     0.232 A 
BRANCH   5   9
HETATM    9  C5  UNL     1      27.175   1.155  52.639  1.00  0.00    -0.020 A 
HETATM   10  C6  UNL     1      27.537  -0.179  52.692  1.00  0.00     0.012 A 
HETATM   11  C7  UNL     1      28.592  -0.693  53.406  1.00  0.00     0.004 A 
HETATM   12  C8  UNL     1      29.356   0.222  54.137  1.00  0.00     0.042 A 
HETATM   13  C9  UNL     1      29.002   1.560  54.091  1.00  0.00     0.117 A 
HETATM   14  F1  UNL     1      29.826   2.347  54.847  1.00  0.00    -0.206 F 
HETATM   15  C10 UNL     1      27.946   2.055  53.373  1.00  0.00     0.054 A 
ENDBRANCH   5   9
BRANCH   6  16
HETATM   16  C2  UNL     1      24.182   0.605  52.988  1.00  0.00     0.021 C 
HETATM   17  C1  UNL     1      24.125  -0.338  53.893  1.00  0.00     0.230 C 
HETATM   18 CL1  UNL     1      22.632   0.215  53.731  1.00  0.00    -0.230 Cl
ENDBRANCH   6  16
ENDBRANCH   1   3
BRANCH   1  19
HETATM   19  C13 UNL     1      26.094   5.413  49.223  1.00  0.00     0.141 A 
HETATM   20  N2  UNL     1      25.030   6.021  49.775  1.00  0.00    -0.224 NA
HETATM   21  C14 UNL     1      25.049   7.363  50.044  1.00  0.00     0.236 A 
HETATM   22  N3  UNL     1      26.157   8.095  49.751  1.00  0.00    -0.241 NA
HETATM   23  C15 UNL     1      27.250   7.517  49.195  1.00  0.00     0.072 A 
HETATM   24  C16 UNL     1      28.395   8.257  48.882  1.00  0.00     0.035 A 
HETATM   25  C21 UNL     1      27.212   6.164  48.930  1.00  0.00     0.041 A 
HETATM   26  C17 UNL     1      29.487   7.611  48.304  1.00  0.00     0.032 A 
HETATM   27  C18 UNL     1      29.389   6.249  48.062  1.00  0.00     0.037 A 
HETATM   28  C20 UNL     1      28.276   5.492  48.358  1.00  0.00     0.047 A 
BRANCH  27  29
HETATM   29  N4  UNL     1      30.604   5.752  47.464  1.00  0.00    -0.309 N 
HETATM   30  C19 UNL     1      31.478   5.328  48.501  1.00  0.00     0.318 C 
HETATM   31  N5  UNL     1      32.779   4.772  48.357  1.00  0.00    -0.352 N 
HETATM   32  O1  UNL     1      31.088   5.441  49.703  1.00  0.00    -0.247 OA
HETATM   33  H13 UNL     1      33.510   4.162  47.938  1.00  0.00     0.160 HD
HETATM   34  H14 UNL     1      33.536   5.080  48.988  1.00  0.00     0.160 HD
HETATM   35  H12 UNL     1      30.987   5.633  46.509  1.00  0.00     0.170 HD
ENDBRANCH  27  29
ENDBRANCH   1  19
TORSDOF 5
ENDMDL
MODEL 2
REMARK VINA RESULT:      -9.8      3.474      4.712
REMARK  5 active torsions:
REMARK  status: ('A' for Active; 'I' for Inactive)
REMARK    1  A    between atoms: C2_2  and  C3_4 
REMARK    2  A    between atoms: C4_5  and  C5_6 
REMARK    3  A    between atoms: C12_14  and  N1_15 
REMARK    4  A    between atoms: N1_15  and  C13_16 
REMARK    5  A    between atoms: C18_23  and  N4_24 
REMARK       I    between atoms: N4_24  and  C19_25 
REMARK       I    between atoms: C19_25  and  N5_26 
ROOT
HETATM    1  N1  UNL     1      24.450   4.338  51.753  1.00  0.00    -0.342 N 
HETATM    2  H8  UNL     1      24.577   4.859  52.627  1.00  0.00     0.167 HD
ENDROOT
BRANCH   1   3
HETATM    3  C12 UNL     1      24.974   3.029  51.916  1.00  0.00     0.036 A 
HETATM    4  C11 UNL     1      24.313   2.099  52.563  1.00  0.00     0.042 A 
HETATM    5  C4  UNL     1      24.751   0.732  52.790  1.00  0.00     0.011 A 
HETATM    6  C3  UNL     1      25.925   0.519  52.262  1.00  0.00     0.096 A 
HETATM    7  O2  UNL     1      26.713   1.387  51.571  1.00  0.00    -0.343 OA
HETATM    8  C22 UNL     1      26.292   2.716  51.334  1.00  0.00     0.232 A 
BRANCH   5   9
HETATM    9  C5  UNL     1      23.806  -0.071  53.546  1.00  0.00    -0.020 A 
HETATM   10  C6  UNL     1      24.119  -0.731  54.721  1.00  0.00     0.012 A 
HETATM   11  C7  UNL     1      23.263  -1.524  55.445  1.00  0.00     0.004 A 
HETATM   12  C8  UNL     1      21.967  -1.668  54.938  1.00  0.00     0.042 A 
HETATM   13  C9  UNL     1      21.643  -1.012  53.763  1.00  0.00     0.117 A 
HETATM   14  F1  UNL     1      20.351  -1.234  53.376  1.00  0.00    -0.206 F 
HETATM   15  C10 UNL     1      22.511  -0.225  53.054  1.00  0.00     0.054 A 
ENDBRANCH   5   9
BRANCH   6  16
HETATM   16  C2  UNL     1      26.543  -0.791  52.376  1.00  0.00     0.021 C 
HETATM   17  C1  UNL     1      26.688  -2.089  52.284  1.00  0.00     0.230 C 
HETATM   18 CL1  UNL     1      27.983  -1.550  53.055  1.00  0.00    -0.230 Cl
ENDBRANCH   6  16
ENDBRANCH   1   3
BRANCH   1  19
HETATM   19  C13 UNL     1      23.871   4.715  50.514  1.00  0.00     0.141 A 
HETATM   20  N2  UNL     1      22.679   4.178  50.201  1.00  0.00    -0.224 NA
HETATM   21  C14 UNL     1      22.057   4.488  49.022  1.00  0.00     0.236 A 
HETATM   22  N3  UNL     1      22.649   5.349  48.153  1.00  0.00    -0.241 NA
HETATM   23  C15 UNL     1      23.850   5.911  48.433  1.00  0.00     0.072 A 
HETATM   24  C16 UNL     1      24.475   6.795  47.548  1.00  0.00     0.035 A 
HETATM   25  C21 UNL     1      24.462   5.587  49.627  1.00  0.00     0.041 A 
HETATM   26  C17 UNL     1      25.715   7.337  47.886  1.00  0.00     0.032 A 
HETATM   27  C18 UNL     1      26.279   6.973  49.099  1.00  0.00     0.037 A 
HETATM   28  C20 UNL     1      25.689   6.106  49.993  1.00  0.00     0.047 A 
BRANCH  27  29
HETATM   29  N4  UNL     1      27.553   7.625  49.281  1.00  0.00    -0.309 N 
HETATM   30  C19 UNL     1      27.335   8.866  49.939  1.00  0.00     0.318 C 
HETATM   31  N5  UNL     1      28.316   9.825  50.314  1.00  0.00    -0.352 N 
HETATM   32  O1  UNL     1      26.146   9.188  50.244  1.00  0.00    -0.247 OA
HETATM   33  H13 UNL     1      29.225  10.154  50.699  1.00  0.00     0.160 HD
HETATM   34  H14 UNL     1      28.130  10.829  50.160  1.00  0.00     0.160 HD
HETATM   35  H12 UNL     1      28.545   7.428  49.061  1.00  0.00     0.170 HD
ENDBRANCH  27  29
ENDBRANCH   1  19
TORSDOF 5
ENDMDL
MODEL 3
REMARK VINA RESULT:      -9.5      2.669      3.410
REMARK  5 active torsions:
REMARK  status: ('A' for Active; 'I' for Inactive)
REMARK    1  A    between atoms: C2_2  and  C3_4 
REMARK    2  A    between atoms: C4_5  and  C5_6 
REMARK    3  A    between atoms: C12_14  and  N1_15 
REMARK    4  A    between atoms: N1_15  and  C13_16 
REMARK    5  A    between atoms: C18_23  and  N4_24 
REMARK       I    between atoms: N4_24  and  C19_25 
REMARK       I    between atoms: C19_25  and  N5_26 
ROOT
HETATM    1  N1  UNL     1      25.592   3.558  49.820  1.00  0.00    -0.342 N 
HETATM    2  H8  UNL     1      26.592   3.484  49.609  1.00  0.00     0.167 HD
ENDROOT
BRANCH   1   3
HETATM    3  C12 UNL     1      25.262   2.612  50.825  1.00  0.00     0.036 A 
HETATM    4  C11 UNL     1      26.176   1.854  51.383  1.00  0.00     0.042 A 
HETATM    5  C4  UNL     1      25.951   0.855  52.416  1.00  0.00     0.011 A 
HETATM    6  C3  UNL     1      24.690   0.788  52.742  1.00  0.00     0.096 A 
HETATM    7  O2  UNL     1      23.648   1.509  52.246  1.00  0.00    -0.343 OA
HETATM    8  C22 UNL     1      23.855   2.491  51.250  1.00  0.00     0.232 A 
BRANCH   5   9
HETATM    9  C5  UNL     1      27.158   0.166  52.839  1.00  0.00    -0.020 A 
HETATM   10  C6  UNL     1      28.251   0.797  53.404  1.00  0.00     0.012 A 
HETATM   11  C7  UNL     1      29.419   0.185  53.787  1.00  0.00     0.004 A 
HETATM   12  C8  UNL     1      29.495  -1.196  53.582  1.00  0.00     0.042 A 
HETATM   13  C9  UNL     1      28.406  -1.839  53.017  1.00  0.00     0.117 A 
HETATM   14  F1  UNL     1      28.608  -3.183  52.871  1.00  0.00    -0.206 F 
HETATM   15  C10 UNL     1      27.249  -1.211  52.642  1.00  0.00     0.054 A 
ENDBRANCH   5   9
BRANCH   6  16
HETATM   16  C2  UNL     1      24.255  -0.151  53.762  1.00  0.00     0.021 C 
HETATM   17  C1  UNL     1      23.459  -0.933  54.447  1.00  0.00     0.230 C 
HETATM   18 CL1  UNL     1      24.864  -0.949  55.211  1.00  0.00    -0.230 Cl
ENDBRANCH   6  16
ENDBRANCH   1   3
BRANCH   1  19
HETATM   19  C13 UNL     1      24.583   4.405  49.293  1.00  0.00     0.141 A 
HETATM   20  N2  UNL     1      23.557   3.818  48.652  1.00  0.00    -0.224 NA
HETATM   21  C14 UNL     1      22.547   4.567  48.111  1.00  0.00     0.236 A 
HETATM   22  N3  UNL     1      22.578   5.921  48.220  1.00  0.00    -0.241 NA
HETATM   23  C15 UNL     1      23.595   6.549  48.859  1.00  0.00     0.072 A 
HETATM   24  C16 UNL     1      23.645   7.942  48.975  1.00  0.00     0.035 A 
HETATM   25  C21 UNL     1      24.605   5.778  49.398  1.00  0.00     0.041 A 
HETATM   26  C17 UNL     1      24.720   8.533  49.638  1.00  0.00     0.032 A 
HETATM   27  C18 UNL     1      25.704   7.706  50.158  1.00  0.00     0.037 A 
HETATM   28  C20 UNL     1      25.684   6.331  50.060  1.00  0.00     0.047 A 
BRANCH  27  29
HETATM   29  N4  UNL     1      26.732   8.485  50.803  1.00  0.00    -0.309 N 
HETATM   30  C19 UNL     1      27.723   8.812  49.838  1.00  0.00     0.318 C 
HETATM   31  N5  UNL     1      28.909   9.568  50.046  1.00  0.00    -0.352 N 
HETATM   32  O1  UNL     1      27.566   8.402  48.648  1.00  0.00    -0.247 OA
HETATM   33  H13 UNL     1      29.484  10.350  50.422  1.00  0.00     0.160 HD
HETATM   34  H14 UNL     1      29.795   9.251  49.620  1.00  0.00     0.160 HD
HETATM   35  H12 UNL     1      26.925   8.849  51.753  1.00  0.00     0.170 HD
ENDBRANCH  27  29
ENDBRANCH   1  19
TORSDOF 5
ENDMDL
MODEL 4
REMARK VINA RESULT:      -9.4      2.744      4.213
REMARK  5 active torsions:
REMARK  status: ('A' for Active; 'I' for Inactive)
REMARK    1  A    between atoms: C2_2  and  C3_4 
REMARK    2  A    between atoms: C4_5  and  C5_6 
REMARK    3  A    between atoms: C12_14  and  N1_15 
REMARK    4  A    between atoms: N1_15  and  C13_16 
REMARK    5  A    between atoms: C18_23  and  N4_24 
REMARK       I    between atoms: N4_24  and  C19_25 
REMARK       I    between atoms: C19_25  and  N5_26 
ROOT
HETATM    1  N1  UNL     1      22.786   2.803  49.755  1.00  0.00    -0.342 N 
HETATM    2  H8  UNL     1      23.349   2.442  48.979  1.00  0.00     0.167 HD
ENDROOT
BRANCH   1   3
HETATM    3  C12 UNL     1      22.956   1.957  50.882  1.00  0.00     0.036 A 
HETATM    4  C11 UNL     1      24.145   1.685  51.364  1.00  0.00     0.042 A 
HETATM    5  C4  UNL     1      24.435   0.835  52.507  1.00  0.00     0.011 A 
HETATM    6  C3  UNL     1      23.340   0.348  53.024  1.00  0.00     0.096 A 
HETATM    7  O2  UNL     1      22.054   0.547  52.625  1.00  0.00    -0.343 OA
HETATM    8  C22 UNL     1      21.759   1.381  51.522  1.00  0.00     0.232 A 
BRANCH   5   9
HETATM    9  C5  UNL     1      25.851   0.715  52.807  1.00  0.00    -0.020 A 
HETATM   10  C6  UNL     1      26.566  -0.464  52.704  1.00  0.00     0.012 A 
HETATM   11  C7  UNL     1      27.896  -0.623  53.008  1.00  0.00     0.004 A 
HETATM   12  C8  UNL     1      28.572   0.514  53.460  1.00  0.00     0.042 A 
HETATM   13  C9  UNL     1      27.866   1.700  53.568  1.00  0.00     0.117 A 
HETATM   14  F1  UNL     1      28.640   2.733  54.020  1.00  0.00    -0.206 F 
HETATM   15  C10 UNL     1      26.540   1.840  53.259  1.00  0.00     0.054 A 
ENDBRANCH   5   9
BRANCH   6  16
HETATM   16  C2  UNL     1      23.413  -0.529  54.181  1.00  0.00     0.021 C 
HETATM   17  C1  UNL     1      23.015  -1.326  55.140  1.00  0.00     0.230 C 
HETATM   18 CL1  UNL     1      24.583  -1.102  55.369  1.00  0.00    -0.230 Cl
ENDBRANCH   6  16
ENDBRANCH   1   3
BRANCH   1  19
HETATM   19  C13 UNL     1      21.936   3.936  49.848  1.00  0.00     0.141 A 
HETATM   20  N2  UNL     1      20.626   3.747  49.614  1.00  0.00    -0.224 NA
HETATM   21  C14 UNL     1      19.744   4.791  49.679  1.00  0.00     0.236 A 
HETATM   22  N3  UNL     1      20.193   6.037  49.983  1.00  0.00    -0.241 NA
HETATM   23  C15 UNL     1      21.507   6.267  50.226  1.00  0.00     0.072 A 
HETATM   24  C16 UNL     1      21.987   7.544  50.535  1.00  0.00     0.035 A 
HETATM   25  C21 UNL     1      22.382   5.203  50.155  1.00  0.00     0.041 A 
HETATM   26  C17 UNL     1      23.350   7.723  50.768  1.00  0.00     0.032 A 
HETATM   27  C18 UNL     1      24.179   6.615  50.682  1.00  0.00     0.037 A 
HETATM   28  C20 UNL     1      23.738   5.344  50.380  1.00  0.00     0.047 A 
BRANCH  27  29
HETATM   29  N4  UNL     1      25.547   6.984  50.951  1.00  0.00    -0.309 N 
HETATM   30  C19 UNL     1      26.190   7.266  49.714  1.00  0.00     0.318 C 
HETATM   31  N5  UNL     1      27.539   7.668  49.519  1.00  0.00    -0.352 N 
HETATM   32  O1  UNL     1      25.515   7.160  48.645  1.00  0.00    -0.247 OA
HETATM   33  H13 UNL     1      28.410   8.201  49.718  1.00  0.00     0.160 HD
HETATM   34  H14 UNL     1      28.087   7.251  48.749  1.00  0.00     0.160 HD
HETATM   35  H12 UNL     1      26.157   7.089  51.781  1.00  0.00     0.170 HD
ENDBRANCH  27  29
ENDBRANCH   1  19
TORSDOF 5
ENDMDL
MODEL 5
REMARK VINA RESULT:      -9.2      3.720      7.401
REMARK  5 active torsions:
REMARK  status: ('A' for Active; 'I' for Inactive)
REMARK    1  A    between atoms: C2_2  and  C3_4 
REMARK    2  A    between atoms: C4_5  and  C5_6 
REMARK    3  A    between atoms: C12_14  and  N1_15 
REMARK    4  A    between atoms: N1_15  and  C13_16 
REMARK    5  A    between atoms: C18_23  and  N4_24 
REMARK       I    between atoms: N4_24  and  C19_25 
REMARK       I    between atoms: C19_25  and  N5_26 
ROOT
HETATM    1  N1  UNL     1      23.674   4.624  52.209  1.00  0.00    -0.342 N 
HETATM    2  H8  UNL     1      23.909   5.204  53.020  1.00  0.00     0.167 HD
ENDROOT
BRANCH   1   3
HETATM    3  C12 UNL     1      23.789   5.408  51.031  1.00  0.00     0.036 A 
HETATM    4  C11 UNL     1      24.955   5.677  50.495  1.00  0.00     0.042 A 
HETATM    5  C4  UNL     1      25.189   6.467  49.297  1.00  0.00     0.011 A 
HETATM    6  C3  UNL     1      24.068   6.901  48.791  1.00  0.00     0.096 A 
HETATM    7  O2  UNL     1      22.800   6.698  49.243  1.00  0.00    -0.343 OA
HETATM    8  C22 UNL     1      22.559   5.922  50.400  1.00  0.00     0.232 A 
BRANCH   5   9
HETATM    9  C5  UNL     1      26.592   6.599  48.944  1.00  0.00    -0.020 A 
HETATM   10  C6  UNL     1      27.271   7.803  48.913  1.00  0.00     0.012 A 
HETATM   11  C7  UNL     1      28.586   7.971  48.554  1.00  0.00     0.004 A 
HETATM   12  C8  UNL     1      29.286   6.816  48.192  1.00  0.00     0.042 A 
HETATM   13  C9  UNL     1      28.616   5.604  48.220  1.00  0.00     0.117 A 
HETATM   14  F1  UNL     1      29.410   4.557  47.845  1.00  0.00    -0.206 F 
HETATM   15  C10 UNL     1      27.304   5.456  48.581  1.00  0.00     0.054 A 
ENDBRANCH   5   9
BRANCH   6  16
HETATM   16  C2  UNL     1      24.084   7.712  47.585  1.00  0.00     0.021 C 
HETATM   17  C1  UNL     1      24.259   8.754  46.813  1.00  0.00     0.230 C 
HETATM   18 CL1  UNL     1      23.585   7.630  45.897  1.00  0.00    -0.230 Cl
ENDBRANCH   6  16
ENDBRANCH   1   3
BRANCH   1  19
HETATM   19  C13 UNL     1      23.286   3.262  52.113  1.00  0.00     0.141 A 
HETATM   20  N2  UNL     1      22.133   2.992  51.477  1.00  0.00    -0.224 NA
HETATM   21  C14 UNL     1      21.689   1.704  51.347  1.00  0.00     0.236 A 
HETATM   22  N3  UNL     1      22.419   0.682  51.866  1.00  0.00    -0.241 NA
HETATM   23  C15 UNL     1      23.587   0.915  52.513  1.00  0.00     0.072 A 
HETATM   24  C16 UNL     1      24.348  -0.125  53.058  1.00  0.00     0.035 A 
HETATM   25  C21 UNL     1      24.020   2.220  52.635  1.00  0.00     0.041 A 
HETATM   26  C17 UNL     1      25.539   0.175  53.719  1.00  0.00     0.032 A 
HETATM   27  C18 UNL     1      25.920   1.505  53.809  1.00  0.00     0.037 A 
HETATM   28  C20 UNL     1      25.193   2.552  53.284  1.00  0.00     0.047 A 
BRANCH  27  29
HETATM   29  N4  UNL     1      27.168   1.627  54.522  1.00  0.00    -0.309 N 
HETATM   30  C19 UNL     1      28.177   2.022  53.603  1.00  0.00     0.318 C 
HETATM   31  N5  UNL     1      29.551   2.257  53.883  1.00  0.00    -0.352 N 
HETATM   32  O1  UNL     1      27.854   2.194  52.388  1.00  0.00    -0.247 OA
HETATM   33  H13 UNL     1      30.362   2.621  54.424  1.00  0.00     0.160 HD
HETATM   34  H14 UNL     1      30.270   1.903  53.231  1.00  0.00     0.160 HD
HETATM   35  H12 UNL     1      27.502   1.504  55.494  1.00  0.00     0.170 HD
ENDBRANCH  27  29
ENDBRANCH   1  19
TORSDOF 5
ENDMDL
MODEL 6
REMARK VINA RESULT:      -9.1      3.837      7.337
REMARK  5 active torsions:
REMARK  status: ('A' for Active; 'I' for Inactive)
REMARK    1  A    between atoms: C2_2  and  C3_4 
REMARK    2  A    between atoms: C4_5  and  C5_6 
REMARK    3  A    between atoms: C12_14  and  N1_15 
REMARK    4  A    between atoms: N1_15  and  C13_16 
REMARK    5  A    between atoms: C18_23  and  N4_24 
REMARK       I    between atoms: N4_24  and  C19_25 
REMARK       I    between atoms: C19_25  and  N5_26 
ROOT
HETATM    1  N1  UNL     1      23.024   3.219  52.649  1.00  0.00    -0.342 N 
HETATM    2  H8  UNL     1      23.063   3.996  53.316  1.00  0.00     0.167 HD
ENDROOT
BRANCH   1   3
HETATM    3  C12 UNL     1      22.917   3.742  51.335  1.00  0.00     0.036 A 
HETATM    4  C11 UNL     1      23.921   4.356  50.755  1.00  0.00     0.042 A 
HETATM    5  C4  UNL     1      23.923   4.930  49.419  1.00  0.00     0.011 A 
HETATM    6  C3  UNL     1      22.769   4.765  48.833  1.00  0.00     0.096 A 
HETATM    7  O2  UNL     1      21.653   4.154  49.317  1.00  0.00    -0.343 OA
HETATM    8  C22 UNL     1      21.643   3.582  50.610  1.00  0.00     0.232 A 
BRANCH   5   9
HETATM    9  C5  UNL     1      25.182   5.552  49.047  1.00  0.00    -0.020 A 
HETATM   10  C6  UNL     1      25.332   6.904  48.798  1.00  0.00     0.012 A 
HETATM   11  C7  UNL     1      26.496   7.522  48.414  1.00  0.00     0.004 A 
HETATM   12  C8  UNL     1      27.619   6.701  48.266  1.00  0.00     0.042 A 
HETATM   13  C9  UNL     1      27.480   5.346  48.513  1.00  0.00     0.117 A 
HETATM   14  F1  UNL     1      28.647   4.657  48.333  1.00  0.00    -0.206 F 
HETATM   15  C10 UNL     1      26.310   4.747  48.896  1.00  0.00     0.054 A 
ENDBRANCH   5   9
BRANCH   6  16
HETATM   16  C2  UNL     1      22.563   5.268  47.485  1.00  0.00     0.021 C 
HETATM   17  C1  UNL     1      22.250   5.270  46.214  1.00  0.00     0.230 C 
HETATM   18 CL1  UNL     1      22.830   6.727  46.533  1.00  0.00    -0.230 Cl
ENDBRANCH   6  16
ENDBRANCH   1   3
BRANCH   1  19
HETATM   19  C13 UNL     1      23.063   1.814  52.846  1.00  0.00     0.141 A 
HETATM   20  N2  UNL     1      21.888   1.179  52.998  1.00  0.00    -0.224 NA
HETATM   21  C14 UNL     1      21.842  -0.174  53.197  1.00  0.00     0.236 A 
HETATM   22  N3  UNL     1      22.996  -0.890  53.243  1.00  0.00    -0.241 NA
HETATM   23  C15 UNL     1      24.200  -0.285  53.093  1.00  0.00     0.072 A 
HETATM   24  C16 UNL     1      25.398  -1.006  53.142  1.00  0.00     0.035 A 
HETATM   25  C21 UNL     1      24.228   1.080  52.893  1.00  0.00     0.041 A 
HETATM   26  C17 UNL     1      26.608  -0.329  52.988  1.00  0.00     0.032 A 
HETATM   27  C18 UNL     1      26.570   1.042  52.790  1.00  0.00     0.037 A 
HETATM   28  C20 UNL     1      25.408   1.781  52.737  1.00  0.00     0.047 A 
BRANCH  27  29
HETATM   29  N4  UNL     1      27.905   1.571  52.653  1.00  0.00    -0.309 N 
HETATM   30  C19 UNL     1      28.505   1.624  53.941  1.00  0.00     0.318 C 
HETATM   31  N5  UNL     1      29.813   2.079  54.263  1.00  0.00    -0.352 N 
HETATM   32  O1  UNL     1      27.828   1.228  54.939  1.00  0.00    -0.247 OA
HETATM   33  H13 UNL     1      30.841   2.179  54.140  1.00  0.00     0.160 HD
HETATM   34  H14 UNL     1      29.953   2.676  55.093  1.00  0.00     0.160 HD
HETATM   35  H12 UNL     1      28.512   1.911  51.887  1.00  0.00     0.170 HD
ENDBRANCH  27  29
ENDBRANCH   1  19
TORSDOF 5
ENDMDL
MODEL 7
REMARK VINA RESULT:      -8.9      3.644      7.399
REMARK  5 active torsions:
REMARK  status: ('A' for Active; 'I' for Inactive)
REMARK    1  A    between atoms: C2_2  and  C3_4 
REMARK    2  A    between atoms: C4_5  and  C5_6 
REMARK    3  A    between atoms: C12_14  and  N1_15 
REMARK    4  A    between atoms: N1_15  and  C13_16 
REMARK    5  A    between atoms: C18_23  and  N4_24 
REMARK       I    between atoms: N4_24  and  C19_25 
REMARK       I    between atoms: C19_25  and  N5_26 
ROOT
HETATM    1  N1  UNL     1      25.333   3.118  49.405  1.00  0.00    -0.342 N 
HETATM    2  H8  UNL     1      25.846   2.686  48.630  1.00  0.00     0.167 HD
ENDROOT
BRANCH   1   3
HETATM    3  C12 UNL     1      25.663   4.496  49.465  1.00  0.00     0.036 A 
HETATM    4  C11 UNL     1      26.723   4.977  48.860  1.00  0.00     0.042 A 
HETATM    5  C4  UNL     1      27.156   6.365  48.856  1.00  0.00     0.011 A 
HETATM    6  C3  UNL     1      26.344   7.115  49.550  1.00  0.00     0.096 A 
HETATM    7  O2  UNL     1      25.219   6.748  50.222  1.00  0.00    -0.343 OA
HETATM    8  C22 UNL     1      24.782   5.403  50.224  1.00  0.00     0.232 A 
BRANCH   5   9
HETATM    9  C5  UNL     1      28.374   6.599  48.101  1.00  0.00    -0.020 A 
HETATM   10  C6  UNL     1      28.495   7.551  47.104  1.00  0.00     0.012 A 
HETATM   11  C7  UNL     1      29.618   7.780  46.348  1.00  0.00     0.004 A 
HETATM   12  C8  UNL     1      30.728   6.973  46.620  1.00  0.00     0.042 A 
HETATM   13  C9  UNL     1      30.618   6.017  47.615  1.00  0.00     0.117 A 
HETATM   14  F1  UNL     1      31.769   5.298  47.781  1.00  0.00    -0.206 F 
HETATM   15  C10 UNL     1      29.489   5.803  48.360  1.00  0.00     0.054 A 
ENDBRANCH   5   9
BRANCH   6  16
HETATM   16  C2  UNL     1      26.599   8.541  49.669  1.00  0.00     0.021 C 
HETATM   17  C1  UNL     1      26.392   9.831  49.599  1.00  0.00     0.230 C 
HETATM   18 CL1  UNL     1      27.908   9.648  50.077  1.00  0.00    -0.230 Cl
ENDBRANCH   6  16
ENDBRANCH   1   3
BRANCH   1  19
HETATM   19  C13 UNL     1      24.417   2.572  50.342  1.00  0.00     0.141 A 
HETATM   20  N2  UNL     1      23.110   2.818  50.142  1.00  0.00    -0.224 NA
HETATM   21  C14 UNL     1      22.165   2.331  51.003  1.00  0.00     0.236 A 
HETATM   22  N3  UNL     1      22.547   1.589  52.076  1.00  0.00    -0.241 NA
HETATM   23  C15 UNL     1      23.855   1.320  52.311  1.00  0.00     0.072 A 
HETATM   24  C16 UNL     1      24.266   0.563  53.413  1.00  0.00     0.035 A 
HETATM   25  C21 UNL     1      24.794   1.820  51.432  1.00  0.00     0.041 A 
HETATM   26  C17 UNL     1      25.626   0.324  53.608  1.00  0.00     0.032 A 
HETATM   27  C18 UNL     1      26.521   0.853  52.690  1.00  0.00     0.037 A 
HETATM   28  C20 UNL     1      26.149   1.602  51.595  1.00  0.00     0.047 A 
BRANCH  27  29
HETATM   29  N4  UNL     1      27.875   0.508  53.048  1.00  0.00    -0.309 N 
HETATM   30  C19 UNL     1      28.438   1.590  53.779  1.00  0.00     0.318 C 
HETATM   31  N5  UNL     1      29.749   1.670  54.323  1.00  0.00    -0.352 N 
HETATM   32  O1  UNL     1      27.720   2.614  53.991  1.00  0.00    -0.247 OA
HETATM   33  H13 UNL     1      30.594   1.322  54.821  1.00  0.00     0.160 HD
HETATM   34  H14 UNL     1      30.283   2.549  54.233  1.00  0.00     0.160 HD
HETATM   35  H12 UNL     1      28.516  -0.293  52.911  1.00  0.00     0.170 HD
ENDBRANCH  27  29
ENDBRANCH   1  19
TORSDOF 5
ENDMDL
MODEL 8
REMARK VINA RESULT:      -8.7      3.777      7.353
REMARK  5 active torsions:
REMARK  status: ('A' for Active; 'I' for Inactive)
REMARK    1  A    between atoms: C2_2  and  C3_4 
REMARK    2  A    between atoms: C4_5  and  C5_6 
REMARK    3  A    between atoms: C12_14  and  N1_15 
REMARK    4  A    between atoms: N1_15  and  C13_16 
REMARK    5  A    between atoms: C18_23  and  N4_24 
REMARK       I    between atoms: N4_24  and  C19_25 
REMARK       I    between atoms: C19_25  and  N5_26 
ROOT
HETATM    1  N1  UNL     1      26.496   4.042  48.934  1.00  0.00    -0.342 N 
HETATM    2  H8  UNL     1      26.772   3.280  48.308  1.00  0.00     0.167 HD
ENDROOT
BRANCH   1   3
HETATM    3  C12 UNL     1      27.327   5.166  48.688  1.00  0.00     0.036 A 
HETATM    4  C11 UNL     1      28.626   5.044  48.549  1.00  0.00     0.042 A 
HETATM    5  C4  UNL     1      29.569   6.120  48.297  1.00  0.00     0.011 A 
HETATM    6  C3  UNL     1      28.962   7.273  48.223  1.00  0.00     0.096 A 
HETATM    7  O2  UNL     1      27.633   7.539  48.348  1.00  0.00    -0.343 OA
HETATM    8  C22 UNL     1      26.704   6.498  48.582  1.00  0.00     0.232 A 
BRANCH   5   9
HETATM    9  C5  UNL     1      30.950   5.681  48.194  1.00  0.00    -0.020 A 
HETATM   10  C6  UNL     1      31.990   6.221  48.929  1.00  0.00     0.012 A 
HETATM   11  C7  UNL     1      33.310   5.855  48.836  1.00  0.00     0.004 A 
HETATM   12  C8  UNL     1      33.614   4.848  47.913  1.00  0.00     0.042 A 
HETATM   13  C9  UNL     1      32.581   4.301  47.171  1.00  0.00     0.117 A 
HETATM   14  F1  UNL     1      33.011   3.331  46.309  1.00  0.00    -0.206 F 
HETATM   15  C10 UNL     1      31.270   4.679  47.279  1.00  0.00     0.054 A 
ENDBRANCH   5   9
BRANCH   6  16
HETATM   16  C2  UNL     1      29.729   8.481  47.973  1.00  0.00     0.021 C 
HETATM   17  C1  UNL     1      30.291   9.459  47.309  1.00  0.00     0.230 C 
HETATM   18 CL1  UNL     1      30.751   9.633  48.832  1.00  0.00    -0.230 Cl
ENDBRANCH   6  16
ENDBRANCH   1   3
BRANCH   1  19
HETATM   19  C13 UNL     1      25.483   4.121  49.924  1.00  0.00     0.141 A 
HETATM   20  N2  UNL     1      24.465   4.970  49.700  1.00  0.00    -0.224 NA
HETATM   21  C14 UNL     1      23.451   5.106  50.609  1.00  0.00     0.236 A 
HETATM   22  N3  UNL     1      23.469   4.376  51.756  1.00  0.00    -0.241 NA
HETATM   23  C15 UNL     1      24.479   3.509  52.017  1.00  0.00     0.072 A 
HETATM   24  C16 UNL     1      24.516   2.755  53.194  1.00  0.00     0.035 A 
HETATM   25  C21 UNL     1      25.492   3.385  51.089  1.00  0.00     0.041 A 
HETATM   26  C17 UNL     1      25.583   1.884  53.413  1.00  0.00     0.032 A 
HETATM   27  C18 UNL     1      26.571   1.803  52.443  1.00  0.00     0.037 A 
HETATM   28  C20 UNL     1      26.564   2.533  51.274  1.00  0.00     0.047 A 
BRANCH  27  29
HETATM   29  N4  UNL     1      27.589   0.860  52.835  1.00  0.00    -0.309 N 
HETATM   30  C19 UNL     1      28.561   1.543  53.615  1.00  0.00     0.318 C 
HETATM   31  N5  UNL     1      29.733   0.993  54.204  1.00  0.00    -0.352 N 
HETATM   32  O1  UNL     1      28.399   2.782  53.832  1.00  0.00    -0.247 OA
HETATM   33  H13 UNL     1      30.295   0.284  54.718  1.00  0.00     0.160 HD
HETATM   34  H14 UNL     1      30.620   1.519  54.156  1.00  0.00     0.160 HD
HETATM   35  H12 UNL     1      27.785  -0.147  52.696  1.00  0.00     0.170 HD
ENDBRANCH  27  29
ENDBRANCH   1  19
TORSDOF 5
ENDMDL
MODEL 9
REMARK VINA RESULT:      -8.6      4.245      7.664
REMARK  5 active torsions:
REMARK  status: ('A' for Active; 'I' for Inactive)
REMARK    1  A    between atoms: C2_2  and  C3_4 
REMARK    2  A    between atoms: C4_5  and  C5_6 
REMARK    3  A    between atoms: C12_14  and  N1_15 
REMARK    4  A    between atoms: N1_15  and  C13_16 
REMARK    5  A    between atoms: C18_23  and  N4_24 
REMARK       I    between atoms: N4_24  and  C19_25 
REMARK       I    between atoms: C19_25  and  N5_26 
ROOT
HETATM    1  N1  UNL     1      21.228   2.798  52.514  1.00  0.00    -0.342 N 
HETATM    2  H8  UNL     1      20.958   3.622  53.060  1.00  0.00     0.167 HD
ENDROOT
BRANCH   1   3
HETATM    3  C12 UNL     1      21.409   3.181  51.160  1.00  0.00     0.036 A 
HETATM    4  C11 UNL     1      22.569   3.602  50.713  1.00  0.00     0.042 A 
HETATM    5  C4  UNL     1      22.867   4.020  49.353  1.00  0.00     0.011 A 
HETATM    6  C3  UNL     1      21.812   3.930  48.590  1.00  0.00     0.096 A 
HETATM    7  O2  UNL     1      20.560   3.515  48.922  1.00  0.00    -0.343 OA
HETATM    8  C22 UNL     1      20.261   3.095  50.239  1.00  0.00     0.232 A 
BRANCH   5   9
HETATM    9  C5  UNL     1      24.243   4.441  49.155  1.00  0.00    -0.020 A 
HETATM   10  C6  UNL     1      25.341   3.654  49.448  1.00  0.00     0.012 A 
HETATM   11  C7  UNL     1      26.655   4.028  49.305  1.00  0.00     0.004 A 
HETATM   12  C8  UNL     1      26.886   5.319  48.819  1.00  0.00     0.042 A 
HETATM   13  C9  UNL     1      25.793   6.116  48.523  1.00  0.00     0.117 A 
HETATM   14  F1  UNL     1      26.154   7.350  48.059  1.00  0.00    -0.206 F 
HETATM   15  C10 UNL     1      24.490   5.725  48.672  1.00  0.00     0.054 A 
ENDBRANCH   5   9
BRANCH   6  16
HETATM   16  C2  UNL     1      21.900   4.301  47.187  1.00  0.00     0.021 C 
HETATM   17  C1  UNL     1      21.853   5.048  46.113  1.00  0.00     0.230 C 
HETATM   18 CL1  UNL     1      22.152   3.559  45.608  1.00  0.00    -0.230 Cl
ENDBRANCH   6  16
ENDBRANCH   1   3
BRANCH   1  19
HETATM   19  C13 UNL     1      21.429   1.446  52.895  1.00  0.00     0.141 A 
HETATM   20  N2  UNL     1      20.340   0.722  53.203  1.00  0.00    -0.224 NA
HETATM   21  C14 UNL     1      20.452  -0.587  53.585  1.00  0.00     0.236 A 
HETATM   22  N3  UNL     1      21.679  -1.167  53.656  1.00  0.00    -0.241 NA
HETATM   23  C15 UNL     1      22.801  -0.469  53.353  1.00  0.00     0.072 A 
HETATM   24  C16 UNL     1      24.072  -1.049  53.427  1.00  0.00     0.035 A 
HETATM   25  C21 UNL     1      22.669   0.850  52.970  1.00  0.00     0.041 A 
HETATM   26  C17 UNL     1      25.192  -0.280  53.110  1.00  0.00     0.032 A 
HETATM   27  C18 UNL     1      24.994   1.039  52.732  1.00  0.00     0.037 A 
HETATM   28  C20 UNL     1      23.757   1.639  52.650  1.00  0.00     0.047 A 
BRANCH  27  29
HETATM   29  N4  UNL     1      26.255   1.678  52.444  1.00  0.00    -0.309 N 
HETATM   30  C19 UNL     1      26.881   2.016  53.675  1.00  0.00     0.318 C 
HETATM   31  N5  UNL     1      28.137   2.659  53.852  1.00  0.00    -0.352 N 
HETATM   32  O1  UNL     1      26.284   1.728  54.756  1.00  0.00    -0.247 OA
HETATM   33  H13 UNL     1      29.143   2.846  53.666  1.00  0.00     0.160 HD
HETATM   34  H14 UNL     1      28.231   3.402  54.563  1.00  0.00     0.160 HD
HETATM   35  H12 UNL     1      26.797   1.943  51.603  1.00  0.00     0.170 HD
ENDBRANCH  27  29
ENDBRANCH   1  19
TORSDOF 5
ENDMDL
