MODEL 1
REMARK VINA RESULT:      -7.9      0.000      0.000
REMARK  2 active torsions:
REMARK  status: ('A' for Active; 'I' for Inactive)
REMARK    1  A    between atoms: O1_2  and  C2_3 
REMARK    2  A    between atoms: C2_3  and  C3_5 
ROOT
HETATM    1  C3  UNL     1      26.538   0.856  54.807  1.00  0.00     0.163 C 
HETATM    2  C4  UNL     1      25.573  -0.335  54.646  1.00  0.00     0.161 A 
HETATM    3  C5  UNL     1      25.909  -1.160  53.584  1.00  0.00     0.197 C 
HETATM    4  O3  UNL     1      26.570  -0.849  52.344  1.00  0.00    -0.375 OA
HETATM    5  C6  UNL     1      26.197   0.263  51.496  1.00  0.00     0.208 C 
HETATM    6  C7  UNL     1      25.925   1.441  52.387  1.00  0.00    -0.021 A 
HETATM    7  C8  UNL     1      25.396   2.671  52.115  1.00  0.00    -0.043 A 
HETATM    8  C9  UNL     1      24.827   3.317  50.898  1.00  0.00     0.063 C 
HETATM    9  C10 UNL     1      23.650   2.567  50.735  1.00  0.00     0.004 C 
HETATM   10  C11 UNL     1      22.645   1.496  51.076  1.00  0.00    -0.026 C 
HETATM   11  C12 UNL     1      22.660   0.605  52.023  1.00  0.00    -0.004 C 
HETATM   12  C13 UNL     1      22.909  -0.271  53.129  1.00  0.00     0.002 C 
HETATM   13  C14 UNL     1      23.188  -1.027  54.128  1.00  0.00     0.035 C 
HETATM   14  C15 UNL     1      24.350  -1.150  55.036  1.00  0.00     0.087 A 
HETATM   15  O4  UNL     1      25.216  -1.359  55.866  1.00  0.00    -0.330 OA
HETATM   16  C16 UNL     1      25.640   3.037  53.561  1.00  0.00     0.017 A 
HETATM   17  C17 UNL     1      26.103   1.851  53.761  1.00  0.00    -0.032 A 
ENDROOT
BRANCH   1  18
HETATM   18  C2  UNL     1      27.908   0.454  54.757  1.00  0.00     0.270 C 
HETATM   19  O2  UNL     1      28.748   1.422  54.716  1.00  0.00    -0.264 OA
BRANCH  18  20
HETATM   20  O1  UNL     1      28.799  -0.567  54.734  1.00  0.00    -0.326 OA
HETATM   21  C1  UNL     1      29.779  -0.878  53.787  1.00  0.00     0.213 C 
ENDBRANCH  18  20
ENDBRANCH   1  18
TORSDOF 2
ENDMDL
MODEL 2
REMARK VINA RESULT:      -7.7      2.575      5.040
REMARK  2 active torsions:
REMARK  status: ('A' for Active; 'I' for Inactive)
REMARK    1  A    between atoms: O1_2  and  C2_3 
REMARK    2  A    between atoms: C2_3  and  C3_5 
ROOT
HETATM    1  C3  UNL     1      22.810   0.924  51.794  1.00  0.00     0.163 C 
HETATM    2  C4  UNL     1      24.255   0.949  52.332  1.00  0.00     0.161 A 
HETATM    3  C5  UNL     1      24.474   1.974  53.240  1.00  0.00     0.197 C 
HETATM    4  O3  UNL     1      23.856   3.269  53.339  1.00  0.00    -0.375 OA
HETATM    5  C6  UNL     1      23.687   4.163  52.214  1.00  0.00     0.208 C 
HETATM    6  C7  UNL     1      23.250   3.336  51.039  1.00  0.00    -0.021 A 
HETATM    7  C8  UNL     1      23.107   3.654  49.718  1.00  0.00    -0.043 A 
HETATM    8  C9  UNL     1      23.375   4.873  48.903  1.00  0.00     0.063 C 
HETATM    9  C10 UNL     1      24.777   4.915  48.954  1.00  0.00     0.004 C 
HETATM   10  C11 UNL     1      26.152   4.443  49.357  1.00  0.00    -0.026 C 
HETATM   11  C12 UNL     1      26.507   3.443  50.108  1.00  0.00    -0.004 C 
HETATM   12  C13 UNL     1      26.641   2.300  50.961  1.00  0.00     0.002 C 
HETATM   13  C14 UNL     1      26.697   1.273  51.729  1.00  0.00     0.035 C 
HETATM   14  C15 UNL     1      25.683   0.431  52.402  1.00  0.00     0.087 A 
HETATM   15  O4  UNL     1      24.973  -0.355  53.003  1.00  0.00    -0.330 OA
HETATM   16  C16 UNL     1      22.588   2.252  49.492  1.00  0.00     0.017 A 
HETATM   17  C17 UNL     1      22.772   2.004  50.743  1.00  0.00    -0.032 A 
ENDROOT
BRANCH   1  18
HETATM   18  C2  UNL     1      21.841   1.032  52.838  1.00  0.00     0.270 C 
HETATM   19  O2  UNL     1      20.830   1.768  52.554  1.00  0.00    -0.264 OA
BRANCH  18  20
HETATM   20  O1  UNL     1      21.470   0.682  54.093  1.00  0.00    -0.326 OA
HETATM   21  C1  UNL     1      21.527  -0.562  54.729  1.00  0.00     0.213 C 
ENDBRANCH  18  20
ENDBRANCH   1  18
TORSDOF 2
ENDMDL
MODEL 3
REMARK VINA RESULT:      -7.2      3.069      5.450
REMARK  2 active torsions:
REMARK  status: ('A' for Active; 'I' for Inactive)
REMARK    1  A    between atoms: O1_2  and  C2_3 
REMARK    2  A    between atoms: C2_3  and  C3_5 
ROOT
HETATM    1  C3  UNL     1      24.694   3.007  50.033  1.00  0.00     0.163 C 
HETATM    2  C4  UNL     1      23.264   2.546  50.381  1.00  0.00     0.161 A 
HETATM    3  C5  UNL     1      22.715   3.249  51.442  1.00  0.00     0.197 C 
HETATM    4  O3  UNL     1      23.356   3.869  52.572  1.00  0.00    -0.375 OA
HETATM    5  C6  UNL     1      24.348   3.207  53.390  1.00  0.00     0.208 C 
HETATM    6  C7  UNL     1      25.266   2.453  52.471  1.00  0.00    -0.021 A 
HETATM    7  C8  UNL     1      26.257   1.550  52.730  1.00  0.00    -0.043 A 
HETATM    8  C9  UNL     1      26.783   0.905  53.967  1.00  0.00     0.063 C 
HETATM    9  C10 UNL     1      25.694   0.091  54.316  1.00  0.00     0.004 C 
HETATM   10  C11 UNL     1      24.313  -0.496  54.164  1.00  0.00    -0.026 C 
HETATM   11  C12 UNL     1      23.393  -0.254  53.277  1.00  0.00    -0.004 C 
HETATM   12  C13 UNL     1      22.553   0.185  52.204  1.00  0.00     0.002 C 
HETATM   13  C14 UNL     1      21.845   0.620  51.225  1.00  0.00     0.035 C 
HETATM   14  C15 UNL     1      22.043   1.660  50.191  1.00  0.00     0.087 A 
HETATM   15  O4  UNL     1      22.065   2.464  49.276  1.00  0.00    -0.330 OA
HETATM   16  C16 UNL     1      26.541   1.514  51.246  1.00  0.00     0.017 A 
HETATM   17  C17 UNL     1      25.574   2.347  51.063  1.00  0.00    -0.032 A 
ENDROOT
BRANCH   1  18
HETATM   18  C2  UNL     1      24.797   4.429  49.940  1.00  0.00     0.270 C 
HETATM   19  O2  UNL     1      24.294   4.933  48.874  1.00  0.00    -0.264 OA
BRANCH  18  20
HETATM   20  O1  UNL     1      25.215   5.584  50.512  1.00  0.00    -0.326 OA
HETATM   21  C1  UNL     1      24.495   6.742  50.819  1.00  0.00     0.213 C 
ENDBRANCH  18  20
ENDBRANCH   1  18
TORSDOF 2
ENDMDL
MODEL 4
REMARK VINA RESULT:      -7.0      4.212      6.865
REMARK  2 active torsions:
REMARK  status: ('A' for Active; 'I' for Inactive)
REMARK    1  A    between atoms: O1_2  and  C2_3 
REMARK    2  A    between atoms: C2_3  and  C3_5 
ROOT
HETATM    1  C3  UNL     1      19.660   0.442  51.033  1.00  0.00     0.163 C 
HETATM    2  C4  UNL     1      20.303   0.327  52.430  1.00  0.00     0.161 A 
HETATM    3  C5  UNL     1      20.256   1.515  53.144  1.00  0.00     0.197 C 
HETATM    4  O3  UNL     1      20.260   2.876  52.676  1.00  0.00    -0.375 OA
HETATM    5  C6  UNL     1      21.195   3.382  51.695  1.00  0.00     0.208 C 
HETATM    6  C7  UNL     1      21.338   2.339  50.624  1.00  0.00    -0.021 A 
HETATM    7  C8  UNL     1      22.200   2.245  49.568  1.00  0.00    -0.043 A 
HETATM    8  C9  UNL     1      23.355   3.058  49.089  1.00  0.00     0.063 C 
HETATM    9  C10 UNL     1      24.285   2.813  50.111  1.00  0.00     0.004 C 
HETATM   10  C11 UNL     1      24.781   2.212  51.403  1.00  0.00    -0.026 C 
HETATM   11  C12 UNL     1      24.170   1.449  52.260  1.00  0.00    -0.004 C 
HETATM   12  C13 UNL     1      23.291   0.634  53.044  1.00  0.00     0.002 C 
HETATM   13  C14 UNL     1      22.457  -0.085  53.704  1.00  0.00     0.035 C 
HETATM   14  C15 UNL     1      21.030  -0.434  53.528  1.00  0.00     0.087 A 
HETATM   15  O4  UNL     1      19.875  -0.819  53.510  1.00  0.00    -0.330 OA
HETATM   16  C16 UNL     1      21.471   0.989  49.152  1.00  0.00     0.017 A 
HETATM   17  C17 UNL     1      20.706   1.116  50.182  1.00  0.00    -0.032 A 
ENDROOT
BRANCH   1  18
HETATM   18  C2  UNL     1      18.382   1.079  51.075  1.00  0.00     0.270 C 
HETATM   19  O2  UNL     1      17.450   0.373  51.600  1.00  0.00    -0.264 OA
BRANCH  18  20
HETATM   20  O1  UNL     1      17.644   2.180  50.793  1.00  0.00    -0.326 OA
HETATM   21  C1  UNL     1      16.894   2.997  51.644  1.00  0.00     0.213 C 
ENDBRANCH  18  20
ENDBRANCH   1  18
TORSDOF 2
ENDMDL
MODEL 5
REMARK VINA RESULT:      -6.9      4.200      7.037
REMARK  2 active torsions:
REMARK  status: ('A' for Active; 'I' for Inactive)
REMARK    1  A    between atoms: O1_2  and  C2_3 
REMARK    2  A    between atoms: C2_3  and  C3_5 
ROOT
HETATM    1  C3  UNL     1      20.045   2.981  52.310  1.00  0.00     0.163 C 
HETATM    2  C4  UNL     1      21.324   3.741  51.905  1.00  0.00     0.161 A 
HETATM    3  C5  UNL     1      21.824   3.338  50.676  1.00  0.00     0.197 C 
HETATM    4  O3  UNL     1      21.742   2.060  50.018  1.00  0.00    -0.375 OA
HETATM    5  C6  UNL     1      22.046   0.805  50.669  1.00  0.00     0.208 C 
HETATM    6  C7  UNL     1      21.450   0.852  52.047  1.00  0.00    -0.021 A 
HETATM    7  C8  UNL     1      21.578   0.006  53.112  1.00  0.00    -0.043 A 
HETATM    8  C9  UNL     1      22.375  -1.226  53.377  1.00  0.00     0.063 C 
HETATM    9  C10 UNL     1      23.673  -0.692  53.406  1.00  0.00     0.004 C 
HETATM   10  C11 UNL     1      24.713   0.398  53.321  1.00  0.00    -0.026 C 
HETATM   11  C12 UNL     1      24.578   1.666  53.067  1.00  0.00    -0.004 C 
HETATM   12  C13 UNL     1      24.175   3.006  52.763  1.00  0.00     0.002 C 
HETATM   13  C14 UNL     1      23.753   4.186  52.485  1.00  0.00     0.035 C 
HETATM   14  C15 UNL     1      22.430   4.756  52.147  1.00  0.00     0.087 A 
HETATM   15  O4  UNL     1      21.415   5.370  51.872  1.00  0.00    -0.330 OA
HETATM   16  C16 UNL     1      20.589   0.875  53.854  1.00  0.00     0.017 A 
HETATM   17  C17 UNL     1      20.532   1.651  52.826  1.00  0.00    -0.032 A 
ENDROOT
BRANCH   1  18
HETATM   18  C2  UNL     1      19.088   2.929  51.251  1.00  0.00     0.270 C 
HETATM   19  O2  UNL     1      18.383   3.991  51.114  1.00  0.00    -0.264 OA
BRANCH  18  20
HETATM   20  O1  UNL     1      18.541   2.211  50.239  1.00  0.00    -0.326 OA
HETATM   21  C1  UNL     1      18.197   0.858  50.186  1.00  0.00     0.213 C 
ENDBRANCH  18  20
ENDBRANCH   1  18
TORSDOF 2
ENDMDL
MODEL 6
REMARK VINA RESULT:      -6.9      4.265      7.129
REMARK  2 active torsions:
REMARK  status: ('A' for Active; 'I' for Inactive)
REMARK    1  A    between atoms: O1_2  and  C2_3 
REMARK    2  A    between atoms: C2_3  and  C3_5 
ROOT
HETATM    1  C3  UNL     1      23.023   5.653  51.103  1.00  0.00     0.163 C 
HETATM    2  C4  UNL     1      23.988   5.537  49.906  1.00  0.00     0.161 A 
HETATM    3  C5  UNL     1      23.573   4.603  48.968  1.00  0.00     0.197 C 
HETATM    4  O3  UNL     1      22.803   3.400  49.140  1.00  0.00    -0.375 OA
HETATM    5  C6  UNL     1      23.085   2.408  50.155  1.00  0.00     0.208 C 
HETATM    6  C7  UNL     1      23.417   3.139  51.424  1.00  0.00    -0.021 A 
HETATM    7  C8  UNL     1      23.904   2.692  52.619  1.00  0.00    -0.043 A 
HETATM    8  C9  UNL     1      24.357   1.366  53.132  1.00  0.00     0.063 C 
HETATM    9  C10 UNL     1      25.525   1.183  52.374  1.00  0.00     0.004 C 
HETATM   10  C11 UNL     1      26.570   1.549  51.350  1.00  0.00    -0.026 C 
HETATM   11  C12 UNL     1      26.649   2.584  50.567  1.00  0.00    -0.004 C 
HETATM   12  C13 UNL     1      26.509   3.795  49.816  1.00  0.00     0.002 C 
HETATM   13  C14 UNL     1      26.328   4.890  49.172  1.00  0.00     0.035 C 
HETATM   14  C15 UNL     1      25.251   5.905  49.144  1.00  0.00     0.087 A 
HETATM   15  O4  UNL     1      24.462   6.825  49.021  1.00  0.00    -0.330 OA
HETATM   16  C16 UNL     1      23.780   4.105  53.139  1.00  0.00     0.017 A 
HETATM   17  C17 UNL     1      23.353   4.472  51.980  1.00  0.00    -0.032 A 
ENDROOT
BRANCH   1  18
HETATM   18  C2  UNL     1      21.660   5.766  50.692  1.00  0.00     0.270 C 
HETATM   19  O2  UNL     1      21.280   6.962  50.426  1.00  0.00    -0.264 OA
BRANCH  18  20
HETATM   20  O1  UNL     1      20.489   5.136  50.430  1.00  0.00    -0.326 OA
HETATM   21  C1  UNL     1      19.788   4.198  51.193  1.00  0.00     0.213 C 
ENDBRANCH  18  20
ENDBRANCH   1  18
TORSDOF 2
ENDMDL
MODEL 7
REMARK VINA RESULT:      -6.6      3.968      6.276
REMARK  2 active torsions:
REMARK  status: ('A' for Active; 'I' for Inactive)
REMARK    1  A    between atoms: O1_2  and  C2_3 
REMARK    2  A    between atoms: C2_3  and  C3_5 
ROOT
HETATM    1  C3  UNL     1      24.088   3.922  49.095  1.00  0.00     0.163 C 
HETATM    2  C4  UNL     1      22.681   3.298  49.169  1.00  0.00     0.161 A 
HETATM    3  C5  UNL     1      21.871   3.907  50.116  1.00  0.00     0.197 C 
HETATM    4  O3  UNL     1      22.221   4.559  51.350  1.00  0.00    -0.375 OA
HETATM    5  C6  UNL     1      23.114   3.986  52.333  1.00  0.00     0.208 C 
HETATM    6  C7  UNL     1      24.263   3.364  51.592  1.00  0.00    -0.021 A 
HETATM    7  C8  UNL     1      25.286   2.568  52.024  1.00  0.00    -0.043 A 
HETATM    8  C9  UNL     1      25.646   1.948  53.331  1.00  0.00     0.063 C 
HETATM    9  C10 UNL     1      24.609   1.010  53.466  1.00  0.00     0.004 C 
HETATM   10  C11 UNL     1      23.354   0.281  53.056  1.00  0.00    -0.026 C 
HETATM   11  C12 UNL     1      22.591   0.447  52.016  1.00  0.00    -0.004 C 
HETATM   12  C13 UNL     1      21.918   0.823  50.809  1.00  0.00     0.002 C 
HETATM   13  C14 UNL     1      21.357   1.206  49.720  1.00  0.00     0.035 C 
HETATM   14  C15 UNL     1      21.622   2.290  48.749  1.00  0.00     0.087 A 
HETATM   15  O4  UNL     1      21.721   3.118  47.861  1.00  0.00    -0.330 OA
HETATM   16  C16 UNL     1      25.838   2.605  50.617  1.00  0.00     0.017 A 
HETATM   17  C17 UNL     1      24.835   3.332  50.265  1.00  0.00    -0.032 A 
ENDROOT
BRANCH   1  18
HETATM   18  C2  UNL     1      24.046   5.349  49.035  1.00  0.00     0.270 C 
HETATM   19  O2  UNL     1      23.699   5.826  47.897  1.00  0.00    -0.264 OA
BRANCH  18  20
HETATM   20  O1  UNL     1      24.217   6.526  49.685  1.00  0.00    -0.326 OA
HETATM   21  C1  UNL     1      25.292   6.973  50.457  1.00  0.00     0.213 C 
ENDBRANCH  18  20
ENDBRANCH   1  18
TORSDOF 2
ENDMDL
MODEL 8
REMARK VINA RESULT:      -6.6      3.933      6.649
REMARK  2 active torsions:
REMARK  status: ('A' for Active; 'I' for Inactive)
REMARK    1  A    between atoms: O1_2  and  C2_3 
REMARK    2  A    between atoms: C2_3  and  C3_5 
ROOT
HETATM    1  C3  UNL     1      22.330   3.356  50.224  1.00  0.00     0.163 C 
HETATM    2  C4  UNL     1      23.611   2.899  50.952  1.00  0.00     0.161 A 
HETATM    3  C5  UNL     1      23.975   3.748  51.985  1.00  0.00     0.197 C 
HETATM    4  O3  UNL     1      23.761   5.163  52.139  1.00  0.00    -0.375 OA
HETATM    5  C6  UNL     1      24.048   6.133  51.104  1.00  0.00     0.208 C 
HETATM    6  C7  UNL     1      23.580   5.555  49.799  1.00  0.00    -0.021 A 
HETATM    7  C8  UNL     1      23.752   5.981  48.513  1.00  0.00    -0.043 A 
HETATM    8  C9  UNL     1      24.497   7.106  47.877  1.00  0.00     0.063 C 
HETATM    9  C10 UNL     1      25.821   6.709  48.120  1.00  0.00     0.004 C 
HETATM   10  C11 UNL     1      26.911   5.812  48.652  1.00  0.00    -0.026 C 
HETATM   11  C12 UNL     1      26.829   4.707  49.332  1.00  0.00    -0.004 C 
HETATM   12  C13 UNL     1      26.478   3.528  50.068  1.00  0.00     0.002 C 
HETATM   13  C14 UNL     1      26.103   2.489  50.721  1.00  0.00     0.035 C 
HETATM   14  C15 UNL     1      24.791   1.963  51.157  1.00  0.00     0.087 A 
HETATM   15  O4  UNL     1      23.793   1.399  51.569  1.00  0.00    -0.330 OA
HETATM   16  C16 UNL     1      22.885   4.826  48.069  1.00  0.00     0.017 A 
HETATM   17  C17 UNL     1      22.783   4.457  49.300  1.00  0.00    -0.032 A 
ENDROOT
BRANCH   1  18
HETATM   18  C2  UNL     1      21.282   3.694  51.134  1.00  0.00     0.270 C 
HETATM   19  O2  UNL     1      20.655   4.775  50.848  1.00  0.00    -0.264 OA
BRANCH  18  20
HETATM   20  O1  UNL     1      20.587   3.366  52.250  1.00  0.00    -0.326 OA
HETATM   21  C1  UNL     1      20.265   2.107  52.766  1.00  0.00     0.213 C 
ENDBRANCH  18  20
ENDBRANCH   1  18
TORSDOF 2
ENDMDL
MODEL 9
REMARK VINA RESULT:      -6.6      8.023     10.375
REMARK  2 active torsions:
REMARK  status: ('A' for Active; 'I' for Inactive)
REMARK    1  A    between atoms: O1_2  and  C2_3 
REMARK    2  A    between atoms: C2_3  and  C3_5 
ROOT
HETATM    1  C3  UNL     1      31.208   5.730  47.797  1.00  0.00     0.163 C 
HETATM    2  C4  UNL     1      31.464   6.845  46.763  1.00  0.00     0.161 A 
HETATM    3  C5  UNL     1      31.598   8.097  47.342  1.00  0.00     0.197 C 
HETATM    4  O3  UNL     1      31.017   8.625  48.548  1.00  0.00    -0.375 OA
HETATM    5  C6  UNL     1      29.612   8.509  48.876  1.00  0.00     0.208 C 
HETATM    6  C7  UNL     1      29.175   7.120  48.512  1.00  0.00    -0.021 A 
HETATM    7  C8  UNL     1      27.934   6.549  48.471  1.00  0.00    -0.043 A 
HETATM    8  C9  UNL     1      26.547   7.050  48.689  1.00  0.00     0.063 C 
HETATM    9  C10 UNL     1      26.400   7.896  47.578  1.00  0.00     0.004 C 
HETATM   10  C11 UNL     1      26.835   8.585  46.309  1.00  0.00    -0.026 C 
HETATM   11  C12 UNL     1      27.973   8.542  45.680  1.00  0.00    -0.004 C 
HETATM   12  C13 UNL     1      29.301   8.336  45.184  1.00  0.00     0.002 C 
HETATM   13  C14 UNL     1      30.502   8.116  44.790  1.00  0.00     0.035 C 
HETATM   14  C15 UNL     1      31.647   7.359  45.344  1.00  0.00     0.087 A 
HETATM   15  O4  UNL     1      32.666   6.771  45.660  1.00  0.00    -0.330 OA
HETATM   16  C16 UNL     1      28.604   5.244  48.106  1.00  0.00     0.017 A 
HETATM   17  C17 UNL     1      29.743   5.846  48.134  1.00  0.00    -0.032 A 
ENDROOT
BRANCH   1  18
HETATM   18  C2  UNL     1      32.112   5.798  48.902  1.00  0.00     0.270 C 
HETATM   19  O2  UNL     1      31.594   5.499  50.035  1.00  0.00    -0.264 OA
BRANCH  18  20
HETATM   20  O1  UNL     1      33.371   6.052  49.334  1.00  0.00    -0.326 OA
HETATM   21  C1  UNL     1      34.595   5.854  48.689  1.00  0.00     0.213 C 
ENDBRANCH  18  20
ENDBRANCH   1  18
TORSDOF 2
ENDMDL
