MODEL 1
REMARK VINA RESULT:      -7.4      0.000      0.000
REMARK  6 active torsions:
REMARK  status: ('A' for Active; 'I' for Inactive)
REMARK    1  A    between atoms: C3_3  and  C4_4 
REMARK    2  A    between atoms: C4_4  and  C5_5 
REMARK    3  A    between atoms: C6_6  and  C7_7 
REMARK    4  A    between atoms: C7_7  and  C8_8 
REMARK    5  A    between atoms: N2_11  and  C10_12 
REMARK    6  A    between atoms: C10_12  and  C11_13 
ROOT
HETATM    1  C8  UNL     1      24.738   2.917  51.885  1.00  0.00    -0.030 A 
HETATM    2  C9  UNL     1      25.806   2.709  51.005  1.00  0.00     0.146 A 
HETATM    3  N1  UNL     1      26.941   2.185  51.508  1.00  0.00    -0.181 NA
HETATM    4  N2  UNL     1      27.042   1.874  52.809  1.00  0.00    -0.231 N 
HETATM    5  C16 UNL     1      26.033   2.061  53.681  1.00  0.00     0.264 A 
HETATM    6  O1  UNL     1      26.206   1.743  54.888  1.00  0.00    -0.267 OA
HETATM    7  C17 UNL     1      24.847   2.595  53.223  1.00  0.00     0.085 A 
ENDROOT
BRANCH   1   8
HETATM    8  C7  UNL     1      23.486   3.505  51.288  1.00  0.00     0.067 C 
BRANCH   8   9
HETATM    9  C6  UNL     1      22.978   2.504  50.316  1.00  0.00    -0.026 C 
HETATM   10  C5  UNL     1      22.178   1.460  50.480  1.00  0.00    -0.027 C 
BRANCH  10  11
HETATM   11  C4  UNL     1      21.593   1.062  51.777  1.00  0.00     0.053 C 
BRANCH  11  12
HETATM   12  C3  UNL     1      22.401  -0.000  52.441  1.00  0.00    -0.027 C 
HETATM   13  C2  UNL     1      22.133  -0.404  53.676  1.00  0.00    -0.035 C 
HETATM   14  C1  UNL     1      21.006   0.211  54.418  1.00  0.00     0.036 C 
ENDBRANCH  11  12
ENDBRANCH  10  11
ENDBRANCH   8   9
ENDBRANCH   1   8
BRANCH   4  15
HETATM   15  C10 UNL     1      28.325   1.326  53.162  1.00  0.00     0.193 C 
BRANCH  15  16
HETATM   16  C11 UNL     1      28.366  -0.160  53.142  1.00  0.00    -0.035 A 
HETATM   17  C12 UNL     1      29.600  -0.710  53.506  1.00  0.00     0.028 A 
HETATM   18  C13 UNL     1      29.747  -2.100  53.520  1.00  0.00     0.116 A 
HETATM   19  N3  UNL     1      28.730  -2.914  53.192  1.00  0.00    -0.273 NA
HETATM   20  C14 UNL     1      27.545  -2.370  52.844  1.00  0.00     0.116 A 
HETATM   21  C15 UNL     1      27.324  -1.022  52.806  1.00  0.00     0.028 A 
ENDBRANCH  15  16
ENDBRANCH   4  15
TORSDOF 6
ENDMDL
MODEL 2
REMARK VINA RESULT:      -7.0      1.331      1.966
REMARK  6 active torsions:
REMARK  status: ('A' for Active; 'I' for Inactive)
REMARK    1  A    between atoms: C3_3  and  C4_4 
REMARK    2  A    between atoms: C4_4  and  C5_5 
REMARK    3  A    between atoms: C6_6  and  C7_7 
REMARK    4  A    between atoms: C7_7  and  C8_8 
REMARK    5  A    between atoms: N2_11  and  C10_12 
REMARK    6  A    between atoms: C10_12  and  C11_13 
ROOT
HETATM    1  C8  UNL     1      23.913   2.704  52.090  1.00  0.00    -0.030 A 
HETATM    2  C9  UNL     1      24.318   2.371  53.388  1.00  0.00     0.146 A 
HETATM    3  N1  UNL     1      25.634   2.184  53.606  1.00  0.00    -0.181 NA
HETATM    4  N2  UNL     1      26.526   2.315  52.612  1.00  0.00    -0.231 N 
HETATM    5  C16 UNL     1      26.169   2.635  51.353  1.00  0.00     0.264 A 
HETATM    6  O1  UNL     1      27.066   2.739  50.475  1.00  0.00    -0.267 OA
HETATM    7  C17 UNL     1      24.834   2.837  51.071  1.00  0.00     0.085 A 
ENDROOT
BRANCH   1   8
HETATM    8  C7  UNL     1      22.434   2.904  51.883  1.00  0.00     0.067 C 
BRANCH   8   9
HETATM    9  C6  UNL     1      22.038   1.989  50.783  1.00  0.00    -0.026 C 
HETATM   10  C5  UNL     1      21.508   0.774  50.809  1.00  0.00    -0.027 C 
BRANCH  10  11
HETATM   11  C4  UNL     1      21.185   0.040  52.050  1.00  0.00     0.053 C 
BRANCH  11  12
HETATM   12  C3  UNL     1      22.381  -0.657  52.603  1.00  0.00    -0.027 C 
HETATM   13  C2  UNL     1      22.536  -0.837  53.908  1.00  0.00    -0.035 C 
HETATM   14  C1  UNL     1      21.500  -0.337  54.844  1.00  0.00     0.036 C 
ENDBRANCH  11  12
ENDBRANCH  10  11
ENDBRANCH   8   9
ENDBRANCH   1   8
BRANCH   4  15
HETATM   15  C10 UNL     1      27.881   2.080  53.033  1.00  0.00     0.193 C 
BRANCH  15  16
HETATM   16  C11 UNL     1      28.226   0.639  53.159  1.00  0.00    -0.035 A 
HETATM   17  C12 UNL     1      27.216  -0.236  52.744  1.00  0.00     0.028 A 
HETATM   18  C13 UNL     1      27.438  -1.615  52.821  1.00  0.00     0.116 A 
HETATM   19  N3  UNL     1      28.597  -2.112  53.282  1.00  0.00    -0.273 NA
HETATM   20  C14 UNL     1      29.562  -1.255  53.678  1.00  0.00     0.116 A 
HETATM   21  C15 UNL     1      29.421   0.102  53.634  1.00  0.00     0.028 A 
ENDBRANCH  15  16
ENDBRANCH   4  15
TORSDOF 6
ENDMDL
MODEL 3
REMARK VINA RESULT:      -6.8      2.411      4.163
REMARK  6 active torsions:
REMARK  status: ('A' for Active; 'I' for Inactive)
REMARK    1  A    between atoms: C3_3  and  C4_4 
REMARK    2  A    between atoms: C4_4  and  C5_5 
REMARK    3  A    between atoms: C6_6  and  C7_7 
REMARK    4  A    between atoms: C7_7  and  C8_8 
REMARK    5  A    between atoms: N2_11  and  C10_12 
REMARK    6  A    between atoms: C10_12  and  C11_13 
ROOT
HETATM    1  C8  UNL     1      25.421   3.293  50.576  1.00  0.00    -0.030 A 
HETATM    2  C9  UNL     1      26.790   3.066  50.760  1.00  0.00     0.146 A 
HETATM    3  N1  UNL     1      27.167   2.345  51.834  1.00  0.00    -0.181 NA
HETATM    4  N2  UNL     1      26.259   1.861  52.696  1.00  0.00    -0.231 N 
HETATM    5  C16 UNL     1      24.936   2.061  52.546  1.00  0.00     0.264 A 
HETATM    6  O1  UNL     1      24.148   1.574  53.399  1.00  0.00    -0.267 OA
HETATM    7  C17 UNL     1      24.492   2.792  51.465  1.00  0.00     0.085 A 
ENDROOT
BRANCH   1   8
HETATM    8  C7  UNL     1      25.037   4.103  49.365  1.00  0.00     0.067 C 
BRANCH   8   9
HETATM    9  C6  UNL     1      26.224   4.925  49.018  1.00  0.00    -0.026 C 
HETATM   10  C5  UNL     1      26.345   6.224  48.784  1.00  0.00    -0.027 C 
BRANCH  10  11
HETATM   11  C4  UNL     1      25.219   7.180  48.829  1.00  0.00     0.053 C 
BRANCH  11  12
HETATM   12  C3  UNL     1      25.081   7.801  50.178  1.00  0.00    -0.027 C 
HETATM   13  C2  UNL     1      23.968   7.669  50.890  1.00  0.00    -0.035 C 
HETATM   14  C1  UNL     1      22.835   6.889  50.338  1.00  0.00     0.036 C 
ENDBRANCH  11  12
ENDBRANCH  10  11
ENDBRANCH   8   9
ENDBRANCH   1   8
BRANCH   4  15
HETATM   15  C10 UNL     1      26.847   1.118  53.779  1.00  0.00     0.193 C 
BRANCH  15  16
HETATM   16  C11 UNL     1      27.294  -0.247  53.392  1.00  0.00    -0.035 A 
HETATM   17  C12 UNL     1      28.630  -0.527  53.700  1.00  0.00     0.028 A 
HETATM   18  C13 UNL     1      29.152  -1.784  53.378  1.00  0.00     0.116 A 
HETATM   19  N3  UNL     1      28.398  -2.723  52.783  1.00  0.00    -0.273 NA
HETATM   20  C14 UNL     1      27.111  -2.438  52.493  1.00  0.00     0.116 A 
HETATM   21  C15 UNL     1      26.530  -1.235  52.775  1.00  0.00     0.028 A 
ENDBRANCH  15  16
ENDBRANCH   4  15
TORSDOF 6
ENDMDL
MODEL 4
REMARK VINA RESULT:      -6.7      2.982      5.141
REMARK  6 active torsions:
REMARK  status: ('A' for Active; 'I' for Inactive)
REMARK    1  A    between atoms: C3_3  and  C4_4 
REMARK    2  A    between atoms: C4_4  and  C5_5 
REMARK    3  A    between atoms: C6_6  and  C7_7 
REMARK    4  A    between atoms: C7_7  and  C8_8 
REMARK    5  A    between atoms: N2_11  and  C10_12 
REMARK    6  A    between atoms: C10_12  and  C11_13 
ROOT
HETATM    1  C8  UNL     1      24.529   2.927  50.399  1.00  0.00    -0.030 A 
HETATM    2  C9  UNL     1      25.746   2.661  51.037  1.00  0.00     0.146 A 
HETATM    3  N1  UNL     1      25.762   1.700  51.980  1.00  0.00    -0.181 NA
HETATM    4  N2  UNL     1      24.649   1.020  52.295  1.00  0.00    -0.231 N 
HETATM    5  C16 UNL     1      23.464   1.251  51.700  1.00  0.00     0.264 A 
HETATM    6  O1  UNL     1      22.464   0.571  52.051  1.00  0.00    -0.267 OA
HETATM    7  C17 UNL     1      23.386   2.225  50.726  1.00  0.00     0.085 A 
ENDROOT
BRANCH   1   8
HETATM    8  C7  UNL     1      24.548   4.009  49.351  1.00  0.00     0.067 C 
BRANCH   8   9
HETATM    9  C6  UNL     1      24.964   5.255  50.043  1.00  0.00    -0.026 C 
HETATM   10  C5  UNL     1      25.856   6.178  49.713  1.00  0.00    -0.027 C 
BRANCH  10  11
HETATM   11  C4  UNL     1      26.677   6.133  48.485  1.00  0.00     0.053 C 
BRANCH  11  12
HETATM   12  C3  UNL     1      27.798   5.158  48.610  1.00  0.00    -0.027 C 
HETATM   13  C2  UNL     1      29.022   5.454  48.191  1.00  0.00    -0.035 C 
HETATM   14  C1  UNL     1      29.287   6.780  47.583  1.00  0.00     0.036 C 
ENDBRANCH  11  12
ENDBRANCH  10  11
ENDBRANCH   8   9
ENDBRANCH   1   8
BRANCH   4  15
HETATM   15  C10 UNL     1      24.860   0.034  53.321  1.00  0.00     0.193 C 
BRANCH  15  16
HETATM   16  C11 UNL     1      26.291  -0.301  53.543  1.00  0.00    -0.035 A 
HETATM   17  C12 UNL     1      26.881   0.366  54.623  1.00  0.00     0.028 A 
HETATM   18  C13 UNL     1      28.226   0.122  54.918  1.00  0.00     0.116 A 
HETATM   19  N3  UNL     1      28.958  -0.735  54.190  1.00  0.00    -0.273 NA
HETATM   20  C14 UNL     1      28.376  -1.372  53.151  1.00  0.00     0.116 A 
HETATM   21  C15 UNL     1      27.069  -1.187  52.800  1.00  0.00     0.028 A 
ENDBRANCH  15  16
ENDBRANCH   4  15
TORSDOF 6
ENDMDL
MODEL 5
REMARK VINA RESULT:      -6.7      2.336      4.249
REMARK  6 active torsions:
REMARK  status: ('A' for Active; 'I' for Inactive)
REMARK    1  A    between atoms: C3_3  and  C4_4 
REMARK    2  A    between atoms: C4_4  and  C5_5 
REMARK    3  A    between atoms: C6_6  and  C7_7 
REMARK    4  A    between atoms: C7_7  and  C8_8 
REMARK    5  A    between atoms: N2_11  and  C10_12 
REMARK    6  A    between atoms: C10_12  and  C11_13 
ROOT
HETATM    1  C8  UNL     1      22.355   1.703  51.728  1.00  0.00    -0.030 A 
HETATM    2  C9  UNL     1      23.489   2.186  52.390  1.00  0.00     0.146 A 
HETATM    3  N1  UNL     1      24.103   1.363  53.262  1.00  0.00    -0.181 NA
HETATM    4  N2  UNL     1      23.642   0.123  53.486  1.00  0.00    -0.231 N 
HETATM    5  C16 UNL     1      22.555  -0.371  52.864  1.00  0.00     0.264 A 
HETATM    6  O1  UNL     1      22.185  -1.546  53.128  1.00  0.00    -0.267 OA
HETATM    7  C17 UNL     1      21.885   0.427  51.961  1.00  0.00     0.085 A 
ENDROOT
BRANCH   1   8
HETATM    8  C7  UNL     1      21.694   2.651  50.761  1.00  0.00     0.067 C 
BRANCH   8   9
HETATM    9  C6  UNL     1      22.211   2.302  49.413  1.00  0.00    -0.026 C 
HETATM   10  C5  UNL     1      23.218   2.802  48.711  1.00  0.00    -0.027 C 
BRANCH  10  11
HETATM   11  C4  UNL     1      24.090   3.898  49.181  1.00  0.00     0.053 C 
BRANCH  11  12
HETATM   12  C3  UNL     1      25.433   3.393  49.588  1.00  0.00    -0.027 C 
HETATM   13  C2  UNL     1      26.521   4.142  49.461  1.00  0.00    -0.035 C 
HETATM   14  C1  UNL     1      26.407   5.510  48.902  1.00  0.00     0.036 C 
ENDBRANCH  11  12
ENDBRANCH  10  11
ENDBRANCH   8   9
ENDBRANCH   1   8
BRANCH   4  15
HETATM   15  C10 UNL     1      24.426  -0.607  54.447  1.00  0.00     0.193 C 
BRANCH  15  16
HETATM   16  C11 UNL     1      25.892  -0.511  54.218  1.00  0.00    -0.035 A 
HETATM   17  C12 UNL     1      26.352  -1.224  53.104  1.00  0.00     0.028 A 
HETATM   18  C13 UNL     1      27.716  -1.201  52.799  1.00  0.00     0.116 A 
HETATM   19  N3  UNL     1      28.590  -0.510  53.550  1.00  0.00    -0.273 NA
HETATM   20  C14 UNL     1      28.131   0.173  54.621  1.00  0.00     0.116 A 
HETATM   21  C15 UNL     1      26.815   0.199  54.983  1.00  0.00     0.028 A 
ENDBRANCH  15  16
ENDBRANCH   4  15
TORSDOF 6
ENDMDL
MODEL 6
REMARK VINA RESULT:      -6.7      2.794      4.945
REMARK  6 active torsions:
REMARK  status: ('A' for Active; 'I' for Inactive)
REMARK    1  A    between atoms: C3_3  and  C4_4 
REMARK    2  A    between atoms: C4_4  and  C5_5 
REMARK    3  A    between atoms: C6_6  and  C7_7 
REMARK    4  A    between atoms: C7_7  and  C8_8 
REMARK    5  A    between atoms: N2_11  and  C10_12 
REMARK    6  A    between atoms: C10_12  and  C11_13 
ROOT
HETATM    1  C8  UNL     1      25.313   3.279  50.511  1.00  0.00    -0.030 A 
HETATM    2  C9  UNL     1      26.691   3.055  50.607  1.00  0.00     0.146 A 
HETATM    3  N1  UNL     1      27.142   2.375  51.679  1.00  0.00    -0.181 NA
HETATM    4  N2  UNL     1      26.298   1.927  52.621  1.00  0.00    -0.231 N 
HETATM    5  C16 UNL     1      24.967   2.124  52.557  1.00  0.00     0.264 A 
HETATM    6  O1  UNL     1      24.240   1.673  53.480  1.00  0.00    -0.267 OA
HETATM    7  C17 UNL     1      24.448   2.816  51.482  1.00  0.00     0.085 A 
ENDROOT
BRANCH   1   8
HETATM    8  C7  UNL     1      24.845   4.044  49.300  1.00  0.00     0.067 C 
BRANCH   8   9
HETATM    9  C6  UNL     1      24.856   5.479  49.682  1.00  0.00    -0.026 C 
HETATM   10  C5  UNL     1      25.617   6.483  49.271  1.00  0.00    -0.027 C 
BRANCH  10  11
HETATM   11  C4  UNL     1      26.693   6.347  48.267  1.00  0.00     0.053 C 
BRANCH  11  12
HETATM   12  C3  UNL     1      27.793   7.325  48.507  1.00  0.00    -0.027 C 
HETATM   13  C2  UNL     1      29.068   6.968  48.413  1.00  0.00    -0.035 C 
HETATM   14  C1  UNL     1      29.413   5.570  48.062  1.00  0.00     0.036 C 
ENDBRANCH  11  12
ENDBRANCH  10  11
ENDBRANCH   8   9
ENDBRANCH   1   8
BRANCH   4  15
HETATM   15  C10 UNL     1      26.960   1.223  53.686  1.00  0.00     0.193 C 
BRANCH  15  16
HETATM   16  C11 UNL     1      27.348  -0.168  53.333  1.00  0.00    -0.035 A 
HETATM   17  C12 UNL     1      28.662  -0.507  53.675  1.00  0.00     0.028 A 
HETATM   18  C13 UNL     1      29.129  -1.793  53.386  1.00  0.00     0.116 A 
HETATM   19  N3  UNL     1      28.344  -2.705  52.790  1.00  0.00    -0.273 NA
HETATM   20  C14 UNL     1      27.079  -2.363  52.466  1.00  0.00     0.116 A 
HETATM   21  C15 UNL     1      26.551  -1.129  52.715  1.00  0.00     0.028 A 
ENDBRANCH  15  16
ENDBRANCH   4  15
TORSDOF 6
ENDMDL
MODEL 7
REMARK VINA RESULT:      -6.7      3.870      7.234
REMARK  6 active torsions:
REMARK  status: ('A' for Active; 'I' for Inactive)
REMARK    1  A    between atoms: C3_3  and  C4_4 
REMARK    2  A    between atoms: C4_4  and  C5_5 
REMARK    3  A    between atoms: C6_6  and  C7_7 
REMARK    4  A    between atoms: C7_7  and  C8_8 
REMARK    5  A    between atoms: N2_11  and  C10_12 
REMARK    6  A    between atoms: C10_12  and  C11_13 
ROOT
HETATM    1  C8  UNL     1      25.353   2.883  51.596  1.00  0.00    -0.030 A 
HETATM    2  C9  UNL     1      24.364   3.868  51.493  1.00  0.00     0.146 A 
HETATM    3  N1  UNL     1      24.501   4.796  50.527  1.00  0.00    -0.181 NA
HETATM    4  N2  UNL     1      25.550   4.775  49.690  1.00  0.00    -0.231 N 
HETATM    5  C16 UNL     1      26.517   3.841  49.762  1.00  0.00     0.264 A 
HETATM    6  O1  UNL     1      27.470   3.888  48.940  1.00  0.00    -0.267 OA
HETATM    7  C17 UNL     1      26.430   2.865  50.733  1.00  0.00     0.085 A 
ENDROOT
BRANCH   1   8
HETATM    8  C7  UNL     1      25.167   1.863  52.689  1.00  0.00     0.067 C 
BRANCH   8   9
HETATM    9  C6  UNL     1      25.623   0.565  52.131  1.00  0.00    -0.026 C 
HETATM   10  C5  UNL     1      26.529  -0.299  52.565  1.00  0.00    -0.027 C 
BRANCH  10  11
HETATM   11  C4  UNL     1      27.326  -0.113  53.796  1.00  0.00     0.053 C 
BRANCH  11  12
HETATM   12  C3  UNL     1      28.531   0.730  53.547  1.00  0.00    -0.027 C 
HETATM   13  C2  UNL     1      29.748   0.202  53.506  1.00  0.00    -0.035 C 
HETATM   14  C1  UNL     1      29.921  -1.255  53.712  1.00  0.00     0.036 C 
ENDBRANCH  11  12
ENDBRANCH  10  11
ENDBRANCH   8   9
ENDBRANCH   1   8
BRANCH   4  15
HETATM   15  C10 UNL     1      25.526   5.841  48.725  1.00  0.00     0.193 C 
BRANCH  15  16
HETATM   16  C11 UNL     1      26.377   7.002  49.097  1.00  0.00    -0.035 A 
HETATM   17  C12 UNL     1      27.532   7.147  48.319  1.00  0.00     0.028 A 
HETATM   18  C13 UNL     1      28.402   8.208  48.586  1.00  0.00     0.116 A 
HETATM   19  N3  UNL     1      28.153   9.087  49.570  1.00  0.00    -0.273 NA
HETATM   20  C14 UNL     1      27.035   8.936  50.312  1.00  0.00     0.116 A 
HETATM   21  C15 UNL     1      26.137   7.926  50.112  1.00  0.00     0.028 A 
ENDBRANCH  15  16
ENDBRANCH   4  15
TORSDOF 6
ENDMDL
MODEL 8
REMARK VINA RESULT:      -6.6      3.148      6.392
REMARK  6 active torsions:
REMARK  status: ('A' for Active; 'I' for Inactive)
REMARK    1  A    between atoms: C3_3  and  C4_4 
REMARK    2  A    between atoms: C4_4  and  C5_5 
REMARK    3  A    between atoms: C6_6  and  C7_7 
REMARK    4  A    between atoms: C7_7  and  C8_8 
REMARK    5  A    between atoms: N2_11  and  C10_12 
REMARK    6  A    between atoms: C10_12  and  C11_13 
ROOT
HETATM    1  C8  UNL     1      23.543   2.345  52.171  1.00  0.00    -0.030 A 
HETATM    2  C9  UNL     1      23.572   2.018  50.811  1.00  0.00     0.146 A 
HETATM    3  N1  UNL     1      23.741   3.022  49.929  1.00  0.00    -0.181 NA
HETATM    4  N2  UNL     1      23.877   4.292  50.342  1.00  0.00    -0.231 N 
HETATM    5  C16 UNL     1      23.854   4.638  51.643  1.00  0.00     0.264 A 
HETATM    6  O1  UNL     1      23.989   5.852  51.952  1.00  0.00    -0.267 OA
HETATM    7  C17 UNL     1      23.683   3.652  52.592  1.00  0.00     0.085 A 
ENDROOT
BRANCH   1   8
HETATM    8  C7  UNL     1      23.351   1.197  53.128  1.00  0.00     0.067 C 
BRANCH   8   9
HETATM    9  C6  UNL     1      24.444   0.232  52.847  1.00  0.00    -0.026 C 
HETATM   10  C5  UNL     1      25.699   0.190  53.272  1.00  0.00    -0.027 C 
BRANCH  10  11
HETATM   11  C4  UNL     1      26.297   1.186  54.185  1.00  0.00     0.053 C 
BRANCH  11  12
HETATM   12  C3  UNL     1      27.069   2.220  53.439  1.00  0.00    -0.027 C 
HETATM   13  C2  UNL     1      28.394   2.268  53.495  1.00  0.00    -0.035 C 
HETATM   14  C1  UNL     1      29.129   1.276  54.315  1.00  0.00     0.036 C 
ENDBRANCH  11  12
ENDBRANCH  10  11
ENDBRANCH   8   9
ENDBRANCH   1   8
BRANCH   4  15
HETATM   15  C10 UNL     1      24.049   5.224  49.260  1.00  0.00     0.193 C 
BRANCH  15  16
HETATM   16  C11 UNL     1      25.471   5.478  48.910  1.00  0.00    -0.035 A 
HETATM   17  C12 UNL     1      25.722   6.757  48.401  1.00  0.00     0.028 A 
HETATM   18  C13 UNL     1      27.029   7.099  48.039  1.00  0.00     0.116 A 
HETATM   19  N3  UNL     1      28.042   6.228  48.171  1.00  0.00    -0.273 NA
HETATM   20  C14 UNL     1      27.785   4.997  48.663  1.00  0.00     0.116 A 
HETATM   21  C15 UNL     1      26.537   4.589  49.038  1.00  0.00     0.028 A 
ENDBRANCH  15  16
ENDBRANCH   4  15
TORSDOF 6
ENDMDL
MODEL 9
REMARK VINA RESULT:      -6.6      3.751      6.043
REMARK  6 active torsions:
REMARK  status: ('A' for Active; 'I' for Inactive)
REMARK    1  A    between atoms: C3_3  and  C4_4 
REMARK    2  A    between atoms: C4_4  and  C5_5 
REMARK    3  A    between atoms: C6_6  and  C7_7 
REMARK    4  A    between atoms: C7_7  and  C8_8 
REMARK    5  A    between atoms: N2_11  and  C10_12 
REMARK    6  A    between atoms: C10_12  and  C11_13 
ROOT
HETATM    1  C8  UNL     1      25.864   4.391  49.847  1.00  0.00    -0.030 A 
HETATM    2  C9  UNL     1      26.530   3.165  49.728  1.00  0.00     0.146 A 
HETATM    3  N1  UNL     1      26.113   2.147  50.504  1.00  0.00    -0.181 NA
HETATM    4  N2  UNL     1      25.093   2.303  51.362  1.00  0.00    -0.231 N 
HETATM    5  C16 UNL     1      24.431   3.468  51.500  1.00  0.00     0.264 A 
HETATM    6  O1  UNL     1      23.484   3.535  52.327  1.00  0.00    -0.267 OA
HETATM    7  C17 UNL     1      24.815   4.546  50.730  1.00  0.00     0.085 A 
ENDROOT
BRANCH   1   8
HETATM    8  C7  UNL     1      26.358   5.506  48.964  1.00  0.00     0.067 C 
BRANCH   8   9
HETATM    9  C6  UNL     1      27.770   5.186  48.634  1.00  0.00    -0.026 C 
HETATM   10  C5  UNL     1      28.728   5.927  48.096  1.00  0.00    -0.027 C 
BRANCH  10  11
HETATM   11  C4  UNL     1      28.553   7.336  47.688  1.00  0.00     0.053 C 
BRANCH  11  12
HETATM   12  C3  UNL     1      29.458   8.244  48.450  1.00  0.00    -0.027 C 
HETATM   13  C2  UNL     1      28.995   9.044  49.402  1.00  0.00    -0.035 C 
HETATM   14  C1  UNL     1      27.547   9.040  49.720  1.00  0.00     0.036 C 
ENDBRANCH  11  12
ENDBRANCH  10  11
ENDBRANCH   8   9
ENDBRANCH   1   8
BRANCH   4  15
HETATM   15  C10 UNL     1      24.790   1.108  52.104  1.00  0.00     0.193 C 
BRANCH  15  16
HETATM   16  C11 UNL     1      25.976   0.494  52.757  1.00  0.00    -0.035 A 
HETATM   17  C12 UNL     1      26.384   1.131  53.934  1.00  0.00     0.028 A 
HETATM   18  C13 UNL     1      27.491   0.632  54.627  1.00  0.00     0.116 A 
HETATM   19  N3  UNL     1      28.167  -0.442  54.188  1.00  0.00    -0.273 NA
HETATM   20  C14 UNL     1      27.761  -1.047  53.051  1.00  0.00     0.116 A 
HETATM   21  C15 UNL     1      26.690  -0.620  52.318  1.00  0.00     0.028 A 
ENDBRANCH  15  16
ENDBRANCH   4  15
TORSDOF 6
ENDMDL
