MODEL 1
REMARK VINA RESULT:      -7.9      0.000      0.000
REMARK  4 active torsions:
REMARK  status: ('A' for Active; 'I' for Inactive)
REMARK    1  A    between atoms: C4_4  and  N1_5 
REMARK    2  A    between atoms: N1_5  and  C5_6 
REMARK    3  A    between atoms: C11_12  and  P1_13 
REMARK    4  A    between atoms: P1_13  and  C12_14 
ROOT
HETATM    1  C5  UNL     1      25.627   2.759  51.513  1.00  0.00     0.042 A 
HETATM    2  C6  UNL     1      26.321   3.329  50.537  1.00  0.00     0.010 A 
HETATM    3  C7  UNL     1      25.432   3.567  49.351  1.00  0.00     0.095 A 
HETATM    4  C8  UNL     1      24.131   3.033  49.834  1.00  0.00     0.063 A 
HETATM    5  C9  UNL     1      24.254   2.575  51.066  1.00  0.00     0.028 A 
HETATM    6  C10 UNL     1      22.917   2.072  51.449  1.00  0.00    -0.018 C 
HETATM    7  C11 UNL     1      22.578   1.612  52.639  1.00  0.00     0.018 C 
HETATM    8  C15 UNL     1      22.040   2.177  50.266  1.00  0.00     0.215 C 
HETATM    9  O1  UNL     1      22.853   2.888  49.352  1.00  0.00    -0.350 OA
ENDROOT
BRANCH   1  10
HETATM   10  N1  UNL     1      26.188   2.406  52.775  1.00  0.00    -0.356 N 
HETATM   11  H4  UNL     1      26.152   3.011  53.625  1.00  0.00     0.166 HD
BRANCH  10  12
HETATM   12  C4  UNL     1      26.845   1.123  52.858  1.00  0.00     0.033 A 
HETATM   13  C3  UNL     1      26.279  -0.023  52.516  1.00  0.00     0.040 A 
HETATM   14  C2  UNL     1      27.263  -1.058  52.745  1.00  0.00    -0.037 A 
HETATM   15  C1  UNL     1      27.227  -2.379  52.573  1.00  0.00     0.024 C 
HETATM   16  C17 UNL     1      28.477  -0.424  53.259  1.00  0.00    -0.050 A 
HETATM   17  C16 UNL     1      28.214   0.880  53.321  1.00  0.00     0.037 A 
HETATM   18  C18 UNL     1      29.774  -1.085  53.647  1.00  0.00     0.049 C 
ENDBRANCH  10  12
ENDBRANCH   1  10
BRANCH   7  19
HETATM   19  P1  UNL     1      20.929   0.987  53.130  1.00  0.00    -0.082 P 
HETATM   20  H9  UNL     1      19.991   1.096  52.024  1.00  0.00     0.066 HD
BRANCH  19  21
HETATM   21  C12 UNL     1      20.962  -0.772  53.611  1.00  0.00     0.003 C 
HETATM   22  C13 UNL     1      21.581  -1.668  54.336  1.00  0.00    -0.030 C 
HETATM   23  C14 UNL     1      22.732  -1.187  55.128  1.00  0.00     0.036 C 
ENDBRANCH  19  21
ENDBRANCH   7  19
TORSDOF 4
ENDMDL
MODEL 2
REMARK VINA RESULT:      -7.5      2.348      4.618
REMARK  4 active torsions:
REMARK  status: ('A' for Active; 'I' for Inactive)
REMARK    1  A    between atoms: C4_4  and  N1_5 
REMARK    2  A    between atoms: N1_5  and  C5_6 
REMARK    3  A    between atoms: C11_12  and  P1_13 
REMARK    4  A    between atoms: P1_13  and  C12_14 
ROOT
HETATM    1  C5  UNL     1      24.286  -0.385  53.560  1.00  0.00     0.042 A 
HETATM    2  C6  UNL     1      24.613  -0.964  54.707  1.00  0.00     0.010 A 
HETATM    3  C7  UNL     1      23.372  -1.316  55.474  1.00  0.00     0.095 A 
HETATM    4  C8  UNL     1      22.303  -0.836  54.559  1.00  0.00     0.063 A 
HETATM    5  C9  UNL     1      22.835  -0.307  53.472  1.00  0.00     0.028 A 
HETATM    6  C10 UNL     1      21.698   0.135  52.635  1.00  0.00    -0.018 C 
HETATM    7  C11 UNL     1      21.786   0.636  51.418  1.00  0.00     0.018 C 
HETATM    8  C15 UNL     1      20.459  -0.084  53.407  1.00  0.00     0.215 C 
HETATM    9  O1  UNL     1      20.930  -0.792  54.537  1.00  0.00    -0.350 OA
ENDROOT
BRANCH   1  10
HETATM   10  N1  UNL     1      25.243   0.067  52.605  1.00  0.00    -0.356 N 
HETATM   11  H4  UNL     1      25.024   0.277  51.607  1.00  0.00     0.166 HD
BRANCH  10  12
HETATM   12  C4  UNL     1      26.597   0.236  53.075  1.00  0.00     0.033 A 
HETATM   13  C3  UNL     1      27.067   1.358  53.596  1.00  0.00     0.040 A 
HETATM   14  C2  UNL     1      28.452   1.113  53.935  1.00  0.00    -0.037 A 
HETATM   15  C1  UNL     1      29.389   1.887  54.481  1.00  0.00     0.024 C 
HETATM   16  C17 UNL     1      28.771  -0.267  53.568  1.00  0.00    -0.050 A 
HETATM   17  C16 UNL     1      27.654  -0.780  53.055  1.00  0.00     0.037 A 
HETATM   18  C18 UNL     1      30.085  -0.987  53.725  1.00  0.00     0.049 C 
ENDBRANCH  10  12
ENDBRANCH   1  10
BRANCH   7  19
HETATM   19  P1  UNL     1      20.391   1.188  50.369  1.00  0.00    -0.082 P 
HETATM   20  H9  UNL     1      19.787   2.393  50.915  1.00  0.00     0.066 HD
BRANCH  19  21
HETATM   21  C12 UNL     1      20.911   1.592  48.668  1.00  0.00     0.003 C 
HETATM   22  C13 UNL     1      21.833   2.172  47.943  1.00  0.00    -0.030 C 
HETATM   23  C14 UNL     1      22.958   2.782  48.682  1.00  0.00     0.036 C 
ENDBRANCH  19  21
ENDBRANCH   7  19
TORSDOF 4
ENDMDL
MODEL 3
REMARK VINA RESULT:      -7.5      2.372      5.120
REMARK  4 active torsions:
REMARK  status: ('A' for Active; 'I' for Inactive)
REMARK    1  A    between atoms: C4_4  and  N1_5 
REMARK    2  A    between atoms: N1_5  and  C5_6 
REMARK    3  A    between atoms: C11_12  and  P1_13 
REMARK    4  A    between atoms: P1_13  and  C12_14 
ROOT
HETATM    1  C5  UNL     1      22.590   1.239  51.875  1.00  0.00     0.042 A 
HETATM    2  C6  UNL     1      21.676   0.289  51.731  1.00  0.00     0.010 A 
HETATM    3  C7  UNL     1      21.157   0.289  50.322  1.00  0.00     0.095 A 
HETATM    4  C8  UNL     1      21.938   1.398  49.711  1.00  0.00     0.063 A 
HETATM    5  C9  UNL     1      22.750   1.931  50.605  1.00  0.00     0.028 A 
HETATM    6  C10 UNL     1      23.473   3.014  49.903  1.00  0.00    -0.018 C 
HETATM    7  C11 UNL     1      24.449   3.743  50.409  1.00  0.00     0.018 C 
HETATM    8  C15 UNL     1      22.907   3.127  48.544  1.00  0.00     0.215 C 
HETATM    9  O1  UNL     1      22.041   2.010  48.486  1.00  0.00    -0.350 OA
ENDROOT
BRANCH   1  10
HETATM   10  N1  UNL     1      23.272   1.494  53.100  1.00  0.00    -0.356 N 
HETATM   11  H4  UNL     1      22.812   1.852  53.966  1.00  0.00     0.166 HD
BRANCH  10  12
HETATM   12  C4  UNL     1      24.691   1.234  53.119  1.00  0.00     0.033 A 
HETATM   13  C3  UNL     1      25.231   0.043  52.910  1.00  0.00     0.040 A 
HETATM   14  C2  UNL     1      26.663   0.210  53.014  1.00  0.00    -0.037 A 
HETATM   15  C1  UNL     1      27.674  -0.650  52.893  1.00  0.00     0.024 C 
HETATM   16  C17 UNL     1      26.936   1.617  53.306  1.00  0.00    -0.050 A 
HETATM   17  C16 UNL     1      25.749   2.219  53.367  1.00  0.00     0.037 A 
HETATM   18  C18 UNL     1      28.275   2.280  53.504  1.00  0.00     0.049 C 
ENDBRANCH  10  12
ENDBRANCH   1  10
BRANCH   7  19
HETATM   19  P1  UNL     1      25.355   5.086  49.556  1.00  0.00    -0.082 P 
HETATM   20  H9  UNL     1      25.526   6.228  50.439  1.00  0.00     0.066 HD
BRANCH  19  21
HETATM   21  C12 UNL     1      27.027   4.579  49.031  1.00  0.00     0.003 C 
HETATM   22  C13 UNL     1      28.147   4.990  48.495  1.00  0.00    -0.030 C 
HETATM   23  C14 UNL     1      28.207   6.419  48.119  1.00  0.00     0.036 C 
ENDBRANCH  19  21
ENDBRANCH   7  19
TORSDOF 4
ENDMDL
MODEL 4
REMARK VINA RESULT:      -7.5      1.338      2.121
REMARK  4 active torsions:
REMARK  status: ('A' for Active; 'I' for Inactive)
REMARK    1  A    between atoms: C4_4  and  N1_5 
REMARK    2  A    between atoms: N1_5  and  C5_6 
REMARK    3  A    between atoms: C11_12  and  P1_13 
REMARK    4  A    between atoms: P1_13  and  C12_14 
ROOT
HETATM    1  C5  UNL     1      24.868   2.422  51.932  1.00  0.00     0.042 A 
HETATM    2  C6  UNL     1      25.197   3.214  50.921  1.00  0.00     0.010 A 
HETATM    3  C7  UNL     1      24.151   3.133  49.847  1.00  0.00     0.095 A 
HETATM    4  C8  UNL     1      23.187   2.164  50.435  1.00  0.00     0.063 A 
HETATM    5  C9  UNL     1      23.606   1.765  51.621  1.00  0.00     0.028 A 
HETATM    6  C10 UNL     1      22.587   0.813  52.115  1.00  0.00    -0.018 C 
HETATM    7  C11 UNL     1      22.573   0.248  53.307  1.00  0.00     0.018 C 
HETATM    8  C15 UNL     1      21.599   0.613  51.036  1.00  0.00     0.215 C 
HETATM    9  O1  UNL     1      21.996   1.578  50.081  1.00  0.00    -0.350 OA
ENDROOT
BRANCH   1  10
HETATM   10  N1  UNL     1      25.660   2.277  53.108  1.00  0.00    -0.356 N 
HETATM   11  H4  UNL     1      25.617   2.920  53.929  1.00  0.00     0.166 HD
BRANCH  10  12
HETATM   12  C4  UNL     1      26.574   1.161  53.142  1.00  0.00     0.033 A 
HETATM   13  C3  UNL     1      27.837   1.246  53.529  1.00  0.00     0.040 A 
HETATM   14  C2  UNL     1      28.399  -0.081  53.416  1.00  0.00    -0.037 A 
HETATM   15  C1  UNL     1      29.616  -0.561  53.672  1.00  0.00     0.024 C 
HETATM   16  C17 UNL     1      27.352  -0.977  52.923  1.00  0.00    -0.050 A 
HETATM   17  C16 UNL     1      26.266  -0.222  52.763  1.00  0.00     0.037 A 
HETATM   18  C18 UNL     1      27.452  -2.454  52.644  1.00  0.00     0.049 C 
ENDBRANCH  10  12
ENDBRANCH   1  10
BRANCH   7  19
HETATM   19  P1  UNL     1      21.320  -0.931  53.933  1.00  0.00    -0.082 P 
HETATM   20  H9  UNL     1      21.277  -0.905  55.387  1.00  0.00     0.066 HD
BRANCH  19  21
HETATM   21  C12 UNL     1      19.636  -0.536  53.356  1.00  0.00     0.003 C 
HETATM   22  C13 UNL     1      18.419  -0.997  53.221  1.00  0.00    -0.030 C 
HETATM   23  C14 UNL     1      18.188  -2.381  53.686  1.00  0.00     0.036 C 
ENDBRANCH  19  21
ENDBRANCH   7  19
TORSDOF 4
ENDMDL
MODEL 5
REMARK VINA RESULT:      -7.4      2.492      5.105
REMARK  4 active torsions:
REMARK  status: ('A' for Active; 'I' for Inactive)
REMARK    1  A    between atoms: C4_4  and  N1_5 
REMARK    2  A    between atoms: N1_5  and  C5_6 
REMARK    3  A    between atoms: C11_12  and  P1_13 
REMARK    4  A    between atoms: P1_13  and  C12_14 
ROOT
HETATM    1  C5  UNL     1      25.605   1.111  52.236  1.00  0.00     0.042 A 
HETATM    2  C6  UNL     1      26.913   1.304  52.347  1.00  0.00     0.010 A 
HETATM    3  C7  UNL     1      27.441   0.553  53.535  1.00  0.00     0.095 A 
HETATM    4  C8  UNL     1      26.207  -0.088  54.062  1.00  0.00     0.063 A 
HETATM    5  C9  UNL     1      25.169   0.237  53.315  1.00  0.00     0.028 A 
HETATM    6  C10 UNL     1      24.003  -0.446  53.919  1.00  0.00    -0.018 C 
HETATM    7  C11 UNL     1      22.779  -0.461  53.428  1.00  0.00     0.018 C 
HETATM    8  C15 UNL     1      24.458  -1.100  55.162  1.00  0.00     0.215 C 
HETATM    9  O1  UNL     1      25.860  -0.915  55.103  1.00  0.00    -0.350 OA
ENDROOT
BRANCH   1  10
HETATM   10  N1  UNL     1      24.809   1.691  51.206  1.00  0.00    -0.356 N 
HETATM   11  H4  UNL     1      23.923   1.275  50.844  1.00  0.00     0.166 HD
BRANCH  10  12
HETATM   12  C4  UNL     1      25.280   2.933  50.644  1.00  0.00     0.033 A 
HETATM   13  C3  UNL     1      24.718   4.110  50.868  1.00  0.00     0.040 A 
HETATM   14  C2  UNL     1      25.485   5.087  50.128  1.00  0.00    -0.037 A 
HETATM   15  C1  UNL     1      25.363   6.408  49.999  1.00  0.00     0.024 C 
HETATM   16  C17 UNL     1      26.565   4.385  49.435  1.00  0.00    -0.050 A 
HETATM   17  C16 UNL     1      26.432   3.098  49.751  1.00  0.00     0.037 A 
HETATM   18  C18 UNL     1      27.626   4.970  48.539  1.00  0.00     0.049 C 
ENDBRANCH  10  12
ENDBRANCH   1  10
BRANCH   7  19
HETATM   19  P1  UNL     1      21.326  -1.300  54.161  1.00  0.00    -0.082 P 
HETATM   20  H9  UNL     1      21.261  -1.051  55.592  1.00  0.00     0.066 HD
BRANCH  19  21
HETATM   21  C12 UNL     1      19.749  -0.712  53.458  1.00  0.00     0.003 C 
HETATM   22  C13 UNL     1      18.501  -1.029  53.226  1.00  0.00    -0.030 C 
HETATM   23  C14 UNL     1      18.076  -2.376  53.659  1.00  0.00     0.036 C 
ENDBRANCH  19  21
ENDBRANCH   7  19
TORSDOF 4
ENDMDL
MODEL 6
REMARK VINA RESULT:      -7.3      2.828      6.260
REMARK  4 active torsions:
REMARK  status: ('A' for Active; 'I' for Inactive)
REMARK    1  A    between atoms: C4_4  and  N1_5 
REMARK    2  A    between atoms: N1_5  and  C5_6 
REMARK    3  A    between atoms: C11_12  and  P1_13 
REMARK    4  A    between atoms: P1_13  and  C12_14 
ROOT
HETATM    1  C5  UNL     1      21.137   0.067  52.037  1.00  0.00     0.042 A 
HETATM    2  C6  UNL     1      19.833  -0.095  52.214  1.00  0.00     0.010 A 
HETATM    3  C7  UNL     1      19.573  -0.717  53.556  1.00  0.00     0.095 A 
HETATM    4  C8  UNL     1      20.952  -0.871  54.091  1.00  0.00     0.063 A 
HETATM    5  C9  UNL     1      21.834  -0.422  53.218  1.00  0.00     0.028 A 
HETATM    6  C10 UNL     1      23.161  -0.618  53.841  1.00  0.00    -0.018 C 
HETATM    7  C11 UNL     1      24.315  -0.219  53.341  1.00  0.00     0.018 C 
HETATM    8  C15 UNL     1      22.959  -1.339  55.114  1.00  0.00     0.215 C 
HETATM    9  O1  UNL     1      21.549  -1.348  55.233  1.00  0.00    -0.350 OA
ENDROOT
BRANCH   1  10
HETATM   10  N1  UNL     1      21.707   0.634  50.860  1.00  0.00    -0.356 N 
HETATM   11  H4  UNL     1      21.655   0.199  49.913  1.00  0.00     0.166 HD
BRANCH  10  12
HETATM   12  C4  UNL     1      22.396   1.893  51.013  1.00  0.00     0.033 A 
HETATM   13  C3  UNL     1      22.308   2.661  52.087  1.00  0.00     0.040 A 
HETATM   14  C2  UNL     1      23.142   3.817  51.842  1.00  0.00    -0.037 A 
HETATM   15  C1  UNL     1      23.417   4.893  52.580  1.00  0.00     0.024 C 
HETATM   16  C17 UNL     1      23.742   3.671  50.516  1.00  0.00    -0.050 A 
HETATM   17  C16 UNL     1      23.288   2.517  50.031  1.00  0.00     0.037 A 
HETATM   18  C18 UNL     1      24.683   4.616  49.816  1.00  0.00     0.049 C 
ENDBRANCH  10  12
ENDBRANCH   1  10
BRANCH   7  19
HETATM   19  P1  UNL     1      25.965  -0.454  54.098  1.00  0.00    -0.082 P 
HETATM   20  H9  UNL     1      26.697  -1.506  53.412  1.00  0.00     0.066 HD
BRANCH  19  21
HETATM   21  C12 UNL     1      26.999   1.046  54.003  1.00  0.00     0.003 C 
HETATM   22  C13 UNL     1      27.364   2.043  53.240  1.00  0.00    -0.030 C 
HETATM   23  C14 UNL     1      26.769   2.084  51.887  1.00  0.00     0.036 C 
ENDBRANCH  19  21
ENDBRANCH   7  19
TORSDOF 4
ENDMDL
MODEL 7
REMARK VINA RESULT:      -7.2      1.958      4.659
REMARK  4 active torsions:
REMARK  status: ('A' for Active; 'I' for Inactive)
REMARK    1  A    between atoms: C4_4  and  N1_5 
REMARK    2  A    between atoms: N1_5  and  C5_6 
REMARK    3  A    between atoms: C11_12  and  P1_13 
REMARK    4  A    between atoms: P1_13  and  C12_14 
ROOT
HETATM    1  C5  UNL     1      23.454  -0.545  53.406  1.00  0.00     0.042 A 
HETATM    2  C6  UNL     1      22.921  -1.055  54.509  1.00  0.00     0.010 A 
HETATM    3  C7  UNL     1      21.662  -0.316  54.856  1.00  0.00     0.095 A 
HETATM    4  C8  UNL     1      21.587   0.687  53.761  1.00  0.00     0.063 A 
HETATM    5  C9  UNL     1      22.613   0.548  52.942  1.00  0.00     0.028 A 
HETATM    6  C10 UNL     1      22.445   1.583  51.899  1.00  0.00    -0.018 C 
HETATM    7  C11 UNL     1      23.206   1.733  50.832  1.00  0.00     0.018 C 
HETATM    8  C15 UNL     1      21.281   2.412  52.270  1.00  0.00     0.215 C 
HETATM    9  O1  UNL     1      20.751   1.708  53.376  1.00  0.00    -0.350 OA
ENDROOT
BRANCH   1  10
HETATM   10  N1  UNL     1      24.658  -1.030  52.818  1.00  0.00    -0.356 N 
HETATM   11  H4  UNL     1      24.712  -1.863  52.190  1.00  0.00     0.166 HD
BRANCH  10  12
HETATM   12  C4  UNL     1      25.869  -0.307  53.125  1.00  0.00     0.033 A 
HETATM   13  C3  UNL     1      25.928   1.004  53.291  1.00  0.00     0.040 A 
HETATM   14  C2  UNL     1      27.307   1.326  53.582  1.00  0.00    -0.037 A 
HETATM   15  C1  UNL     1      27.922   2.482  53.832  1.00  0.00     0.024 C 
HETATM   16  C17 UNL     1      28.075   0.081  53.576  1.00  0.00    -0.050 A 
HETATM   17  C16 UNL     1      27.203  -0.888  53.301  1.00  0.00     0.037 A 
HETATM   18  C18 UNL     1      29.550  -0.100  53.825  1.00  0.00     0.049 C 
ENDBRANCH  10  12
ENDBRANCH   1  10
BRANCH   7  19
HETATM   19  P1  UNL     1      23.013   3.007  49.532  1.00  0.00    -0.082 P 
HETATM   20  H9  UNL     1      21.881   3.871  49.827  1.00  0.00     0.066 HD
BRANCH  19  21
HETATM   21  C12 UNL     1      24.473   4.092  49.392  1.00  0.00     0.003 C 
HETATM   22  C13 UNL     1      25.763   4.176  49.592  1.00  0.00    -0.030 C 
HETATM   23  C14 UNL     1      26.417   2.974  50.152  1.00  0.00     0.036 C 
ENDBRANCH  19  21
ENDBRANCH   7  19
TORSDOF 4
ENDMDL
MODEL 8
REMARK VINA RESULT:      -7.1      1.470      2.381
REMARK  4 active torsions:
REMARK  status: ('A' for Active; 'I' for Inactive)
REMARK    1  A    between atoms: C4_4  and  N1_5 
REMARK    2  A    between atoms: N1_5  and  C5_6 
REMARK    3  A    between atoms: C11_12  and  P1_13 
REMARK    4  A    between atoms: P1_13  and  C12_14 
ROOT
HETATM    1  C5  UNL     1      25.565   2.882  51.332  1.00  0.00     0.042 A 
HETATM    2  C6  UNL     1      26.295   3.598  50.487  1.00  0.00     0.010 A 
HETATM    3  C7  UNL     1      25.559   3.764  49.189  1.00  0.00     0.095 A 
HETATM    4  C8  UNL     1      24.300   3.020  49.457  1.00  0.00     0.063 A 
HETATM    5  C9  UNL     1      24.314   2.521  50.679  1.00  0.00     0.028 A 
HETATM    6  C10 UNL     1      23.029   1.808  50.844  1.00  0.00    -0.018 C 
HETATM    7  C11 UNL     1      22.599   1.241  51.955  1.00  0.00     0.018 C 
HETATM    8  C15 UNL     1      22.324   1.844  49.547  1.00  0.00     0.215 C 
HETATM    9  O1  UNL     1      23.141   2.714  48.786  1.00  0.00    -0.350 OA
ENDROOT
BRANCH   1  10
HETATM   10  N1  UNL     1      25.988   2.549  52.652  1.00  0.00    -0.356 N 
HETATM   11  H4  UNL     1      25.778   3.122  53.498  1.00  0.00     0.166 HD
BRANCH  10  12
HETATM   12  C4  UNL     1      26.757   1.338  52.801  1.00  0.00     0.033 A 
HETATM   13  C3  UNL     1      27.987   1.294  53.287  1.00  0.00     0.040 A 
HETATM   14  C2  UNL     1      28.394  -0.094  53.270  1.00  0.00    -0.037 A 
HETATM   15  C1  UNL     1      29.521  -0.699  53.642  1.00  0.00     0.024 C 
HETATM   16  C17 UNL     1      27.289  -0.883  52.725  1.00  0.00    -0.050 A 
HETATM   17  C16 UNL     1      26.317  -0.016  52.449  1.00  0.00     0.037 A 
HETATM   18  C18 UNL     1      27.234  -2.373  52.508  1.00  0.00     0.049 C 
ENDBRANCH  10  12
ENDBRANCH   1  10
BRANCH   7  19
HETATM   19  P1  UNL     1      21.012   0.354  52.176  1.00  0.00    -0.082 P 
HETATM   20  H9  UNL     1      20.882  -0.126  53.542  1.00  0.00     0.066 HD
BRANCH  19  21
HETATM   21  C12 UNL     1      19.565   1.418  51.858  1.00  0.00     0.003 C 
HETATM   22  C13 UNL     1      19.151   2.655  51.763  1.00  0.00    -0.030 C 
HETATM   23  C14 UNL     1      20.169   3.705  51.979  1.00  0.00     0.036 C 
ENDBRANCH  19  21
ENDBRANCH   7  19
TORSDOF 4
ENDMDL
MODEL 9
REMARK VINA RESULT:      -7.1      2.687      4.500
REMARK  4 active torsions:
REMARK  status: ('A' for Active; 'I' for Inactive)
REMARK    1  A    between atoms: C4_4  and  N1_5 
REMARK    2  A    between atoms: N1_5  and  C5_6 
REMARK    3  A    between atoms: C11_12  and  P1_13 
REMARK    4  A    between atoms: P1_13  and  C12_14 
ROOT
HETATM    1  C5  UNL     1      23.570  -0.148  53.282  1.00  0.00     0.042 A 
HETATM    2  C6  UNL     1      23.757  -0.817  54.412  1.00  0.00     0.010 A 
HETATM    3  C7  UNL     1      22.438  -1.297  54.945  1.00  0.00     0.095 A 
HETATM    4  C8  UNL     1      21.491  -0.783  53.920  1.00  0.00     0.063 A 
HETATM    5  C9  UNL     1      22.146  -0.130  52.978  1.00  0.00     0.028 A 
HETATM    6  C10 UNL     1      21.123   0.336  52.018  1.00  0.00    -0.018 C 
HETATM    7  C11 UNL     1      21.361   0.953  50.876  1.00  0.00     0.018 C 
HETATM    8  C15 UNL     1      19.797  -0.013  52.567  1.00  0.00     0.215 C 
HETATM    9  O1  UNL     1      20.136  -0.802  53.691  1.00  0.00    -0.350 OA
ENDROOT
BRANCH   1  10
HETATM   10  N1  UNL     1      24.630   0.436  52.529  1.00  0.00    -0.356 N 
HETATM   11  H4  UNL     1      24.491   1.072  51.713  1.00  0.00     0.166 HD
BRANCH  10  12
HETATM   12  C4  UNL     1      25.974   0.111  52.940  1.00  0.00     0.033 A 
HETATM   13  C3  UNL     1      26.727   0.891  53.699  1.00  0.00     0.040 A 
HETATM   14  C2  UNL     1      27.989   0.206  53.878  1.00  0.00    -0.037 A 
HETATM   15  C1  UNL     1      29.096   0.533  54.544  1.00  0.00     0.024 C 
HETATM   16  C17 UNL     1      27.923  -1.063  53.154  1.00  0.00    -0.050 A 
HETATM   17  C16 UNL     1      26.714  -1.108  52.597  1.00  0.00     0.037 A 
HETATM   18  C18 UNL     1      28.989  -2.122  53.041  1.00  0.00     0.049 C 
ENDBRANCH  10  12
ENDBRANCH   1  10
BRANCH   7  19
HETATM   19  P1  UNL     1      20.107   1.536  49.676  1.00  0.00    -0.082 P 
HETATM   20  H9  UNL     1      19.122   0.497  49.421  1.00  0.00     0.066 HD
BRANCH  19  21
HETATM   21  C12 UNL     1      19.185   2.991  50.277  1.00  0.00     0.003 C 
HETATM   22  C13 UNL     1      19.298   4.174  50.822  1.00  0.00    -0.030 C 
HETATM   23  C14 UNL     1      20.672   4.629  51.119  1.00  0.00     0.036 C 
ENDBRANCH  19  21
ENDBRANCH   7  19
TORSDOF 4
ENDMDL
