MODEL 1
REMARK VINA RESULT:      -7.3      0.000      0.000
REMARK  3 active torsions:
REMARK  status: ('A' for Active; 'I' for Inactive)
REMARK    1  A    between atoms: C2_2  and  C3_3 
REMARK    2  A    between atoms: C3_3  and  C4_4 
REMARK    3  A    between atoms: C7_7  and  N1_8 
ROOT
HETATM    1  N1  UNL     1      24.592   5.728  50.132  1.00  0.00    -0.370 N 
HETATM    2  C8  UNL     1      23.134   5.774  49.960  1.00  0.00     0.083 C 
HETATM    3  C9  UNL     1      23.158   6.438  48.834  1.00  0.00     0.079 A 
HETATM    4  C10 UNL     1      23.090   5.343  47.944  1.00  0.00    -0.029 A 
HETATM    5  P1  UNL     1      23.214   6.798  47.493  1.00  0.00    -0.024 P 
HETATM    6  C11 UNL     1      23.338   8.313  47.213  1.00  0.00     0.121 A 
HETATM    7  N2  UNL     1      23.332   8.604  48.543  1.00  0.00    -0.282 NA
HETATM    8  C12 UNL     1      23.239   7.643  49.469  1.00  0.00     0.108 A 
HETATM    9  C13 UNL     1      23.244   7.573  50.810  1.00  0.00     0.070 C 
HETATM   10  C14 UNL     1      24.312   6.601  51.309  1.00  0.00     0.167 C 
HETATM   11  N3  UNL     1      23.723   5.707  52.278  1.00  0.00    -0.280 NA
HETATM   12  C15 UNL     1      23.659   4.567  53.164  1.00  0.00     0.059 C 
HETATM   13  C16 UNL     1      23.458   3.259  52.827  1.00  0.00     0.011 C 
HETATM   14  C17 UNL     1      23.231   2.394  51.685  1.00  0.00    -0.002 C 
HETATM   15  C18 UNL     1      23.068   2.254  50.383  1.00  0.00    -0.006 C 
HETATM   16  C19 UNL     1      23.005   3.051  49.109  1.00  0.00     0.047 A 
HETATM   17 CL1  UNL     1      22.772   2.172  47.592  1.00  0.00    -0.200 Cl
HETATM   18  C20 UNL     1      22.980   3.921  48.135  1.00  0.00     0.181 A 
HETATM   19  H14 UNL     1      24.680   5.209  52.237  1.00  0.00     0.129 HD
ENDROOT
BRANCH   1  20
HETATM   20  C7  UNL     1      25.768   5.171  49.530  1.00  0.00     0.163 C 
HETATM   21  C3  UNL     1      26.760   6.085  49.026  1.00  0.00    -0.030 C 
BRANCH  21  22
HETATM   22  C2  UNL     1      26.866   7.415  49.113  1.00  0.00    -0.028 C 
HETATM   23  C1  UNL     1      26.938   8.559  49.804  1.00  0.00     0.025 C 
ENDBRANCH  21  22
BRANCH  21  24
HETATM   24  C4  UNL     1      27.844   5.452  48.311  1.00  0.00     0.005 C 
HETATM   25  C5  UNL     1      29.130   5.820  48.426  1.00  0.00    -0.030 C 
HETATM   26  C6  UNL     1      30.226   5.155  47.678  1.00  0.00     0.036 C 
ENDBRANCH  21  24
ENDBRANCH   1  20
TORSDOF 3
ENDMDL
MODEL 2
REMARK VINA RESULT:      -7.3      2.571      4.789
REMARK  3 active torsions:
REMARK  status: ('A' for Active; 'I' for Inactive)
REMARK    1  A    between atoms: C2_2  and  C3_3 
REMARK    2  A    between atoms: C3_3  and  C4_4 
REMARK    3  A    between atoms: C7_7  and  N1_8 
ROOT
HETATM    1  N1  UNL     1      23.373   3.152  51.569  1.00  0.00    -0.370 N 
HETATM    2  C8  UNL     1      22.467   3.990  50.772  1.00  0.00     0.083 C 
HETATM    3  C9  UNL     1      23.393   4.804  50.339  1.00  0.00     0.079 A 
HETATM    4  C10 UNL     1      23.669   4.170  49.107  1.00  0.00    -0.029 A 
HETATM    5  P1  UNL     1      24.411   5.408  49.610  1.00  0.00    -0.024 P 
HETATM    6  C11 UNL     1      25.054   6.651  50.266  1.00  0.00     0.121 A 
HETATM    7  N2  UNL     1      24.238   6.555  51.352  1.00  0.00    -0.282 NA
HETATM    8  C12 UNL     1      23.323   5.585  51.456  1.00  0.00     0.108 A 
HETATM    9  C13 UNL     1      22.420   5.186  52.366  1.00  0.00     0.070 C 
HETATM   10  C14 UNL     1      22.607   3.712  52.721  1.00  0.00     0.167 C 
HETATM   11  N3  UNL     1      21.329   3.043  52.652  1.00  0.00    -0.280 NA
HETATM   12  C15 UNL     1      20.417   1.921  52.649  1.00  0.00     0.059 C 
HETATM   13  C16 UNL     1      20.180   1.043  51.630  1.00  0.00     0.011 C 
HETATM   14  C17 UNL     1      20.566   0.744  50.265  1.00  0.00    -0.002 C 
HETATM   15  C18 UNL     1      21.280   1.044  49.197  1.00  0.00    -0.006 C 
HETATM   16  C19 UNL     1      22.275   2.049  48.686  1.00  0.00     0.047 A 
HETATM   17 CL1  UNL     1      22.903   1.836  47.047  1.00  0.00    -0.200 Cl
HETATM   18  C20 UNL     1      23.117   3.018  48.444  1.00  0.00     0.181 A 
HETATM   19  H14 UNL     1      21.911   2.150  52.822  1.00  0.00     0.129 HD
ENDROOT
BRANCH   1  20
HETATM   20  C7  UNL     1      24.468   2.238  51.419  1.00  0.00     0.163 C 
HETATM   21  C3  UNL     1      24.496   1.080  52.274  1.00  0.00    -0.030 C 
BRANCH  21  22
HETATM   22  C2  UNL     1      23.602   0.599  53.145  1.00  0.00    -0.028 C 
HETATM   23  C1  UNL     1      22.982  -0.402  53.781  1.00  0.00     0.025 C 
ENDBRANCH  21  22
BRANCH  21  24
HETATM   24  C4  UNL     1      25.697   0.286  52.162  1.00  0.00     0.005 C 
HETATM   25  C5  UNL     1      26.575   0.113  53.162  1.00  0.00    -0.030 C 
HETATM   26  C6  UNL     1      27.804  -0.707  53.021  1.00  0.00     0.036 C 
ENDBRANCH  21  24
ENDBRANCH   1  20
TORSDOF 3
ENDMDL
MODEL 3
REMARK VINA RESULT:      -7.0      6.234      9.479
REMARK  3 active torsions:
REMARK  status: ('A' for Active; 'I' for Inactive)
REMARK    1  A    between atoms: C2_2  and  C3_3 
REMARK    2  A    between atoms: C3_3  and  C4_4 
REMARK    3  A    between atoms: C7_7  and  N1_8 
ROOT
HETATM    1  N1  UNL     1      31.985   6.213  47.100  1.00  0.00    -0.370 N 
HETATM    2  C8  UNL     1      32.031   7.031  48.319  1.00  0.00     0.083 C 
HETATM    3  C9  UNL     1      33.324   7.219  48.299  1.00  0.00     0.079 A 
HETATM    4  C10 UNL     1      33.344   8.462  47.629  1.00  0.00    -0.029 A 
HETATM    5  P1  UNL     1      34.602   7.708  48.059  1.00  0.00    -0.024 P 
HETATM    6  C11 UNL     1      35.762   6.819  48.561  1.00  0.00     0.121 A 
HETATM    7  N2  UNL     1      34.897   5.888  49.048  1.00  0.00    -0.282 NA
HETATM    8  C12 UNL     1      33.572   6.040  48.940  1.00  0.00     0.108 A 
HETATM    9  C13 UNL     1      32.478   5.331  49.258  1.00  0.00     0.070 C 
HETATM   10  C14 UNL     1      31.575   5.131  48.042  1.00  0.00     0.167 C 
HETATM   11  N3  UNL     1      30.218   5.472  48.399  1.00  0.00    -0.280 NA
HETATM   12  C15 UNL     1      28.816   5.746  48.175  1.00  0.00     0.059 C 
HETATM   13  C16 UNL     1      28.261   6.887  47.669  1.00  0.00     0.011 C 
HETATM   14  C17 UNL     1      28.608   8.205  47.172  1.00  0.00    -0.002 C 
HETATM   15  C18 UNL     1      29.531   9.109  46.904  1.00  0.00    -0.006 C 
HETATM   16  C19 UNL     1      31.015   9.339  46.979  1.00  0.00     0.047 A 
HETATM   17 CL1  UNL     1      31.647  10.879  46.382  1.00  0.00    -0.200 Cl
HETATM   18  C20 UNL     1      32.312   9.334  47.134  1.00  0.00     0.181 A 
HETATM   19  H14 UNL     1      30.021   5.324  47.348  1.00  0.00     0.129 HD
ENDROOT
BRANCH   1  20
HETATM   20  C7  UNL     1      32.210   6.304  45.687  1.00  0.00     0.163 C 
HETATM   21  C3  UNL     1      33.151   5.388  45.097  1.00  0.00    -0.030 C 
BRANCH  21  22
HETATM   22  C2  UNL     1      33.805   4.338  45.607  1.00  0.00    -0.028 C 
HETATM   23  C1  UNL     1      34.888   3.754  46.132  1.00  0.00     0.025 C 
ENDBRANCH  21  22
BRANCH  21  24
HETATM   24  C4  UNL     1      33.428   5.635  43.701  1.00  0.00     0.005 C 
HETATM   25  C5  UNL     1      33.546   4.666  42.780  1.00  0.00    -0.030 C 
HETATM   26  C6  UNL     1      33.833   4.945  41.351  1.00  0.00     0.036 C 
ENDBRANCH  21  24
ENDBRANCH   1  20
TORSDOF 3
ENDMDL
MODEL 4
REMARK VINA RESULT:      -6.9      2.572      4.855
REMARK  3 active torsions:
REMARK  status: ('A' for Active; 'I' for Inactive)
REMARK    1  A    between atoms: C2_2  and  C3_3 
REMARK    2  A    between atoms: C3_3  and  C4_4 
REMARK    3  A    between atoms: C7_7  and  N1_8 
ROOT
HETATM    1  N1  UNL     1      23.412   4.121  49.148  1.00  0.00    -0.370 N 
HETATM    2  C8  UNL     1      22.163   4.088  49.921  1.00  0.00     0.083 C 
HETATM    3  C9  UNL     1      22.735   4.185  51.092  1.00  0.00     0.079 A 
HETATM    4  C10 UNL     1      22.638   5.584  51.257  1.00  0.00    -0.029 A 
HETATM    5  P1  UNL     1      23.316   4.655  52.264  1.00  0.00    -0.024 P 
HETATM    6  C11 UNL     1      23.956   3.579  53.170  1.00  0.00     0.121 A 
HETATM    7  N2  UNL     1      23.614   2.584  52.306  1.00  0.00    -0.282 NA
HETATM    8  C12 UNL     1      22.957   2.841  51.169  1.00  0.00     0.108 A 
HETATM    9  C13 UNL     1      22.516   2.136  50.115  1.00  0.00     0.070 C 
HETATM   10  C14 UNL     1      23.040   2.718  48.802  1.00  0.00     0.167 C 
HETATM   11  N3  UNL     1      21.940   2.863  47.877  1.00  0.00    -0.280 NA
HETATM   12  C15 UNL     1      21.270   3.290  46.670  1.00  0.00     0.059 C 
HETATM   13  C16 UNL     1      20.816   4.542  46.367  1.00  0.00     0.011 C 
HETATM   14  C17 UNL     1      20.723   5.886  46.904  1.00  0.00    -0.002 C 
HETATM   15  C18 UNL     1      20.947   6.730  47.893  1.00  0.00    -0.006 C 
HETATM   16  C19 UNL     1      21.526   6.797  49.280  1.00  0.00     0.047 A 
HETATM   17 CL1  UNL     1      21.542   8.364  50.097  1.00  0.00    -0.200 Cl
HETATM   18  C20 UNL     1      22.065   6.635  50.458  1.00  0.00     0.181 A 
HETATM   19  H14 UNL     1      22.673   3.357  47.256  1.00  0.00     0.129 HD
ENDROOT
BRANCH   1  20
HETATM   20  C7  UNL     1      24.503   4.996  48.829  1.00  0.00     0.163 C 
HETATM   21  C3  UNL     1      25.831   4.567  49.183  1.00  0.00    -0.030 C 
BRANCH  21  22
HETATM   22  C2  UNL     1      26.288   3.407  49.670  1.00  0.00    -0.028 C 
HETATM   23  C1  UNL     1      26.547   2.558  50.670  1.00  0.00     0.025 C 
ENDBRANCH  21  22
BRANCH  21  24
HETATM   24  C4  UNL     1      26.856   5.559  48.960  1.00  0.00     0.005 C 
HETATM   25  C5  UNL     1      28.054   5.286  48.419  1.00  0.00    -0.030 C 
HETATM   26  C6  UNL     1      29.093   6.324  48.202  1.00  0.00     0.036 C 
ENDBRANCH  21  24
ENDBRANCH   1  20
TORSDOF 3
ENDMDL
MODEL 5
REMARK VINA RESULT:      -6.9      1.783      2.602
REMARK  3 active torsions:
REMARK  status: ('A' for Active; 'I' for Inactive)
REMARK    1  A    between atoms: C2_2  and  C3_3 
REMARK    2  A    between atoms: C3_3  and  C4_4 
REMARK    3  A    between atoms: C7_7  and  N1_8 
ROOT
HETATM    1  N1  UNL     1      23.297   5.140  49.800  1.00  0.00    -0.370 N 
HETATM    2  C8  UNL     1      21.870   5.258  49.471  1.00  0.00     0.083 C 
HETATM    3  C9  UNL     1      21.960   6.448  48.937  1.00  0.00     0.079 A 
HETATM    4  C10 UNL     1      22.099   6.061  47.586  1.00  0.00    -0.029 A 
HETATM    5  P1  UNL     1      22.135   7.513  48.062  1.00  0.00    -0.024 P 
HETATM    6  C11 UNL     1      22.145   8.916  48.711  1.00  0.00     0.121 A 
HETATM    7  N2  UNL     1      21.960   8.391  49.953  1.00  0.00    -0.282 NA
HETATM    8  C12 UNL     1      21.853   7.072  50.146  1.00  0.00     0.108 A 
HETATM    9  C13 UNL     1      21.711   6.245  51.195  1.00  0.00     0.070 C 
HETATM   10  C14 UNL     1      22.803   5.176  51.208  1.00  0.00     0.167 C 
HETATM   11  N3  UNL     1      22.194   3.881  51.400  1.00  0.00    -0.280 NA
HETATM   12  C15 UNL     1      22.137   2.438  51.465  1.00  0.00     0.059 C 
HETATM   13  C16 UNL     1      22.101   1.558  50.421  1.00  0.00     0.011 C 
HETATM   14  C17 UNL     1      22.090   1.502  48.971  1.00  0.00    -0.002 C 
HETATM   15  C18 UNL     1      22.091   2.133  47.812  1.00  0.00    -0.006 C 
HETATM   16  C19 UNL     1      22.098   3.515  47.220  1.00  0.00     0.047 A 
HETATM   17 CL1  UNL     1      22.125   3.663  45.459  1.00  0.00    -0.200 Cl
HETATM   18  C20 UNL     1      22.103   4.786  46.919  1.00  0.00     0.181 A 
HETATM   19  H14 UNL     1      23.192   3.508  51.227  1.00  0.00     0.129 HD
ENDROOT
BRANCH   1  20
HETATM   20  C7  UNL     1      24.582   5.043  49.172  1.00  0.00     0.163 C 
HETATM   21  C3  UNL     1      25.533   4.117  49.730  1.00  0.00    -0.030 C 
BRANCH  21  22
HETATM   22  C2  UNL     1      25.414   3.198  50.695  1.00  0.00    -0.028 C 
HETATM   23  C1  UNL     1      25.911   2.267  51.517  1.00  0.00     0.025 C 
ENDBRANCH  21  22
BRANCH  21  24
HETATM   24  C4  UNL     1      26.846   4.179  49.133  1.00  0.00     0.005 C 
HETATM   25  C5  UNL     1      27.445   5.321  48.760  1.00  0.00    -0.030 C 
HETATM   26  C6  UNL     1      28.795   5.358  48.146  1.00  0.00     0.036 C 
ENDBRANCH  21  24
ENDBRANCH   1  20
TORSDOF 3
ENDMDL
MODEL 6
REMARK VINA RESULT:      -6.9      2.401      4.128
REMARK  3 active torsions:
REMARK  status: ('A' for Active; 'I' for Inactive)
REMARK    1  A    between atoms: C2_2  and  C3_3 
REMARK    2  A    between atoms: C3_3  and  C4_4 
REMARK    3  A    between atoms: C7_7  and  N1_8 
ROOT
HETATM    1  N1  UNL     1      23.869   4.805  49.651  1.00  0.00    -0.370 N 
HETATM    2  C8  UNL     1      23.802   5.220  51.059  1.00  0.00     0.083 C 
HETATM    3  C9  UNL     1      22.907   6.154  50.875  1.00  0.00     0.079 A 
HETATM    4  C10 UNL     1      21.752   5.402  51.185  1.00  0.00    -0.029 A 
HETATM    5  P1  UNL     1      21.719   6.860  50.728  1.00  0.00    -0.024 P 
HETATM    6  C11 UNL     1      21.866   8.325  50.258  1.00  0.00     0.121 A 
HETATM    7  N2  UNL     1      23.222   8.218  50.207  1.00  0.00    -0.282 NA
HETATM    8  C12 UNL     1      23.847   7.079  50.525  1.00  0.00     0.108 A 
HETATM    9  C13 UNL     1      25.112   6.631  50.545  1.00  0.00     0.070 C 
HETATM   10  C14 UNL     1      25.257   5.345  49.732  1.00  0.00     0.167 C 
HETATM   11  N3  UNL     1      25.971   4.366  50.518  1.00  0.00    -0.280 NA
HETATM   12  C15 UNL     1      26.507   3.065  50.848  1.00  0.00     0.059 C 
HETATM   13  C16 UNL     1      25.830   1.986  51.341  1.00  0.00     0.011 C 
HETATM   14  C17 UNL     1      24.507   1.555  51.751  1.00  0.00    -0.002 C 
HETATM   15  C18 UNL     1      23.230   1.832  51.933  1.00  0.00    -0.006 C 
HETATM   16  C19 UNL     1      22.234   2.952  51.803  1.00  0.00     0.047 A 
HETATM   17 CL1  UNL     1      20.549   2.616  52.219  1.00  0.00    -0.200 Cl
HETATM   18  C20 UNL     1      21.545   4.045  51.620  1.00  0.00     0.181 A 
HETATM   19  H14 UNL     1      25.737   3.701  49.700  1.00  0.00     0.129 HD
ENDROOT
BRANCH   1  20
HETATM   20  C7  UNL     1      23.068   4.195  48.630  1.00  0.00     0.163 C 
HETATM   21  C3  UNL     1      22.632   5.025  47.536  1.00  0.00    -0.030 C 
BRANCH  21  22
HETATM   22  C2  UNL     1      22.935   6.285  47.204  1.00  0.00    -0.028 C 
HETATM   23  C1  UNL     1      23.776   7.229  46.766  1.00  0.00     0.025 C 
ENDBRANCH  21  22
BRANCH  21  24
HETATM   24  C4  UNL     1      21.717   4.378  46.626  1.00  0.00     0.005 C 
HETATM   25  C5  UNL     1      21.785   4.492  45.290  1.00  0.00    -0.030 C 
HETATM   26  C6  UNL     1      20.830   3.818  44.376  1.00  0.00     0.036 C 
ENDBRANCH  21  24
ENDBRANCH   1  20
TORSDOF 3
ENDMDL
MODEL 7
REMARK VINA RESULT:      -6.8      5.192      8.932
REMARK  3 active torsions:
REMARK  status: ('A' for Active; 'I' for Inactive)
REMARK    1  A    between atoms: C2_2  and  C3_3 
REMARK    2  A    between atoms: C3_3  and  C4_4 
REMARK    3  A    between atoms: C7_7  and  N1_8 
ROOT
HETATM    1  N1  UNL     1      30.845   7.320  46.546  1.00  0.00    -0.370 N 
HETATM    2  C8  UNL     1      31.993   8.234  46.621  1.00  0.00     0.083 C 
HETATM    3  C9  UNL     1      31.627   8.807  47.737  1.00  0.00     0.079 A 
HETATM    4  C10 UNL     1      32.376   8.014  48.635  1.00  0.00    -0.029 A 
HETATM    5  P1  UNL     1      31.427   9.129  49.074  1.00  0.00    -0.024 P 
HETATM    6  C11 UNL     1      30.435  10.284  49.342  1.00  0.00     0.121 A 
HETATM    7  N2  UNL     1      30.206  10.454  48.011  1.00  0.00    -0.282 NA
HETATM    8  C12 UNL     1      30.813   9.693  47.093  1.00  0.00     0.108 A 
HETATM    9  C13 UNL     1      30.790   9.567  45.757  1.00  0.00     0.070 C 
HETATM   10  C14 UNL     1      30.493   8.127  45.341  1.00  0.00     0.167 C 
HETATM   11  N3  UNL     1      31.456   7.714  44.348  1.00  0.00    -0.280 NA
HETATM   12  C15 UNL     1      32.149   6.795  43.474  1.00  0.00     0.059 C 
HETATM   13  C16 UNL     1      33.107   5.883  43.814  1.00  0.00     0.011 C 
HETATM   14  C17 UNL     1      33.857   5.381  44.949  1.00  0.00    -0.002 C 
HETATM   15  C18 UNL     1      34.130   5.431  46.239  1.00  0.00    -0.006 C 
HETATM   16  C19 UNL     1      33.762   6.171  47.497  1.00  0.00     0.047 A 
HETATM   17 CL1  UNL     1      34.542   5.680  49.005  1.00  0.00    -0.200 Cl
HETATM   18  C20 UNL     1      33.306   6.931  48.455  1.00  0.00     0.181 A 
HETATM   19  H14 UNL     1      30.990   6.746  44.458  1.00  0.00     0.129 HD
ENDROOT
BRANCH   1  20
HETATM   20  C7  UNL     1      30.264   6.202  47.231  1.00  0.00     0.163 C 
HETATM   21  C3  UNL     1      28.906   6.330  47.692  1.00  0.00    -0.030 C 
BRANCH  21  22
HETATM   22  C2  UNL     1      27.991   7.287  47.499  1.00  0.00    -0.028 C 
HETATM   23  C1  UNL     1      27.468   8.495  47.736  1.00  0.00     0.025 C 
ENDBRANCH  21  22
BRANCH  21  24
HETATM   24  C4  UNL     1      28.441   5.222  48.492  1.00  0.00     0.005 C 
HETATM   25  C5  UNL     1      27.146   4.965  48.732  1.00  0.00    -0.030 C 
HETATM   26  C6  UNL     1      26.693   3.820  49.561  1.00  0.00     0.036 C 
ENDBRANCH  21  24
ENDBRANCH   1  20
TORSDOF 3
ENDMDL
MODEL 8
REMARK VINA RESULT:      -6.7      5.558      8.752
REMARK  3 active torsions:
REMARK  status: ('A' for Active; 'I' for Inactive)
REMARK    1  A    between atoms: C2_2  and  C3_3 
REMARK    2  A    between atoms: C3_3  and  C4_4 
REMARK    3  A    between atoms: C7_7  and  N1_8 
ROOT
HETATM    1  N1  UNL     1      31.105   6.649  47.231  1.00  0.00    -0.370 N 
HETATM    2  C8  UNL     1      31.351   6.747  48.676  1.00  0.00     0.083 C 
HETATM    3  C9  UNL     1      32.607   7.091  48.569  1.00  0.00     0.079 A 
HETATM    4  C10 UNL     1      32.446   8.493  48.642  1.00  0.00    -0.029 A 
HETATM    5  P1  UNL     1      33.793   7.802  48.434  1.00  0.00    -0.024 P 
HETATM    6  C11 UNL     1      35.064   6.946  48.232  1.00  0.00     0.121 A 
HETATM    7  N2  UNL     1      34.349   5.790  48.289  1.00  0.00    -0.282 NA
HETATM    8  C12 UNL     1      33.023   5.796  48.467  1.00  0.00     0.108 A 
HETATM    9  C13 UNL     1      32.041   4.883  48.529  1.00  0.00     0.070 C 
HETATM   10  C14 UNL     1      30.929   5.197  47.528  1.00  0.00     0.167 C 
HETATM   11  N3  UNL     1      29.653   5.128  48.202  1.00  0.00    -0.280 NA
HETATM   12  C15 UNL     1      28.225   5.286  48.357  1.00  0.00     0.059 C 
HETATM   13  C16 UNL     1      27.536   6.441  48.597  1.00  0.00     0.011 C 
HETATM   14  C17 UNL     1      27.725   7.863  48.807  1.00  0.00    -0.002 C 
HETATM   15  C18 UNL     1      28.540   8.895  48.914  1.00  0.00    -0.006 C 
HETATM   16  C19 UNL     1      30.001   9.255  48.882  1.00  0.00     0.047 A 
HETATM   17 CL1  UNL     1      30.440  10.955  49.080  1.00  0.00    -0.200 Cl
HETATM   18  C20 UNL     1      31.302   9.347  48.823  1.00  0.00     0.181 A 
HETATM   19  H14 UNL     1      29.264   5.500  47.266  1.00  0.00     0.129 HD
ENDROOT
BRANCH   1  20
HETATM   20  C7  UNL     1      31.048   7.464  46.052  1.00  0.00     0.163 C 
HETATM   21  C3  UNL     1      31.981   7.177  44.994  1.00  0.00    -0.030 C 
BRANCH  21  22
HETATM   22  C2  UNL     1      32.858   6.179  44.831  1.00  0.00    -0.028 C 
HETATM   23  C1  UNL     1      33.172   4.898  44.606  1.00  0.00     0.025 C 
ENDBRANCH  21  22
BRANCH  21  24
HETATM   24  C4  UNL     1      31.957   8.125  43.906  1.00  0.00     0.005 C 
HETATM   25  C5  UNL     1      32.827   9.140  43.779  1.00  0.00    -0.030 C 
HETATM   26  C6  UNL     1      32.780  10.104  42.651  1.00  0.00     0.036 C 
ENDBRANCH  21  24
ENDBRANCH   1  20
TORSDOF 3
ENDMDL
MODEL 9
REMARK VINA RESULT:      -6.2      5.852      8.609
REMARK  3 active torsions:
REMARK  status: ('A' for Active; 'I' for Inactive)
REMARK    1  A    between atoms: C2_2  and  C3_3 
REMARK    2  A    between atoms: C3_3  and  C4_4 
REMARK    3  A    between atoms: C7_7  and  N1_8 
ROOT
HETATM    1  N1  UNL     1      32.443   7.100  47.368  1.00  0.00    -0.370 N 
HETATM    2  C8  UNL     1      31.945   6.370  48.542  1.00  0.00     0.083 C 
HETATM    3  C9  UNL     1      30.680   6.606  48.312  1.00  0.00     0.079 A 
HETATM    4  C10 UNL     1      30.370   5.418  47.614  1.00  0.00    -0.029 A 
HETATM    5  P1  UNL     1      29.368   6.546  47.859  1.00  0.00    -0.024 P 
HETATM    6  C11 UNL     1      28.489   7.772  48.193  1.00  0.00     0.121 A 
HETATM    7  N2  UNL     1      29.518   8.389  48.837  1.00  0.00    -0.282 NA
HETATM    8  C12 UNL     1      30.724   7.818  48.937  1.00  0.00     0.108 A 
HETATM    9  C13 UNL     1      31.922   8.147  49.444  1.00  0.00     0.070 C 
HETATM   10  C14 UNL     1      33.023   8.017  48.392  1.00  0.00     0.167 C 
HETATM   11  N3  UNL     1      34.125   7.269  48.951  1.00  0.00    -0.280 NA
HETATM   12  C15 UNL     1      35.381   6.555  48.945  1.00  0.00     0.059 C 
HETATM   13  C16 UNL     1      35.615   5.284  48.503  1.00  0.00     0.011 C 
HETATM   14  C17 UNL     1      34.949   4.134  47.922  1.00  0.00    -0.002 C 
HETATM   15  C18 UNL     1      33.840   3.566  47.487  1.00  0.00    -0.006 C 
HETATM   16  C19 UNL     1      32.368   3.825  47.319  1.00  0.00     0.047 A 
HETATM   17 CL1  UNL     1      31.381   2.554  46.587  1.00  0.00    -0.200 Cl
HETATM   18  C20 UNL     1      31.134   4.249  47.266  1.00  0.00     0.181 A 
HETATM   19  H14 UNL     1      34.523   7.319  47.948  1.00  0.00     0.129 HD
ENDROOT
BRANCH   1  20
HETATM   20  C7  UNL     1      32.429   7.048  45.935  1.00  0.00     0.163 C 
HETATM   21  C3  UNL     1      31.890   8.181  45.229  1.00  0.00    -0.030 C 
BRANCH  21  22
HETATM   22  C2  UNL     1      31.486   9.383  45.658  1.00  0.00    -0.028 C 
HETATM   23  C1  UNL     1      30.546  10.249  46.052  1.00  0.00     0.025 C 
ENDBRANCH  21  22
BRANCH  21  24
HETATM   24  C4  UNL     1      31.780   7.996  43.801  1.00  0.00     0.005 C 
HETATM   25  C5  UNL     1      32.501   7.103  43.105  1.00  0.00    -0.030 C 
HETATM   26  C6  UNL     1      32.371   6.934  41.637  1.00  0.00     0.036 C 
ENDBRANCH  21  24
ENDBRANCH   1  20
TORSDOF 3
ENDMDL
