MODEL 1
REMARK VINA RESULT:      -9.0      0.000      0.000
REMARK  0 active torsions:
REMARK  status: ('A' for Active; 'I' for Inactive)
ROOT
HETATM    1  C1  UNL     1      24.820  -0.709  55.871  1.00  0.00     0.018 C 
HETATM    2  C2  UNL     1      25.255  -0.352  54.481  1.00  0.00     0.054 C 
HETATM    3  C3  UNL     1      24.568  -1.200  53.445  1.00  0.00     0.160 C 
HETATM    4  N1  UNL     1      23.183  -0.842  53.410  1.00  0.00    -0.284 NA
HETATM    5  C4  UNL     1      22.321  -0.864  54.332  1.00  0.00     0.198 C 
HETATM    6  N2  UNL     1      21.315  -0.364  53.410  1.00  0.00    -0.379 N 
HETATM    7  C5  UNL     1      20.210  -1.202  53.784  1.00  0.00     0.150 C 
HETATM    8  C6  UNL     1      21.350   0.715  52.429  1.00  0.00     0.142 C 
HETATM    9  C7  UNL     1      20.647   1.946  52.879  1.00  0.00     0.142 C 
HETATM   10  N3  UNL     1      20.623   3.034  51.907  1.00  0.00    -0.356 N 
HETATM   11  C8  UNL     1      21.398   3.889  51.098  1.00  0.00     0.241 C 
HETATM   12  O1  UNL     1      22.167   3.089  51.738  1.00  0.00    -0.269 OA
HETATM   13  C9  UNL     1      22.630   4.381  50.561  1.00  0.00     0.079 C 
HETATM   14  C10 UNL     1      23.880   4.590  50.250  1.00  0.00     0.080 C 
HETATM   15  C11 UNL     1      25.146   4.010  50.558  1.00  0.00     0.246 C 
HETATM   16  O2  UNL     1      26.268   4.373  50.142  1.00  0.00    -0.268 OA
HETATM   17  N4  UNL     1      25.942   3.065  51.202  1.00  0.00    -0.308 N 
HETATM   18  C12 UNL     1      26.746   2.128  51.839  1.00  0.00     0.130 C 
HETATM   19  C13 UNL     1      26.613   0.819  51.928  1.00  0.00     0.060 C 
HETATM   20  C14 UNL     1      27.058   0.288  53.188  1.00  0.00    -0.015 A 
HETATM   21  C15 UNL     1      26.706  -0.228  54.335  1.00  0.00     0.046 A 
HETATM   22  N5  UNL     1      27.894  -0.474  55.071  1.00  0.00    -0.268 NA
HETATM   23  C16 UNL     1      28.945  -0.121  54.425  1.00  0.00     0.104 A 
HETATM   24  C17 UNL     1      28.512   0.431  53.112  1.00  0.00     0.102 A 
HETATM   25  C18 UNL     1      28.758   1.928  53.090  1.00  0.00     0.107 C 
HETATM   26  N6  UNL     1      27.886   2.695  52.461  1.00  0.00    -0.246 NA
HETATM   27  H15 UNL     1      19.726   3.491  51.545  1.00  0.00     0.162 HD
HETATM   28  H18 UNL     1      25.101   2.709  51.691  1.00  0.00     0.170 HD
ENDROOT
TORSDOF 0
ENDMDL
MODEL 2
REMARK VINA RESULT:      -8.9      2.379      5.363
REMARK  0 active torsions:
REMARK  status: ('A' for Active; 'I' for Inactive)
ROOT
HETATM    1  C1  UNL     1      26.302   3.279  49.374  1.00  0.00     0.018 C 
HETATM    2  C2  UNL     1      25.474   3.120  50.614  1.00  0.00     0.054 C 
HETATM    3  C3  UNL     1      24.660   4.352  50.905  1.00  0.00     0.160 C 
HETATM    4  N1  UNL     1      23.648   4.476  49.900  1.00  0.00    -0.284 NA
HETATM    5  C4  UNL     1      23.763   4.569  48.647  1.00  0.00     0.198 C 
HETATM    6  N2  UNL     1      22.318   4.636  48.514  1.00  0.00    -0.379 N 
HETATM    7  C5  UNL     1      22.216   5.681  47.533  1.00  0.00     0.150 C 
HETATM    8  C6  UNL     1      21.250   3.850  49.123  1.00  0.00     0.142 C 
HETATM    9  C7  UNL     1      20.660   2.844  48.202  1.00  0.00     0.142 C 
HETATM   10  N3  UNL     1      19.558   2.066  48.761  1.00  0.00    -0.356 N 
HETATM   11  C8  UNL     1      19.150   1.210  49.802  1.00  0.00     0.241 C 
HETATM   12  O1  UNL     1      20.370   1.557  49.984  1.00  0.00    -0.269 OA
HETATM   13  C9  UNL     1      19.349   0.479  51.017  1.00  0.00     0.079 C 
HETATM   14  C10 UNL     1      19.822  -0.046  52.114  1.00  0.00     0.080 C 
HETATM   15  C11 UNL     1      21.035   0.012  52.863  1.00  0.00     0.246 C 
HETATM   16  O2  UNL     1      21.299  -0.591  53.927  1.00  0.00    -0.268 OA
HETATM   17  N4  UNL     1      22.329   0.483  53.074  1.00  0.00    -0.308 N 
HETATM   18  C12 UNL     1      23.621   0.945  53.294  1.00  0.00     0.130 C 
HETATM   19  C13 UNL     1      24.100   2.173  53.249  1.00  0.00     0.060 C 
HETATM   20  C14 UNL     1      25.446   2.238  52.747  1.00  0.00    -0.015 A 
HETATM   21  C15 UNL     1      26.218   2.572  51.749  1.00  0.00     0.046 A 
HETATM   22  N5  UNL     1      27.550   2.251  52.118  1.00  0.00    -0.268 NA
HETATM   23  C16 UNL     1      27.616   1.733  53.290  1.00  0.00     0.104 A 
HETATM   24  C17 UNL     1      26.233   1.655  53.835  1.00  0.00     0.102 A 
HETATM   25  C18 UNL     1      25.797   0.203  53.899  1.00  0.00     0.107 C 
HETATM   26  N6  UNL     1      24.534  -0.082  53.638  1.00  0.00    -0.246 NA
HETATM   27  H15 UNL     1      18.583   2.014  48.324  1.00  0.00     0.162 HD
HETATM   28  H18 UNL     1      22.285   0.972  52.162  1.00  0.00     0.170 HD
ENDROOT
TORSDOF 0
ENDMDL
MODEL 3
REMARK VINA RESULT:      -8.8      2.603      5.464
REMARK  0 active torsions:
REMARK  status: ('A' for Active; 'I' for Inactive)
ROOT
HETATM    1  C1  UNL     1      22.710   3.416  48.385  1.00  0.00     0.018 C 
HETATM    2  C2  UNL     1      23.101   3.233  49.821  1.00  0.00     0.054 C 
HETATM    3  C3  UNL     1      22.304   4.125  50.734  1.00  0.00     0.160 C 
HETATM    4  N1  UNL     1      20.948   3.668  50.747  1.00  0.00    -0.284 NA
HETATM    5  C4  UNL     1      20.134   3.532  49.793  1.00  0.00     0.198 C 
HETATM    6  N2  UNL     1      19.122   3.051  50.718  1.00  0.00    -0.379 N 
HETATM    7  C5  UNL     1      17.979   3.761  50.214  1.00  0.00     0.150 C 
HETATM    8  C6  UNL     1      19.185   2.081  51.806  1.00  0.00     0.142 C 
HETATM    9  C7  UNL     1      18.596   0.762  51.456  1.00  0.00     0.142 C 
HETATM   10  N3  UNL     1      18.601  -0.223  52.533  1.00  0.00    -0.356 N 
HETATM   11  C8  UNL     1      19.394  -0.932  53.458  1.00  0.00     0.241 C 
HETATM   12  O1  UNL     1      20.135  -0.142  52.772  1.00  0.00    -0.269 OA
HETATM   13  C9  UNL     1      20.630  -1.272  54.094  1.00  0.00     0.079 C 
HETATM   14  C10 UNL     1      21.875  -1.353  54.477  1.00  0.00     0.080 C 
HETATM   15  C11 UNL     1      23.110  -0.712  54.164  1.00  0.00     0.246 C 
HETATM   16  O2  UNL     1      24.233  -0.945  54.662  1.00  0.00    -0.268 OA
HETATM   17  N4  UNL     1      23.867   0.222  53.461  1.00  0.00    -0.308 N 
HETATM   18  C12 UNL     1      24.633   1.150  52.764  1.00  0.00     0.130 C 
HETATM   19  C13 UNL     1      24.410   2.430  52.536  1.00  0.00     0.060 C 
HETATM   20  C14 UNL     1      24.878   2.865  51.247  1.00  0.00    -0.015 A 
HETATM   21  C15 UNL     1      24.548   3.236  50.040  1.00  0.00     0.046 A 
HETATM   22  N5  UNL     1      25.750   3.496  49.332  1.00  0.00    -0.268 NA
HETATM   23  C16 UNL     1      26.790   3.292  50.055  1.00  0.00     0.104 A 
HETATM   24  C17 UNL     1      26.334   2.841  51.399  1.00  0.00     0.102 A 
HETATM   25  C18 UNL     1      26.684   1.377  51.585  1.00  0.00     0.107 C 
HETATM   26  N6  UNL     1      25.839   0.612  52.253  1.00  0.00    -0.246 NA
HETATM   27  H15 UNL     1      17.723  -0.709  52.902  1.00  0.00     0.162 HD
HETATM   28  H18 UNL     1      23.028   0.463  52.903  1.00  0.00     0.170 HD
ENDROOT
TORSDOF 0
ENDMDL
MODEL 4
REMARK VINA RESULT:      -8.5      1.824      3.165
REMARK  0 active torsions:
REMARK  status: ('A' for Active; 'I' for Inactive)
ROOT
HETATM    1  C1  UNL     1      20.824   0.219  54.389  1.00  0.00     0.018 C 
HETATM    2  C2  UNL     1      22.057   0.083  53.546  1.00  0.00     0.054 C 
HETATM    3  C3  UNL     1      21.765  -0.598  52.235  1.00  0.00     0.160 C 
HETATM    4  N1  UNL     1      20.967   0.279  51.434  1.00  0.00    -0.284 NA
HETATM    5  C4  UNL     1      19.842   0.795  51.680  1.00  0.00     0.198 C 
HETATM    6  N2  UNL     1      19.864   1.468  50.392  1.00  0.00    -0.379 N 
HETATM    7  C5  UNL     1      18.505   1.247  49.982  1.00  0.00     0.150 C 
HETATM    8  C6  UNL     1      20.910   2.221  49.709  1.00  0.00     0.142 C 
HETATM    9  C7  UNL     1      20.716   3.693  49.771  1.00  0.00     0.142 C 
HETATM   10  N3  UNL     1      21.720   4.480  49.062  1.00  0.00    -0.356 N 
HETATM   11  C8  UNL     1      23.093   4.765  48.928  1.00  0.00     0.241 C 
HETATM   12  O1  UNL     1      22.926   3.864  49.825  1.00  0.00    -0.269 OA
HETATM   13  C9  UNL     1      24.478   4.594  49.250  1.00  0.00     0.079 C 
HETATM   14  C10 UNL     1      25.624   4.207  49.740  1.00  0.00     0.080 C 
HETATM   15  C11 UNL     1      26.088   3.235  50.675  1.00  0.00     0.246 C 
HETATM   16  O2  UNL     1      27.271   3.018  51.019  1.00  0.00    -0.268 OA
HETATM   17  N4  UNL     1      25.873   2.196  51.577  1.00  0.00    -0.308 N 
HETATM   18  C12 UNL     1      25.670   1.159  52.481  1.00  0.00     0.130 C 
HETATM   19  C13 UNL     1      24.943   0.065  52.364  1.00  0.00     0.060 C 
HETATM   20  C14 UNL     1      24.326  -0.339  53.598  1.00  0.00    -0.015 A 
HETATM   21  C15 UNL     1      23.216  -0.428  54.279  1.00  0.00     0.046 A 
HETATM   22  N5  UNL     1      23.537  -0.985  55.544  1.00  0.00    -0.268 NA
HETATM   23  C16 UNL     1      24.791  -1.229  55.659  1.00  0.00     0.104 A 
HETATM   24  C17 UNL     1      25.457  -0.821  54.392  1.00  0.00     0.102 A 
HETATM   25  C18 UNL     1      26.310   0.409  54.643  1.00  0.00     0.107 C 
HETATM   26  N6  UNL     1      26.384   1.323  53.693  1.00  0.00    -0.246 NA
HETATM   27  H15 UNL     1      21.491   5.181  48.288  1.00  0.00     0.162 HD
HETATM   28  H18 UNL     1      24.851   2.319  51.456  1.00  0.00     0.170 HD
ENDROOT
TORSDOF 0
ENDMDL
MODEL 5
REMARK VINA RESULT:      -8.3      1.618      2.101
REMARK  0 active torsions:
REMARK  status: ('A' for Active; 'I' for Inactive)
ROOT
HETATM    1  C1  UNL     1      22.177  -0.718  55.055  1.00  0.00     0.018 C 
HETATM    2  C2  UNL     1      22.906  -0.235  53.837  1.00  0.00     0.054 C 
HETATM    3  C3  UNL     1      22.341  -0.831  52.575  1.00  0.00     0.160 C 
HETATM    4  N1  UNL     1      21.035  -0.286  52.360  1.00  0.00    -0.284 NA
HETATM    5  C4  UNL     1      20.016  -0.318  53.105  1.00  0.00     0.198 C 
HETATM    6  N2  UNL     1      19.265   0.438  52.116  1.00  0.00    -0.379 N 
HETATM    7  C5  UNL     1      18.024  -0.286  52.154  1.00  0.00     0.150 C 
HETATM    8  C6  UNL     1      19.603   1.627  51.342  1.00  0.00     0.142 C 
HETATM    9  C7  UNL     1      18.965   2.867  51.856  1.00  0.00     0.142 C 
HETATM   10  N3  UNL     1      19.246   4.073  51.081  1.00  0.00    -0.356 N 
HETATM   11  C8  UNL     1      20.248   4.917  50.566  1.00  0.00     0.241 C 
HETATM   12  O1  UNL     1      20.790   3.939  51.191  1.00  0.00    -0.269 OA
HETATM   13  C9  UNL     1      21.607   5.306  50.335  1.00  0.00     0.079 C 
HETATM   14  C10 UNL     1      22.908   5.384  50.281  1.00  0.00     0.080 C 
HETATM   15  C11 UNL     1      24.022   4.600  50.706  1.00  0.00     0.246 C 
HETATM   16  O2  UNL     1      25.235   4.861  50.553  1.00  0.00    -0.268 OA
HETATM   17  N4  UNL     1      24.572   3.476  51.316  1.00  0.00    -0.308 N 
HETATM   18  C12 UNL     1      25.134   2.359  51.924  1.00  0.00     0.130 C 
HETATM   19  C13 UNL     1      24.844   1.080  51.777  1.00  0.00     0.060 C 
HETATM   20  C14 UNL     1      24.981   0.325  52.993  1.00  0.00    -0.015 A 
HETATM   21  C15 UNL     1      24.363  -0.291  53.964  1.00  0.00     0.046 A 
HETATM   22  N5  UNL     1      25.354  -0.795  54.845  1.00  0.00    -0.268 NA
HETATM   23  C16 UNL     1      26.541  -0.504  54.455  1.00  0.00     0.104 A 
HETATM   24  C17 UNL     1      26.430   0.278  53.193  1.00  0.00     0.102 A 
HETATM   25  C18 UNL     1      26.836   1.716  53.454  1.00  0.00     0.107 C 
HETATM   26  N6  UNL     1      26.188   2.674  52.816  1.00  0.00    -0.246 NA
HETATM   27  H15 UNL     1      18.489   4.693  50.649  1.00  0.00     0.162 HD
HETATM   28  H18 UNL     1      23.620   3.174  51.590  1.00  0.00     0.170 HD
ENDROOT
TORSDOF 0
ENDMDL
MODEL 6
REMARK VINA RESULT:      -8.3      2.189      7.449
REMARK  0 active torsions:
REMARK  status: ('A' for Active; 'I' for Inactive)
ROOT
HETATM    1  C1  UNL     1      21.726   4.135  50.661  1.00  0.00     0.018 C 
HETATM    2  C2  UNL     1      21.757   2.658  50.916  1.00  0.00     0.054 C 
HETATM    3  C3  UNL     1      22.715   1.951  49.995  1.00  0.00     0.160 C 
HETATM    4  N1  UNL     1      24.050   2.330  50.350  1.00  0.00    -0.284 NA
HETATM    5  C4  UNL     1      24.578   3.475  50.395  1.00  0.00     0.198 C 
HETATM    6  N2  UNL     1      25.833   2.884  50.828  1.00  0.00    -0.379 N 
HETATM    7  C5  UNL     1      26.746   3.644  50.019  1.00  0.00     0.150 C 
HETATM    8  C6  UNL     1      26.132   1.870  51.833  1.00  0.00     0.142 C 
HETATM    9  C7  UNL     1      26.685   2.432  53.093  1.00  0.00     0.142 C 
HETATM   10  N3  UNL     1      27.038   1.443  54.108  1.00  0.00    -0.356 N 
HETATM   11  C8  UNL     1      26.576   0.375  54.901  1.00  0.00     0.241 C 
HETATM   12  O1  UNL     1      25.627   0.794  54.149  1.00  0.00    -0.269 OA
HETATM   13  C9  UNL     1      25.586  -0.556  55.352  1.00  0.00     0.079 C 
HETATM   14  C10 UNL     1      24.502  -1.258  55.537  1.00  0.00     0.080 C 
HETATM   15  C11 UNL     1      23.190  -1.324  54.980  1.00  0.00     0.246 C 
HETATM   16  O2  UNL     1      22.264  -2.097  55.312  1.00  0.00    -0.268 OA
HETATM   17  N4  UNL     1      22.212  -0.900  54.085  1.00  0.00    -0.308 N 
HETATM   18  C12 UNL     1      21.227  -0.484  53.196  1.00  0.00     0.130 C 
HETATM   19  C13 UNL     1      21.296  -0.268  51.897  1.00  0.00     0.060 C 
HETATM   20  C14 UNL     1      20.466   0.822  51.459  1.00  0.00    -0.015 A 
HETATM   21  C15 UNL     1      20.429   2.054  51.028  1.00  0.00     0.046 A 
HETATM   22  N5  UNL     1      19.065   2.395  50.836  1.00  0.00    -0.268 NA
HETATM   23  C16 UNL     1      18.278   1.428  51.140  1.00  0.00     0.104 A 
HETATM   24  C17 UNL     1      19.113   0.283  51.596  1.00  0.00     0.102 A 
HETATM   25  C18 UNL     1      18.921   0.081  53.087  1.00  0.00     0.107 C 
HETATM   26  N6  UNL     1      19.963  -0.293  53.807  1.00  0.00    -0.246 NA
HETATM   27  H15 UNL     1      28.013   1.352  54.538  1.00  0.00     0.162 HD
HETATM   28  H18 UNL     1      22.848  -0.147  53.766  1.00  0.00     0.170 HD
ENDROOT
TORSDOF 0
ENDMDL
MODEL 7
REMARK VINA RESULT:      -7.9      7.310     10.538
REMARK  0 active torsions:
REMARK  status: ('A' for Active; 'I' for Inactive)
ROOT
HETATM    1  C1  UNL     1      31.902  10.422  46.680  1.00  0.00     0.018 C 
HETATM    2  C2  UNL     1      31.469   9.380  47.667  1.00  0.00     0.054 C 
HETATM    3  C3  UNL     1      31.097   9.986  48.993  1.00  0.00     0.160 C 
HETATM    4  N1  UNL     1      29.892  10.740  48.827  1.00  0.00    -0.284 NA
HETATM    5  C4  UNL     1      29.646  11.708  48.056  1.00  0.00     0.198 C 
HETATM    6  N2  UNL     1      28.287  11.775  48.565  1.00  0.00    -0.379 N 
HETATM    7  C5  UNL     1      28.149  13.199  48.692  1.00  0.00     0.150 C 
HETATM    8  C6  UNL     1      27.294  10.737  48.820  1.00  0.00     0.142 C 
HETATM    9  C7  UNL     1      26.234  10.666  47.781  1.00  0.00     0.142 C 
HETATM   10  N3  UNL     1      25.197   9.666  48.024  1.00  0.00    -0.356 N 
HETATM   11  C8  UNL     1      24.926   8.303  48.255  1.00  0.00     0.241 C 
HETATM   12  O1  UNL     1      26.191   8.478  48.143  1.00  0.00    -0.269 OA
HETATM   13  C9  UNL     1      25.299   6.935  48.451  1.00  0.00     0.079 C 
HETATM   14  C10 UNL     1      25.939   5.809  48.608  1.00  0.00     0.080 C 
HETATM   15  C11 UNL     1      27.297   5.376  48.661  1.00  0.00     0.246 C 
HETATM   16  O2  UNL     1      27.715   4.208  48.823  1.00  0.00    -0.268 OA
HETATM   17  N4  UNL     1      28.668   5.619  48.623  1.00  0.00    -0.308 N 
HETATM   18  C12 UNL     1      30.038   5.850  48.586  1.00  0.00     0.130 C 
HETATM   19  C13 UNL     1      30.760   6.762  49.208  1.00  0.00     0.060 C 
HETATM   20  C14 UNL     1      31.869   7.236  48.426  1.00  0.00    -0.015 A 
HETATM   21  C15 UNL     1      32.365   8.224  47.730  1.00  0.00     0.046 A 
HETATM   22  N5  UNL     1      33.630   7.806  47.242  1.00  0.00    -0.268 NA
HETATM   23  C16 UNL     1      33.916   6.609  47.605  1.00  0.00     0.104 A 
HETATM   24  C17 UNL     1      32.782   6.093  48.419  1.00  0.00     0.102 A 
HETATM   25  C18 UNL     1      32.053   5.014  47.641  1.00  0.00     0.107 C 
HETATM   26  N6  UNL     1      30.740   4.937  47.761  1.00  0.00    -0.246 NA
HETATM   27  H15 UNL     1      24.153   9.892  48.083  1.00  0.00     0.162 HD
HETATM   28  H18 UNL     1      28.472   6.611  48.396  1.00  0.00     0.170 HD
ENDROOT
TORSDOF 0
ENDMDL
MODEL 8
REMARK VINA RESULT:      -7.9      2.713      4.301
REMARK  0 active torsions:
REMARK  status: ('A' for Active; 'I' for Inactive)
ROOT
HETATM    1  C1  UNL     1      20.014  -0.033  52.890  1.00  0.00     0.018 C 
HETATM    2  C2  UNL     1      21.088   0.629  52.080  1.00  0.00     0.054 C 
HETATM    3  C3  UNL     1      20.887   0.415  50.604  1.00  0.00     0.160 C 
HETATM    4  N1  UNL     1      19.727   1.145  50.192  1.00  0.00    -0.284 NA
HETATM    5  C4  UNL     1      18.535   1.064  50.600  1.00  0.00     0.198 C 
HETATM    6  N2  UNL     1      18.141   2.112  49.674  1.00  0.00    -0.379 N 
HETATM    7  C5  UNL     1      16.910   1.552  49.188  1.00  0.00     0.150 C 
HETATM    8  C6  UNL     1      18.747   3.399  49.352  1.00  0.00     0.142 C 
HETATM    9  C7  UNL     1      18.047   4.553  49.975  1.00  0.00     0.142 C 
HETATM   10  N3  UNL     1      18.598   5.863  49.641  1.00  0.00    -0.356 N 
HETATM   11  C8  UNL     1      19.746   6.679  49.650  1.00  0.00     0.241 C 
HETATM   12  O1  UNL     1      20.035   5.525  50.126  1.00  0.00    -0.269 OA
HETATM   13  C9  UNL     1      21.130   6.947  49.902  1.00  0.00     0.079 C 
HETATM   14  C10 UNL     1      22.393   6.879  50.223  1.00  0.00     0.080 C 
HETATM   15  C11 UNL     1      23.296   5.891  50.716  1.00  0.00     0.246 C 
HETATM   16  O2  UNL     1      24.513   6.034  50.968  1.00  0.00    -0.268 OA
HETATM   17  N4  UNL     1      23.591   4.599  51.143  1.00  0.00    -0.308 N 
HETATM   18  C12 UNL     1      23.897   3.312  51.572  1.00  0.00     0.130 C 
HETATM   19  C13 UNL     1      23.602   2.147  51.029  1.00  0.00     0.060 C 
HETATM   20  C14 UNL     1      23.342   1.119  52.001  1.00  0.00    -0.015 A 
HETATM   21  C15 UNL     1      22.440   0.372  52.577  1.00  0.00     0.046 A 
HETATM   22  N5  UNL     1      23.107  -0.438  53.532  1.00  0.00    -0.268 NA
HETATM   23  C16 UNL     1      24.369  -0.207  53.565  1.00  0.00     0.104 A 
HETATM   24  C17 UNL     1      24.667   0.854  52.564  1.00  0.00     0.102 A 
HETATM   25  C18 UNL     1      25.048   2.134  53.286  1.00  0.00     0.107 C 
HETATM   26  N6  UNL     1      24.660   3.284  52.764  1.00  0.00    -0.246 NA
HETATM   27  H15 UNL     1      18.030   6.653  49.195  1.00  0.00     0.162 HD
HETATM   28  H18 UNL     1      22.587   4.357  51.062  1.00  0.00     0.170 HD
ENDROOT
TORSDOF 0
ENDMDL
MODEL 9
REMARK VINA RESULT:      -7.7      2.013      6.254
REMARK  0 active torsions:
REMARK  status: ('A' for Active; 'I' for Inactive)
ROOT
HETATM    1  C1  UNL     1      19.398  -0.150  52.048  1.00  0.00     0.018 C 
HETATM    2  C2  UNL     1      20.092   1.178  52.100  1.00  0.00     0.054 C 
HETATM    3  C3  UNL     1      20.560   1.509  53.491  1.00  0.00     0.160 C 
HETATM    4  N1  UNL     1      21.625   0.617  53.837  1.00  0.00    -0.284 NA
HETATM    5  C4  UNL     1      21.637  -0.643  53.885  1.00  0.00     0.198 C 
HETATM    6  N2  UNL     1      23.033  -0.620  54.287  1.00  0.00    -0.379 N 
HETATM    7  C5  UNL     1      23.004  -1.623  55.315  1.00  0.00     0.150 C 
HETATM    8  C6  UNL     1      24.176   0.131  53.779  1.00  0.00     0.142 C 
HETATM    9  C7  UNL     1      25.085  -0.681  52.928  1.00  0.00     0.142 C 
HETATM   10  N3  UNL     1      26.264   0.024  52.435  1.00  0.00    -0.356 N 
HETATM   11  C8  UNL     1      26.737   1.136  51.710  1.00  0.00     0.241 C 
HETATM   12  O1  UNL     1      25.457   1.170  51.765  1.00  0.00    -0.269 OA
HETATM   13  C9  UNL     1      26.573   2.349  50.968  1.00  0.00     0.079 C 
HETATM   14  C10 UNL     1      26.110   3.407  50.360  1.00  0.00     0.080 C 
HETATM   15  C11 UNL     1      24.839   4.016  50.142  1.00  0.00     0.246 C 
HETATM   16  O2  UNL     1      24.601   5.067  49.506  1.00  0.00    -0.268 OA
HETATM   17  N4  UNL     1      23.456   4.066  50.299  1.00  0.00    -0.308 N 
HETATM   18  C12 UNL     1      22.075   4.126  50.449  1.00  0.00     0.130 C 
HETATM   19  C13 UNL     1      21.335   3.982  51.531  1.00  0.00     0.060 C 
HETATM   20  C14 UNL     1      20.077   3.334  51.274  1.00  0.00    -0.015 A 
HETATM   21  C15 UNL     1      19.369   2.245  51.407  1.00  0.00     0.046 A 
HETATM   22  N5  UNL     1      18.113   2.478  50.789  1.00  0.00    -0.268 NA
HETATM   23  C16 UNL     1      18.034   3.655  50.283  1.00  0.00     0.104 A 
HETATM   24  C17 UNL     1      19.326   4.351  50.537  1.00  0.00     0.102 A 
HETATM   25  C18 UNL     1      20.074   4.517  49.227  1.00  0.00     0.107 C 
HETATM   26  N6  UNL     1      21.390   4.407  49.242  1.00  0.00    -0.246 NA
HETATM   27  H15 UNL     1      27.269  -0.300  52.608  1.00  0.00     0.162 HD
HETATM   28  H18 UNL     1      23.490   3.146  50.775  1.00  0.00     0.170 HD
ENDROOT
TORSDOF 0
ENDMDL
