MODEL 1
REMARK VINA RESULT:      -8.8      0.000      0.000
REMARK  8 active torsions:
REMARK  status: ('A' for Active; 'I' for Inactive)
REMARK    1  A    between atoms: C2_2  and  C3_3 
REMARK    2  A    between atoms: C2_2  and  N2_13 
REMARK    3  A    between atoms: C4_4  and  C5_5 
REMARK    4  A    between atoms: C5_5  and  C6_6 
REMARK    5  A    between atoms: C6_6  and  N1_7 
REMARK    6  A    between atoms: N2_13  and  C11_14 
REMARK    7  A    between atoms: C14_17  and  N3_18 
REMARK    8  A    between atoms: N3_18  and  C15_19 
ROOT
HETATM    1  C11 UNL     1      26.450   2.228  51.326  1.00  0.00     0.125 A 
HETATM    2  C12 UNL     1      25.565   1.268  51.815  1.00  0.00     0.068 A 
HETATM    3  C13 UNL     1      25.976   0.773  53.030  1.00  0.00     0.044 A 
HETATM    4  C14 UNL     1      25.195  -0.191  53.685  1.00  0.00     0.142 A 
HETATM    5  N4  UNL     1      25.534  -0.692  54.862  1.00  0.00    -0.224 NA
HETATM    6  C20 UNL     1      26.660  -0.290  55.491  1.00  0.00     0.236 A 
HETATM    7  N5  UNL     1      27.461   0.637  54.918  1.00  0.00    -0.240 NA
HETATM    8  C21 UNL     1      27.098   1.132  53.726  1.00  0.00     0.089 A 
HETATM    9  C22 UNL     1      27.935   2.093  53.175  1.00  0.00     0.151 A 
HETATM   10  N6  UNL     1      27.557   2.608  51.966  1.00  0.00    -0.241 NA
ENDROOT
BRANCH   1  11
HETATM   11  N2  UNL     1      26.196   2.928  50.111  1.00  0.00    -0.360 N 
HETATM   12  H17 UNL     1      26.372   2.366  49.245  1.00  0.00     0.162 HD
BRANCH  11  13
HETATM   13  C2  UNL     1      25.754   4.246  49.815  1.00  0.00     0.159 C 
HETATM   14  C1  UNL     1      24.499   4.292  48.941  1.00  0.00     0.046 C 
BRANCH  13  15
HETATM   15  C3  UNL     1      26.836   4.968  49.090  1.00  0.00    -0.082 C 
HETATM   16  C4  UNL     1      27.717   5.552  48.525  1.00  0.00    -0.103 C 
BRANCH  16  17
HETATM   17  C5  UNL     1      28.775   6.237  47.831  1.00  0.00     0.124 C 
BRANCH  17  18
HETATM   18  C6  UNL     1      30.171   5.796  48.020  1.00  0.00     0.284 C 
BRANCH  18  19
HETATM   19  N1  UNL     1      30.969   6.319  49.050  1.00  0.00     0.093 N 
HETATM   20  C7  UNL     1      31.016   7.799  49.019  1.00  0.00     0.298 C 
HETATM   21  C8  UNL     1      31.886   8.328  47.941  1.00  0.00     0.198 C 
HETATM   22  O1  UNL     1      32.535   7.301  47.224  1.00  0.00    -0.388 OA
HETATM   23  C9  UNL     1      33.233   6.475  48.066  1.00  0.00     0.198 C 
HETATM   24  C10 UNL     1      32.311   5.854  49.128  1.00  0.00     0.298 C 
ENDBRANCH  18  19
ENDBRANCH  17  18
ENDBRANCH  16  17
ENDBRANCH  13  15
ENDBRANCH  11  13
ENDBRANCH   1  11
BRANCH   4  25
HETATM   25  N3  UNL     1      23.982  -0.686  53.135  1.00  0.00    -0.342 N 
HETATM   26  H19 UNL     1      23.895  -1.465  52.437  1.00  0.00     0.167 HD
BRANCH  25  27
HETATM   27  C15 UNL     1      22.684  -0.167  53.468  1.00  0.00     0.036 A 
HETATM   28  C16 UNL     1      21.863  -0.571  54.427  1.00  0.00     0.030 A 
HETATM   29  C17 UNL     1      20.646   0.250  54.396  1.00  0.00     0.042 A 
HETATM   30  C18 UNL     1      20.756   1.146  53.405  1.00  0.00     0.118 A 
HETATM   31  F1  UNL     1      19.949   2.122  52.940  1.00  0.00    -0.209 F 
HETATM   32  C19 UNL     1      22.063   0.985  52.730  1.00  0.00     0.194 A 
HETATM   33 CL1  UNL     1      21.831   0.640  51.021  1.00  0.00    -0.111 Cl
ENDBRANCH  25  27
ENDBRANCH   4  25
TORSDOF 8
ENDMDL
MODEL 2
REMARK VINA RESULT:      -8.4      4.191      8.083
REMARK  8 active torsions:
REMARK  status: ('A' for Active; 'I' for Inactive)
REMARK    1  A    between atoms: C2_2  and  C3_3 
REMARK    2  A    between atoms: C2_2  and  N2_13 
REMARK    3  A    between atoms: C4_4  and  C5_5 
REMARK    4  A    between atoms: C5_5  and  C6_6 
REMARK    5  A    between atoms: C6_6  and  N1_7 
REMARK    6  A    between atoms: N2_13  and  C11_14 
REMARK    7  A    between atoms: C14_17  and  N3_18 
REMARK    8  A    between atoms: N3_18  and  C15_19 
ROOT
HETATM    1  C11 UNL     1      24.684  -0.267  53.929  1.00  0.00     0.125 A 
HETATM    2  C12 UNL     1      25.068   0.542  52.860  1.00  0.00     0.068 A 
HETATM    3  C13 UNL     1      26.290   1.130  53.085  1.00  0.00     0.044 A 
HETATM    4  C14 UNL     1      26.848   1.965  52.105  1.00  0.00     0.142 A 
HETATM    5  N4  UNL     1      28.026   2.545  52.261  1.00  0.00    -0.224 NA
HETATM    6  C20 UNL     1      28.753   2.355  53.384  1.00  0.00     0.236 A 
HETATM    7  N5  UNL     1      28.277   1.563  54.371  1.00  0.00    -0.240 NA
HETATM    8  C21 UNL     1      27.082   0.983  54.192  1.00  0.00     0.089 A 
HETATM    9  C22 UNL     1      26.632   0.164  55.218  1.00  0.00     0.151 A 
HETATM   10  N6  UNL     1      25.419  -0.439  55.029  1.00  0.00    -0.241 NA
ENDROOT
BRANCH   1  11
HETATM   11  N2  UNL     1      23.480  -1.030  53.892  1.00  0.00    -0.360 N 
HETATM   12  H17 UNL     1      23.628  -2.065  53.829  1.00  0.00     0.162 HD
BRANCH  11  13
HETATM   13  C2  UNL     1      22.102  -0.685  53.916  1.00  0.00     0.159 C 
HETATM   14  C1  UNL     1      21.180  -1.857  54.259  1.00  0.00     0.046 C 
BRANCH  13  15
HETATM   15  C3  UNL     1      21.707  -0.178  52.572  1.00  0.00    -0.082 C 
HETATM   16  C4  UNL     1      21.383   0.248  51.500  1.00  0.00    -0.103 C 
BRANCH  16  17
HETATM   17  C5  UNL     1      21.014   0.752  50.204  1.00  0.00     0.124 C 
BRANCH  17  18
HETATM   18  C6  UNL     1      19.743   1.486  50.045  1.00  0.00     0.284 C 
BRANCH  18  19
HETATM   19  N1  UNL     1      19.722   2.824  49.620  1.00  0.00     0.093 N 
HETATM   20  C7  UNL     1      20.730   3.648  50.326  1.00  0.00     0.298 C 
HETATM   21  C8  UNL     1      20.336   3.978  51.717  1.00  0.00     0.198 C 
HETATM   22  O1  UNL     1      19.051   3.494  52.040  1.00  0.00    -0.388 OA
HETATM   23  C9  UNL     1      18.116   3.934  51.140  1.00  0.00     0.198 C 
HETATM   24  C10 UNL     1      18.478   3.510  49.707  1.00  0.00     0.298 C 
ENDBRANCH  18  19
ENDBRANCH  17  18
ENDBRANCH  16  17
ENDBRANCH  13  15
ENDBRANCH  11  13
ENDBRANCH   1  11
BRANCH   4  25
HETATM   25  N3  UNL     1      26.190   2.234  50.874  1.00  0.00    -0.342 N 
HETATM   26  H19 UNL     1      26.026   1.545  50.100  1.00  0.00     0.167 HD
BRANCH  25  27
HETATM   27  C15 UNL     1      25.655   3.520  50.519  1.00  0.00     0.036 A 
HETATM   28  C16 UNL     1      26.221   4.467  49.785  1.00  0.00     0.030 A 
HETATM   29  C17 UNL     1      25.307   5.611  49.685  1.00  0.00     0.042 A 
HETATM   30  C18 UNL     1      24.191   5.330  50.372  1.00  0.00     0.118 A 
HETATM   31  F1  UNL     1      23.049   6.010  50.611  1.00  0.00    -0.209 F 
HETATM   32  C19 UNL     1      24.291   3.973  50.954  1.00  0.00     0.194 A 
HETATM   33 CL1  UNL     1      24.133   4.044  52.704  1.00  0.00    -0.111 Cl
ENDBRANCH  25  27
ENDBRANCH   4  25
TORSDOF 8
ENDMDL
MODEL 3
REMARK VINA RESULT:      -8.4      1.816      2.382
REMARK  8 active torsions:
REMARK  status: ('A' for Active; 'I' for Inactive)
REMARK    1  A    between atoms: C2_2  and  C3_3 
REMARK    2  A    between atoms: C2_2  and  N2_13 
REMARK    3  A    between atoms: C4_4  and  C5_5 
REMARK    4  A    between atoms: C5_5  and  C6_6 
REMARK    5  A    between atoms: C6_6  and  N1_7 
REMARK    6  A    between atoms: N2_13  and  C11_14 
REMARK    7  A    between atoms: C14_17  and  N3_18 
REMARK    8  A    between atoms: N3_18  and  C15_19 
ROOT
HETATM    1  C11 UNL     1      26.637   2.146  51.414  1.00  0.00     0.125 A 
HETATM    2  C12 UNL     1      25.690   1.224  51.859  1.00  0.00     0.068 A 
HETATM    3  C13 UNL     1      26.019   0.717  53.093  1.00  0.00     0.044 A 
HETATM    4  C14 UNL     1      25.168  -0.214  53.709  1.00  0.00     0.142 A 
HETATM    5  N4  UNL     1      25.427  -0.724  54.901  1.00  0.00    -0.224 NA
HETATM    6  C20 UNL     1      26.536  -0.367  55.586  1.00  0.00     0.236 A 
HETATM    7  N5  UNL     1      27.401   0.525  55.053  1.00  0.00    -0.240 NA
HETATM    8  C21 UNL     1      27.120   1.031  53.845  1.00  0.00     0.089 A 
HETATM    9  C22 UNL     1      28.021   1.955  53.336  1.00  0.00     0.151 A 
HETATM   10  N6  UNL     1      27.726   2.482  52.109  1.00  0.00    -0.241 NA
ENDROOT
BRANCH   1  11
HETATM   11  N2  UNL     1      26.473   2.852  50.187  1.00  0.00    -0.360 N 
HETATM   12  H17 UNL     1      26.833   2.344  49.345  1.00  0.00     0.162 HD
BRANCH  11  13
HETATM   13  C2  UNL     1      25.923   4.120  49.854  1.00  0.00     0.159 C 
HETATM   14  C1  UNL     1      24.669   4.036  48.981  1.00  0.00     0.046 C 
BRANCH  13  15
HETATM   15  C3  UNL     1      26.942   4.908  49.107  1.00  0.00    -0.082 C 
HETATM   16  C4  UNL     1      27.777   5.533  48.517  1.00  0.00    -0.103 C 
BRANCH  16  17
HETATM   17  C5  UNL     1      28.770   6.278  47.789  1.00  0.00     0.124 C 
BRANCH  17  18
HETATM   18  C6  UNL     1      29.164   7.620  48.265  1.00  0.00     0.284 C 
BRANCH  18  19
HETATM   19  N1  UNL     1      28.894   8.771  47.508  1.00  0.00     0.093 N 
HETATM   20  C7  UNL     1      29.056  10.010  48.303  1.00  0.00     0.298 C 
HETATM   21  C8  UNL     1      27.937  10.244  49.246  1.00  0.00     0.198 C 
HETATM   22  O1  UNL     1      26.924   9.270  49.128  1.00  0.00    -0.388 OA
HETATM   23  C9  UNL     1      26.475   9.177  47.836  1.00  0.00     0.198 C 
HETATM   24  C10 UNL     1      27.624   8.841  46.871  1.00  0.00     0.298 C 
ENDBRANCH  18  19
ENDBRANCH  17  18
ENDBRANCH  16  17
ENDBRANCH  13  15
ENDBRANCH  11  13
ENDBRANCH   1  11
BRANCH   4  25
HETATM   25  N3  UNL     1      23.965  -0.660  53.099  1.00  0.00    -0.342 N 
HETATM   26  H19 UNL     1      23.888  -1.392  52.350  1.00  0.00     0.167 HD
BRANCH  25  27
HETATM   27  C15 UNL     1      22.664  -0.150  53.433  1.00  0.00     0.036 A 
HETATM   28  C16 UNL     1      21.839  -0.571  54.382  1.00  0.00     0.030 A 
HETATM   29  C17 UNL     1      20.619   0.246  54.358  1.00  0.00     0.042 A 
HETATM   30  C18 UNL     1      20.731   1.157  53.381  1.00  0.00     0.118 A 
HETATM   31  F1  UNL     1      19.923   2.138  52.926  1.00  0.00    -0.209 F 
HETATM   32  C19 UNL     1      22.042   1.010  52.710  1.00  0.00     0.194 A 
HETATM   33 CL1  UNL     1      21.820   0.690  50.995  1.00  0.00    -0.111 Cl
ENDBRANCH  25  27
ENDBRANCH   4  25
TORSDOF 8
ENDMDL
MODEL 4
REMARK VINA RESULT:      -8.3      3.089      5.266
REMARK  8 active torsions:
REMARK  status: ('A' for Active; 'I' for Inactive)
REMARK    1  A    between atoms: C2_2  and  C3_3 
REMARK    2  A    between atoms: C2_2  and  N2_13 
REMARK    3  A    between atoms: C4_4  and  C5_5 
REMARK    4  A    between atoms: C5_5  and  C6_6 
REMARK    5  A    between atoms: C6_6  and  N1_7 
REMARK    6  A    between atoms: N2_13  and  C11_14 
REMARK    7  A    between atoms: C14_17  and  N3_18 
REMARK    8  A    between atoms: N3_18  and  C15_19 
ROOT
HETATM    1  C11 UNL     1      26.831   2.467  51.966  1.00  0.00     0.125 A 
HETATM    2  C12 UNL     1      25.782   1.562  52.124  1.00  0.00     0.068 A 
HETATM    3  C13 UNL     1      25.977   0.747  53.214  1.00  0.00     0.044 A 
HETATM    4  C14 UNL     1      25.010  -0.216  53.540  1.00  0.00     0.142 A 
HETATM    5  N4  UNL     1      25.138  -1.017  54.585  1.00  0.00    -0.224 NA
HETATM    6  C20 UNL     1      26.219  -0.940  55.393  1.00  0.00     0.236 A 
HETATM    7  N5  UNL     1      27.191  -0.035  55.138  1.00  0.00    -0.240 NA
HETATM    8  C21 UNL     1      27.040   0.768  54.075  1.00  0.00     0.089 A 
HETATM    9  C22 UNL     1      28.049   1.695  53.853  1.00  0.00     0.151 A 
HETATM   10  N6  UNL     1      27.888   2.524  52.777  1.00  0.00    -0.241 NA
ENDROOT
BRANCH   1  11
HETATM   11  N2  UNL     1      26.815   3.456  50.939  1.00  0.00    -0.360 N 
HETATM   12  H17 UNL     1      26.980   4.433  51.279  1.00  0.00     0.162 HD
BRANCH  11  13
HETATM   13  C2  UNL     1      26.613   3.404  49.533  1.00  0.00     0.159 C 
HETATM   14  C1  UNL     1      27.280   4.552  48.773  1.00  0.00     0.046 C 
BRANCH  13  15
HETATM   15  C3  UNL     1      25.151   3.464  49.252  1.00  0.00    -0.082 C 
HETATM   16  C4  UNL     1      23.972   3.499  49.041  1.00  0.00    -0.103 C 
BRANCH  16  17
HETATM   17  C5  UNL     1      22.558   3.564  48.787  1.00  0.00     0.124 C 
BRANCH  17  18
HETATM   18  C6  UNL     1      21.880   4.876  48.783  1.00  0.00     0.284 C 
BRANCH  18  19
HETATM   19  N1  UNL     1      20.901   5.194  49.738  1.00  0.00     0.093 N 
HETATM   20  C7  UNL     1      20.786   6.655  49.950  1.00  0.00     0.298 C 
HETATM   21  C8  UNL     1      21.898   7.213  50.757  1.00  0.00     0.198 C 
HETATM   22  O1  UNL     1      22.787   6.214  51.207  1.00  0.00    -0.388 OA
HETATM   23  C9  UNL     1      22.120   5.230  51.890  1.00  0.00     0.198 C 
HETATM   24  C10 UNL     1      21.027   4.589  51.019  1.00  0.00     0.298 C 
ENDBRANCH  18  19
ENDBRANCH  17  18
ENDBRANCH  16  17
ENDBRANCH  13  15
ENDBRANCH  11  13
ENDBRANCH   1  11
BRANCH   4  25
HETATM   25  N3  UNL     1      23.823  -0.388  52.778  1.00  0.00    -0.342 N 
HETATM   26  H19 UNL     1      23.752  -0.872  51.850  1.00  0.00     0.167 HD
BRANCH  25  27
HETATM   27  C15 UNL     1      22.534   0.097  53.188  1.00  0.00     0.036 A 
HETATM   28  C16 UNL     1      21.815  -0.277  54.238  1.00  0.00     0.030 A 
HETATM   29  C17 UNL     1      20.563   0.488  54.261  1.00  0.00     0.042 A 
HETATM   30  C18 UNL     1      20.547   1.319  53.210  1.00  0.00     0.118 A 
HETATM   31  F1  UNL     1      19.658   2.228  52.756  1.00  0.00    -0.209 F 
HETATM   32  C19 UNL     1      21.799   1.170  52.436  1.00  0.00     0.194 A 
HETATM   33 CL1  UNL     1      21.443   0.702  50.779  1.00  0.00    -0.111 Cl
ENDBRANCH  25  27
ENDBRANCH   4  25
TORSDOF 8
ENDMDL
MODEL 5
REMARK VINA RESULT:      -8.2      2.696      4.401
REMARK  8 active torsions:
REMARK  status: ('A' for Active; 'I' for Inactive)
REMARK    1  A    between atoms: C2_2  and  C3_3 
REMARK    2  A    between atoms: C2_2  and  N2_13 
REMARK    3  A    between atoms: C4_4  and  C5_5 
REMARK    4  A    between atoms: C5_5  and  C6_6 
REMARK    5  A    between atoms: C6_6  and  N1_7 
REMARK    6  A    between atoms: N2_13  and  C11_14 
REMARK    7  A    between atoms: C14_17  and  N3_18 
REMARK    8  A    between atoms: N3_18  and  C15_19 
ROOT
HETATM    1  C11 UNL     1      24.630   2.898  50.596  1.00  0.00     0.125 A 
HETATM    2  C12 UNL     1      25.348   2.452  51.705  1.00  0.00     0.068 A 
HETATM    3  C13 UNL     1      24.664   1.478  52.392  1.00  0.00     0.044 A 
HETATM    4  C14 UNL     1      25.244   0.896  53.529  1.00  0.00     0.142 A 
HETATM    5  N4  UNL     1      24.639  -0.055  54.220  1.00  0.00    -0.224 NA
HETATM    6  C20 UNL     1      23.421  -0.513  53.856  1.00  0.00     0.236 A 
HETATM    7  N5  UNL     1      22.801   0.003  52.770  1.00  0.00    -0.240 NA
HETATM    8  C21 UNL     1      23.433   0.965  52.083  1.00  0.00     0.089 A 
HETATM    9  C22 UNL     1      22.776   1.460  50.966  1.00  0.00     0.151 A 
HETATM   10  N6  UNL     1      23.427   2.431  50.256  1.00  0.00    -0.241 NA
ENDROOT
BRANCH   1  11
HETATM   11  N2  UNL     1      25.170   3.862  49.695  1.00  0.00    -0.360 N 
HETATM   12  H17 UNL     1      25.905   3.487  49.051  1.00  0.00     0.162 HD
BRANCH  11  13
HETATM   13  C2  UNL     1      24.927   5.247  49.483  1.00  0.00     0.159 C 
HETATM   14  C1  UNL     1      23.810   5.528  48.476  1.00  0.00     0.046 C 
BRANCH  13  15
HETATM   15  C3  UNL     1      26.172   5.883  48.967  1.00  0.00    -0.082 C 
HETATM   16  C4  UNL     1      27.167   6.389  48.533  1.00  0.00    -0.103 C 
BRANCH  16  17
HETATM   17  C5  UNL     1      28.359   7.014  48.024  1.00  0.00     0.124 C 
BRANCH  17  18
HETATM   18  C6  UNL     1      29.521   6.178  47.665  1.00  0.00     0.284 C 
BRANCH  18  19
HETATM   19  N1  UNL     1      30.792   6.741  47.467  1.00  0.00     0.093 N 
HETATM   20  C7  UNL     1      31.816   5.712  47.173  1.00  0.00     0.298 C 
HETATM   21  C8  UNL     1      32.231   4.947  48.373  1.00  0.00     0.198 C 
HETATM   22  O1  UNL     1      31.609   5.416  49.549  1.00  0.00    -0.388 OA
HETATM   23  C9  UNL     1      31.821   6.760  49.718  1.00  0.00     0.198 C 
HETATM   24  C10 UNL     1      31.305   7.561  48.511  1.00  0.00     0.298 C 
ENDBRANCH  18  19
ENDBRANCH  17  18
ENDBRANCH  16  17
ENDBRANCH  13  15
ENDBRANCH  11  13
ENDBRANCH   1  11
BRANCH   4  25
HETATM   25  N3  UNL     1      26.526   1.279  54.007  1.00  0.00    -0.342 N 
HETATM   26  H19 UNL     1      26.745   2.147  54.556  1.00  0.00     0.167 HD
BRANCH  25  27
HETATM   27  C15 UNL     1      27.722   0.512  53.790  1.00  0.00     0.036 A 
HETATM   28  C16 UNL     1      28.980   0.923  53.852  1.00  0.00     0.030 A 
HETATM   29  C17 UNL     1      29.871  -0.206  53.557  1.00  0.00     0.042 A 
HETATM   30  C18 UNL     1      29.124  -1.292  53.319  1.00  0.00     0.118 A 
HETATM   31  F1  UNL     1      29.416  -2.572  53.003  1.00  0.00    -0.209 F 
HETATM   32  C19 UNL     1      27.691  -0.953  53.459  1.00  0.00     0.194 A 
HETATM   33 CL1  UNL     1      26.833  -1.284  51.961  1.00  0.00    -0.111 Cl
ENDBRANCH  25  27
ENDBRANCH   4  25
TORSDOF 8
ENDMDL
MODEL 6
REMARK VINA RESULT:      -8.2      3.897      5.668
REMARK  8 active torsions:
REMARK  status: ('A' for Active; 'I' for Inactive)
REMARK    1  A    between atoms: C2_2  and  C3_3 
REMARK    2  A    between atoms: C2_2  and  N2_13 
REMARK    3  A    between atoms: C4_4  and  C5_5 
REMARK    4  A    between atoms: C5_5  and  C6_6 
REMARK    5  A    between atoms: C6_6  and  N1_7 
REMARK    6  A    between atoms: N2_13  and  C11_14 
REMARK    7  A    between atoms: C14_17  and  N3_18 
REMARK    8  A    between atoms: N3_18  and  C15_19 
ROOT
HETATM    1  C11 UNL     1      25.205  -0.264  54.234  1.00  0.00     0.125 A 
HETATM    2  C12 UNL     1      24.226   0.128  53.322  1.00  0.00     0.068 A 
HETATM    3  C13 UNL     1      22.995  -0.387  53.648  1.00  0.00     0.044 A 
HETATM    4  C14 UNL     1      21.882  -0.082  52.850  1.00  0.00     0.142 A 
HETATM    5  N4  UNL     1      20.671  -0.537  53.125  1.00  0.00    -0.224 NA
HETATM    6  C20 UNL     1      20.451  -1.326  54.199  1.00  0.00     0.236 A 
HETATM    7  N5  UNL     1      21.478  -1.662  55.013  1.00  0.00    -0.240 NA
HETATM    8  C21 UNL     1      22.696  -1.189  54.717  1.00  0.00     0.089 A 
HETATM    9  C22 UNL     1      23.723  -1.540  55.582  1.00  0.00     0.151 A 
HETATM   10  N6  UNL     1      24.963  -1.045  55.289  1.00  0.00    -0.241 NA
ENDROOT
BRANCH   1  11
HETATM   11  N2  UNL     1      26.548   0.203  54.135  1.00  0.00    -0.360 N 
HETATM   12  H17 UNL     1      26.938   0.588  55.028  1.00  0.00     0.162 HD
BRANCH  11  13
HETATM   13  C2  UNL     1      27.485   0.267  53.068  1.00  0.00     0.159 C 
HETATM   14  C1  UNL     1      28.924   0.511  53.528  1.00  0.00     0.046 C 
BRANCH  13  15
HETATM   15  C3  UNL     1      27.106   1.383  52.158  1.00  0.00    -0.082 C 
HETATM   16  C4  UNL     1      26.803   2.268  51.409  1.00  0.00    -0.103 C 
BRANCH  16  17
HETATM   17  C5  UNL     1      26.422   3.337  50.524  1.00  0.00     0.124 C 
BRANCH  17  18
HETATM   18  C6  UNL     1      25.171   3.224  49.747  1.00  0.00     0.284 C 
BRANCH  18  19
HETATM   19  N1  UNL     1      23.974   3.799  50.204  1.00  0.00     0.093 N 
HETATM   20  C7  UNL     1      23.051   4.119  49.091  1.00  0.00     0.298 C 
HETATM   21  C8  UNL     1      23.457   5.325  48.330  1.00  0.00     0.198 C 
HETATM   22  O1  UNL     1      24.599   5.946  48.879  1.00  0.00    -0.388 OA
HETATM   23  C9  UNL     1      24.415   6.233  50.206  1.00  0.00     0.198 C 
HETATM   24  C10 UNL     1      24.085   4.965  51.011  1.00  0.00     0.298 C 
ENDBRANCH  18  19
ENDBRANCH  17  18
ENDBRANCH  16  17
ENDBRANCH  13  15
ENDBRANCH  11  13
ENDBRANCH   1  11
BRANCH   4  25
HETATM   25  N3  UNL     1      21.978   0.748  51.700  1.00  0.00    -0.342 N 
HETATM   26  H19 UNL     1      22.649   0.620  50.903  1.00  0.00     0.167 HD
BRANCH  25  27
HETATM   27  C15 UNL     1      21.153   1.904  51.478  1.00  0.00     0.036 A 
HETATM   28  C16 UNL     1      21.070   3.003  52.214  1.00  0.00     0.030 A 
HETATM   29  C17 UNL     1      20.096   3.917  51.605  1.00  0.00     0.042 A 
HETATM   30  C18 UNL     1      19.600   3.344  50.500  1.00  0.00     0.118 A 
HETATM   31  F1  UNL     1      18.693   3.730  49.579  1.00  0.00    -0.209 F 
HETATM   32  C19 UNL     1      20.232   2.021  50.298  1.00  0.00     0.194 A 
HETATM   33 CL1  UNL     1      19.010   0.757  50.271  1.00  0.00    -0.111 Cl
ENDBRANCH  25  27
ENDBRANCH   4  25
TORSDOF 8
ENDMDL
MODEL 7
REMARK VINA RESULT:      -8.2      2.732      4.354
REMARK  8 active torsions:
REMARK  status: ('A' for Active; 'I' for Inactive)
REMARK    1  A    between atoms: C2_2  and  C3_3 
REMARK    2  A    between atoms: C2_2  and  N2_13 
REMARK    3  A    between atoms: C4_4  and  C5_5 
REMARK    4  A    between atoms: C5_5  and  C6_6 
REMARK    5  A    between atoms: C6_6  and  N1_7 
REMARK    6  A    between atoms: N2_13  and  C11_14 
REMARK    7  A    between atoms: C14_17  and  N3_18 
REMARK    8  A    between atoms: N3_18  and  C15_19 
ROOT
HETATM    1  C11 UNL     1      24.087   4.980  51.231  1.00  0.00     0.125 A 
HETATM    2  C12 UNL     1      24.728   3.748  51.358  1.00  0.00     0.068 A 
HETATM    3  C13 UNL     1      23.885   2.790  51.869  1.00  0.00     0.044 A 
HETATM    4  C14 UNL     1      24.354   1.480  52.049  1.00  0.00     0.142 A 
HETATM    5  N4  UNL     1      23.583   0.515  52.523  1.00  0.00    -0.224 NA
HETATM    6  C20 UNL     1      22.296   0.753  52.857  1.00  0.00     0.236 A 
HETATM    7  N5  UNL     1      21.777   1.993  52.711  1.00  0.00    -0.240 NA
HETATM    8  C21 UNL     1      22.575   2.955  52.228  1.00  0.00     0.089 A 
HETATM    9  C22 UNL     1      22.004   4.212  52.075  1.00  0.00     0.151 A 
HETATM   10  N6  UNL     1      22.814   5.190  51.568  1.00  0.00    -0.241 NA
ENDROOT
BRANCH   1  11
HETATM   11  N2  UNL     1      24.746   6.109  50.661  1.00  0.00    -0.360 N 
HETATM   12  H17 UNL     1      25.143   6.777  51.363  1.00  0.00     0.162 HD
BRANCH  11  13
HETATM   13  C2  UNL     1      24.978   6.534  49.325  1.00  0.00     0.159 C 
HETATM   14  C1  UNL     1      23.986   5.956  48.314  1.00  0.00     0.046 C 
BRANCH  13  15
HETATM   15  C3  UNL     1      26.344   6.107  48.912  1.00  0.00    -0.082 C 
HETATM   16  C4  UNL     1      27.450   5.783  48.584  1.00  0.00    -0.103 C 
BRANCH  16  17
HETATM   17  C5  UNL     1      28.776   5.375  48.202  1.00  0.00     0.124 C 
BRANCH  17  18
HETATM   18  C6  UNL     1      29.893   6.332  48.322  1.00  0.00     0.284 C 
BRANCH  18  19
HETATM   19  N1  UNL     1      31.072   5.996  49.008  1.00  0.00     0.093 N 
HETATM   20  C7  UNL     1      31.799   7.195  49.485  1.00  0.00     0.298 C 
HETATM   21  C8  UNL     1      32.514   7.909  48.400  1.00  0.00     0.198 C 
HETATM   22  O1  UNL     1      32.403   7.246  47.159  1.00  0.00    -0.388 OA
HETATM   23  C9  UNL     1      32.817   5.943  47.256  1.00  0.00     0.198 C 
HETATM   24  C10 UNL     1      32.010   5.179  48.318  1.00  0.00     0.298 C 
ENDBRANCH  18  19
ENDBRANCH  17  18
ENDBRANCH  16  17
ENDBRANCH  13  15
ENDBRANCH  11  13
ENDBRANCH   1  11
BRANCH   4  25
HETATM   25  N3  UNL     1      25.683   1.099  51.723  1.00  0.00    -0.342 N 
HETATM   26  H19 UNL     1      26.008   0.728  50.795  1.00  0.00     0.167 HD
BRANCH  25  27
HETATM   27  C15 UNL     1      26.783   1.167  52.645  1.00  0.00     0.036 A 
HETATM   28  C16 UNL     1      27.689   2.127  52.768  1.00  0.00     0.030 A 
HETATM   29  C17 UNL     1      28.624   1.772  53.843  1.00  0.00     0.042 A 
HETATM   30  C18 UNL     1      28.261   0.588  54.355  1.00  0.00     0.118 A 
HETATM   31  F1  UNL     1      28.757  -0.192  55.339  1.00  0.00    -0.209 F 
HETATM   32  C19 UNL     1      27.050   0.094  53.662  1.00  0.00     0.194 A 
HETATM   33 CL1  UNL     1      27.363  -1.469  52.921  1.00  0.00    -0.111 Cl
ENDBRANCH  25  27
ENDBRANCH   4  25
TORSDOF 8
ENDMDL
MODEL 8
REMARK VINA RESULT:      -8.2      4.291      6.706
REMARK  8 active torsions:
REMARK  status: ('A' for Active; 'I' for Inactive)
REMARK    1  A    between atoms: C2_2  and  C3_3 
REMARK    2  A    between atoms: C2_2  and  N2_13 
REMARK    3  A    between atoms: C4_4  and  C5_5 
REMARK    4  A    between atoms: C5_5  and  C6_6 
REMARK    5  A    between atoms: C6_6  and  N1_7 
REMARK    6  A    between atoms: N2_13  and  C11_14 
REMARK    7  A    between atoms: C14_17  and  N3_18 
REMARK    8  A    between atoms: N3_18  and  C15_19 
ROOT
HETATM    1  C11 UNL     1      26.332   2.208  51.220  1.00  0.00     0.125 A 
HETATM    2  C12 UNL     1      25.491   1.241  51.768  1.00  0.00     0.068 A 
HETATM    3  C13 UNL     1      25.949   0.805  52.988  1.00  0.00     0.044 A 
HETATM    4  C14 UNL     1      25.217  -0.159  53.699  1.00  0.00     0.142 A 
HETATM    5  N4  UNL     1      25.603  -0.604  54.883  1.00  0.00    -0.224 NA
HETATM    6  C20 UNL     1      26.733  -0.145  55.466  1.00  0.00     0.236 A 
HETATM    7  N5  UNL     1      27.488   0.784  54.837  1.00  0.00    -0.240 NA
HETATM    8  C21 UNL     1      27.079   1.223  53.639  1.00  0.00     0.089 A 
HETATM    9  C22 UNL     1      27.869   2.187  53.031  1.00  0.00     0.151 A 
HETATM   10  N6  UNL     1      27.443   2.646  51.815  1.00  0.00    -0.241 NA
ENDROOT
BRANCH   1  11
HETATM   11  N2  UNL     1      26.023   2.855  49.987  1.00  0.00    -0.360 N 
HETATM   12  H17 UNL     1      26.610   2.544  49.178  1.00  0.00     0.162 HD
BRANCH  11  13
HETATM   13  C2  UNL     1      25.079   3.851  49.615  1.00  0.00     0.159 C 
HETATM   14  C1  UNL     1      24.636   4.743  50.776  1.00  0.00     0.046 C 
BRANCH  13  15
HETATM   15  C3  UNL     1      23.865   3.185  49.067  1.00  0.00    -0.082 C 
HETATM   16  C4  UNL     1      22.897   2.649  48.607  1.00  0.00    -0.103 C 
BRANCH  16  17
HETATM   17  C5  UNL     1      21.734   1.991  48.074  1.00  0.00     0.124 C 
BRANCH  17  18
HETATM   18  C6  UNL     1      20.397   2.571  48.315  1.00  0.00     0.284 C 
BRANCH  18  19
HETATM   19  N1  UNL     1      19.844   2.616  49.605  1.00  0.00     0.093 N 
HETATM   20  C7  UNL     1      18.484   2.030  49.647  1.00  0.00     0.298 C 
HETATM   21  C8  UNL     1      17.452   2.920  49.063  1.00  0.00     0.198 C 
HETATM   22  O1  UNL     1      17.982   4.163  48.659  1.00  0.00    -0.388 OA
HETATM   23  C9  UNL     1      18.643   4.777  49.691  1.00  0.00     0.198 C 
HETATM   24  C10 UNL     1      19.775   3.890  50.234  1.00  0.00     0.298 C 
ENDBRANCH  18  19
ENDBRANCH  17  18
ENDBRANCH  16  17
ENDBRANCH  13  15
ENDBRANCH  11  13
ENDBRANCH   1  11
BRANCH   4  25
HETATM   25  N3  UNL     1      24.006  -0.710  53.202  1.00  0.00    -0.342 N 
HETATM   26  H19 UNL     1      23.925  -1.516  52.533  1.00  0.00     0.167 HD
BRANCH  25  27
HETATM   27  C15 UNL     1      22.702  -0.221  53.554  1.00  0.00     0.036 A 
HETATM   28  C16 UNL     1      21.972  -0.528  54.617  1.00  0.00     0.030 A 
HETATM   29  C17 UNL     1      20.706   0.213  54.562  1.00  0.00     0.042 A 
HETATM   30  C18 UNL     1      20.693   0.962  53.451  1.00  0.00     0.118 A 
HETATM   31  F1  UNL     1      19.796   1.816  52.915  1.00  0.00    -0.209 F 
HETATM   32  C19 UNL     1      21.961   0.778  52.711  1.00  0.00     0.194 A 
HETATM   33 CL1  UNL     1      21.641   0.180  51.088  1.00  0.00    -0.111 Cl
ENDBRANCH  25  27
ENDBRANCH   4  25
TORSDOF 8
ENDMDL
MODEL 9
REMARK VINA RESULT:      -8.1      5.091     10.385
REMARK  8 active torsions:
REMARK  status: ('A' for Active; 'I' for Inactive)
REMARK    1  A    between atoms: C2_2  and  C3_3 
REMARK    2  A    between atoms: C2_2  and  N2_13 
REMARK    3  A    between atoms: C4_4  and  C5_5 
REMARK    4  A    between atoms: C5_5  and  C6_6 
REMARK    5  A    between atoms: C6_6  and  N1_7 
REMARK    6  A    between atoms: N2_13  and  C11_14 
REMARK    7  A    between atoms: C14_17  and  N3_18 
REMARK    8  A    between atoms: N3_18  and  C15_19 
ROOT
HETATM    1  C11 UNL     1      27.645   6.216  48.427  1.00  0.00     0.125 A 
HETATM    2  C12 UNL     1      28.997   5.878  48.400  1.00  0.00     0.068 A 
HETATM    3  C13 UNL     1      29.698   6.665  47.519  1.00  0.00     0.044 A 
HETATM    4  C14 UNL     1      31.082   6.480  47.373  1.00  0.00     0.142 A 
HETATM    5  N4  UNL     1      31.808   7.218  46.551  1.00  0.00    -0.224 NA
HETATM    6  C20 UNL     1      31.243   8.194  45.807  1.00  0.00     0.236 A 
HETATM    7  N5  UNL     1      29.914   8.428  45.895  1.00  0.00    -0.240 NA
HETATM    8  C21 UNL     1      29.196   7.670  46.736  1.00  0.00     0.089 A 
HETATM    9  C22 UNL     1      27.839   7.948  46.813  1.00  0.00     0.151 A 
HETATM   10  N6  UNL     1      27.109   7.184  47.682  1.00  0.00    -0.241 NA
ENDROOT
BRANCH   1  11
HETATM   11  N2  UNL     1      26.733   5.576  49.317  1.00  0.00    -0.360 N 
HETATM   12  H17 UNL     1      26.930   5.745  50.331  1.00  0.00     0.162 HD
BRANCH  11  13
HETATM   13  C2  UNL     1      25.600   4.740  49.121  1.00  0.00     0.159 C 
HETATM   14  C1  UNL     1      24.264   5.455  49.335  1.00  0.00     0.046 C 
BRANCH  13  15
HETATM   15  C3  UNL     1      25.664   3.606  50.085  1.00  0.00    -0.082 C 
HETATM   16  C4  UNL     1      25.737   2.692  50.856  1.00  0.00    -0.103 C 
BRANCH  16  17
HETATM   17  C5  UNL     1      25.811   1.606  51.797  1.00  0.00     0.124 C 
BRANCH  17  18
HETATM   18  C6  UNL     1      27.132   1.085  52.202  1.00  0.00     0.284 C 
BRANCH  18  19
HETATM   19  N1  UNL     1      27.280  -0.218  52.703  1.00  0.00     0.093 N 
HETATM   20  C7  UNL     1      26.197  -0.577  53.647  1.00  0.00     0.298 C 
HETATM   21  C8  UNL     1      26.353   0.061  54.977  1.00  0.00     0.198 C 
HETATM   22  O1  UNL     1      27.541   0.815  55.073  1.00  0.00    -0.388 OA
HETATM   23  C9  UNL     1      28.636   0.055  54.754  1.00  0.00     0.198 C 
HETATM   24  C10 UNL     1      28.515  -0.530  53.338  1.00  0.00     0.298 C 
ENDBRANCH  18  19
ENDBRANCH  17  18
ENDBRANCH  16  17
ENDBRANCH  13  15
ENDBRANCH  11  13
ENDBRANCH   1  11
BRANCH   4  25
HETATM   25  N3  UNL     1      31.796   5.496  48.109  1.00  0.00    -0.342 N 
HETATM   26  H19 UNL     1      31.853   5.430  49.155  1.00  0.00     0.167 HD
BRANCH  25  27
HETATM   27  C15 UNL     1      32.559   4.442  47.500  1.00  0.00     0.036 A 
HETATM   28  C16 UNL     1      32.140   3.242  47.122  1.00  0.00     0.030 A 
HETATM   29  C17 UNL     1      33.267   2.497  46.548  1.00  0.00     0.042 A 
HETATM   30  C18 UNL     1      34.361   3.269  46.593  1.00  0.00     0.118 A 
HETATM   31  F1  UNL     1      35.643   3.090  46.211  1.00  0.00    -0.209 F 
HETATM   32  C19 UNL     1      34.020   4.583  47.182  1.00  0.00     0.194 A 
HETATM   33 CL1  UNL     1      34.993   4.882  48.616  1.00  0.00    -0.111 Cl
ENDBRANCH  25  27
ENDBRANCH   4  25
TORSDOF 8
ENDMDL
