MODEL 1
REMARK VINA RESULT:      -8.0      0.000      0.000
REMARK  7 active torsions:
REMARK  status: ('A' for Active; 'I' for Inactive)
REMARK    1  A    between atoms: C3_3  and  C4_4 
REMARK    2  A    between atoms: C4_4  and  C5_5 
REMARK    3  A    between atoms: C5_5  and  C6_6 
REMARK    4  A    between atoms: C6_6  and  C7_7 
REMARK    5  A    between atoms: C8_8  and  C9_9 
REMARK    6  A    between atoms: C24_26  and  C25_27 
REMARK    7  A    between atoms: C25_27  and  O1_28 
ROOT
HETATM    1  C7  UNL     1      22.332   2.466  51.808  1.00  0.00     0.083 C 
HETATM    2  C8  UNL     1      23.570   2.823  51.463  1.00  0.00     0.053 C 
HETATM    3  C15 UNL     1      24.150   3.531  50.228  1.00  0.00     0.138 C 
HETATM    4  N1  UNL     1      23.755   3.157  48.997  1.00  0.00    -0.231 NA
HETATM    5  C16 UNL     1      22.360   2.919  48.432  1.00  0.00     0.184 C 
HETATM    6  N2  UNL     1      20.835   3.532  48.852  1.00  0.00    -0.227 NA
HETATM    7  C17 UNL     1      21.288   3.885  50.165  1.00  0.00     0.196 A 
HETATM    8  C18 UNL     1      21.488   4.802  49.255  1.00  0.00     0.145 A 
HETATM    9  C19 UNL     1      21.567   5.717  48.042  1.00  0.00    -0.002 C 
HETATM   10  C20 UNL     1      22.542   6.564  47.593  1.00  0.00    -0.003 C 
HETATM   11  C21 UNL     1      23.846   7.153  47.648  1.00  0.00    -0.004 C 
HETATM   12  C22 UNL     1      25.195   7.275  48.021  1.00  0.00    -0.025 C 
HETATM   13  C23 UNL     1      25.047   5.901  48.667  1.00  0.00     0.054 C 
HETATM   14  C24 UNL     1      25.318   5.862  50.146  1.00  0.00     0.110 C 
HETATM   15  N3  UNL     1      25.158   4.510  50.655  1.00  0.00    -0.367 N 
HETATM   16  O2  UNL     1      21.583   3.815  51.634  1.00  0.00    -0.317 OA
HETATM   17  H25 UNL     1      25.787   4.204  51.471  1.00  0.00     0.161 HD
ENDROOT
BRANCH   1  18
HETATM   18  C6  UNL     1      21.100   2.037  52.163  1.00  0.00     0.012 C 
BRANCH  18  19
HETATM   19  C5  UNL     1      19.975   1.390  52.644  1.00  0.00     0.002 C 
BRANCH  19  20
HETATM   20  C4  UNL     1      20.030  -0.090  52.692  1.00  0.00     0.030 C 
BRANCH  20  21
HETATM   21  C3  UNL     1      21.023  -0.215  53.811  1.00  0.00    -0.005 A 
HETATM   22  C2  UNL     1      22.174  -1.297  53.431  1.00  0.00    -0.005 A 
HETATM   23  C1  UNL     1      22.318  -0.512  54.631  1.00  0.00     0.011 A 
ENDBRANCH  20  21
ENDBRANCH  19  20
ENDBRANCH  18  19
ENDBRANCH   1  18
BRANCH   2  24
HETATM   24  C9  UNL     1      24.417   2.294  52.468  1.00  0.00    -0.019 A 
HETATM   25  C10 UNL     1      25.016   2.848  53.545  1.00  0.00     0.012 A 
HETATM   26  C11 UNL     1      25.965   2.095  54.085  1.00  0.00     0.001 A 
HETATM   27  C12 UNL     1      26.335   0.811  53.631  1.00  0.00     0.000 A 
HETATM   28  C13 UNL     1      25.660   0.271  52.510  1.00  0.00     0.001 A 
HETATM   29  C14 UNL     1      24.656   1.033  51.896  1.00  0.00     0.012 A 
ENDBRANCH   2  24
BRANCH  14  30
HETATM   30  C25 UNL     1      24.697   6.969  50.884  1.00  0.00     0.189 C 
BRANCH  30  31
HETATM   31  O1  UNL     1      24.460   6.545  52.205  1.00  0.00    -0.399 OA
HETATM   32  H24 UNL     1      25.376   6.227  52.522  1.00  0.00     0.209 HD
ENDBRANCH  30  31
ENDBRANCH  14  30
TORSDOF 7
ENDMDL
MODEL 2
REMARK VINA RESULT:      -7.8      2.280      6.261
REMARK  7 active torsions:
REMARK  status: ('A' for Active; 'I' for Inactive)
REMARK    1  A    between atoms: C3_3  and  C4_4 
REMARK    2  A    between atoms: C4_4  and  C5_5 
REMARK    3  A    between atoms: C5_5  and  C6_6 
REMARK    4  A    between atoms: C6_6  and  C7_7 
REMARK    5  A    between atoms: C8_8  and  C9_9 
REMARK    6  A    between atoms: C24_26  and  C25_27 
REMARK    7  A    between atoms: C25_27  and  O1_28 
ROOT
HETATM    1  C7  UNL     1      26.060   3.211  50.438  1.00  0.00     0.083 C 
HETATM    2  C8  UNL     1      25.433   2.571  51.426  1.00  0.00     0.053 C 
HETATM    3  C15 UNL     1      24.090   2.800  52.138  1.00  0.00     0.138 C 
HETATM    4  N1  UNL     1      23.742   4.042  52.522  1.00  0.00    -0.231 NA
HETATM    5  C16 UNL     1      23.773   5.362  51.760  1.00  0.00     0.184 C 
HETATM    6  N2  UNL     1      23.682   5.732  50.107  1.00  0.00    -0.227 NA
HETATM    7  C17 UNL     1      24.088   4.407  49.742  1.00  0.00     0.196 A 
HETATM    8  C18 UNL     1      22.801   4.552  49.920  1.00  0.00     0.145 A 
HETATM    9  C19 UNL     1      21.358   4.983  50.138  1.00  0.00    -0.002 C 
HETATM   10  C20 UNL     1      20.303   4.373  50.759  1.00  0.00    -0.003 C 
HETATM   11  C21 UNL     1      19.706   3.322  51.526  1.00  0.00    -0.004 C 
HETATM   12  C22 UNL     1      19.666   2.210  52.385  1.00  0.00    -0.025 C 
HETATM   13  C23 UNL     1      21.171   2.400  52.553  1.00  0.00     0.054 C 
HETATM   14  C24 UNL     1      22.011   1.225  52.133  1.00  0.00     0.110 C 
HETATM   15  N3  UNL     1      23.420   1.510  52.344  1.00  0.00    -0.367 N 
HETATM   16  O2  UNL     1      24.945   3.236  49.358  1.00  0.00    -0.317 OA
HETATM   17  H25 UNL     1      24.062   0.690  52.612  1.00  0.00     0.161 HD
ENDROOT
BRANCH   1  18
HETATM   18  C6  UNL     1      26.750   3.870  49.480  1.00  0.00     0.012 C 
BRANCH  18  19
HETATM   19  C5  UNL     1      27.600   4.646  48.711  1.00  0.00     0.002 C 
BRANCH  19  20
HETATM   20  C4  UNL     1      27.239   6.074  48.559  1.00  0.00     0.030 C 
BRANCH  20  21
HETATM   21  C3  UNL     1      28.513   6.534  47.913  1.00  0.00    -0.005 A 
HETATM   22  C2  UNL     1      28.223   7.770  46.899  1.00  0.00    -0.005 A 
HETATM   23  C1  UNL     1      29.587   7.395  47.176  1.00  0.00     0.011 A 
ENDBRANCH  20  21
ENDBRANCH  19  20
ENDBRANCH  18  19
ENDBRANCH   1  18
BRANCH   2  24
HETATM   24  C9  UNL     1      26.340   1.579  51.878  1.00  0.00    -0.019 A 
HETATM   25  C10 UNL     1      26.376   0.237  51.730  1.00  0.00     0.012 A 
HETATM   26  C11 UNL     1      27.227  -0.377  52.541  1.00  0.00     0.001 A 
HETATM   27  C12 UNL     1      28.064   0.272  53.475  1.00  0.00     0.000 A 
HETATM   28  C13 UNL     1      27.999   1.683  53.572  1.00  0.00     0.001 A 
HETATM   29  C14 UNL     1      27.106   2.377  52.744  1.00  0.00     0.012 A 
ENDBRANCH   2  24
BRANCH  14  30
HETATM   30  C25 UNL     1      21.596   0.637  50.853  1.00  0.00     0.189 C 
BRANCH  30  31
HETATM   31  O1  UNL     1      22.314   1.268  49.821  1.00  0.00    -0.399 OA
HETATM   32  H24 UNL     1      22.065   2.252  49.923  1.00  0.00     0.209 HD
ENDBRANCH  30  31
ENDBRANCH  14  30
TORSDOF 7
ENDMDL
MODEL 3
REMARK VINA RESULT:      -7.4      1.865      4.595
REMARK  7 active torsions:
REMARK  status: ('A' for Active; 'I' for Inactive)
REMARK    1  A    between atoms: C3_3  and  C4_4 
REMARK    2  A    between atoms: C4_4  and  C5_5 
REMARK    3  A    between atoms: C5_5  and  C6_6 
REMARK    4  A    between atoms: C6_6  and  C7_7 
REMARK    5  A    between atoms: C8_8  and  C9_9 
REMARK    6  A    between atoms: C24_26  and  C25_27 
REMARK    7  A    between atoms: C25_27  and  O1_28 
ROOT
HETATM    1  C7  UNL     1      23.607   2.193  52.740  1.00  0.00     0.083 C 
HETATM    2  C8  UNL     1      22.318   2.106  52.411  1.00  0.00     0.053 C 
HETATM    3  C15 UNL     1      21.382   3.008  51.591  1.00  0.00     0.138 C 
HETATM    4  N1  UNL     1      21.393   4.339  51.792  1.00  0.00    -0.231 NA
HETATM    5  C16 UNL     1      22.557   5.319  51.884  1.00  0.00     0.184 C 
HETATM    6  N2  UNL     1      24.128   5.294  51.246  1.00  0.00    -0.227 NA
HETATM    7  C17 UNL     1      24.086   3.872  51.079  1.00  0.00     0.196 A 
HETATM    8  C18 UNL     1      23.608   4.552  50.071  1.00  0.00     0.145 A 
HETATM    9  C19 UNL     1      23.153   5.556  49.022  1.00  0.00    -0.002 C 
HETATM   10  C20 UNL     1      22.075   5.579  48.181  1.00  0.00    -0.003 C 
HETATM   11  C21 UNL     1      20.839   5.063  47.673  1.00  0.00    -0.004 C 
HETATM   12  C22 UNL     1      19.663   4.294  47.670  1.00  0.00    -0.025 C 
HETATM   13  C23 UNL     1      20.021   3.907  49.102  1.00  0.00     0.054 C 
HETATM   14  C24 UNL     1      20.208   2.433  49.334  1.00  0.00     0.110 C 
HETATM   15  N3  UNL     1      20.535   2.177  50.727  1.00  0.00    -0.367 N 
HETATM   16  O2  UNL     1      24.248   2.403  51.341  1.00  0.00    -0.317 OA
HETATM   17  H25 UNL     1      20.186   1.258  51.163  1.00  0.00     0.161 HD
ENDROOT
BRANCH   1  18
HETATM   18  C6  UNL     1      24.895   2.279  53.141  1.00  0.00     0.012 C 
BRANCH  18  19
HETATM   19  C5  UNL     1      26.156   2.141  53.698  1.00  0.00     0.002 C 
BRANCH  19  20
HETATM   20  C4  UNL     1      27.225   1.640  52.803  1.00  0.00     0.030 C 
BRANCH  20  21
HETATM   21  C3  UNL     1      26.690   0.251  52.614  1.00  0.00    -0.005 A 
HETATM   22  C2  UNL     1      27.812  -0.851  53.024  1.00  0.00    -0.005 A 
HETATM   23  C1  UNL     1      26.476  -1.293  52.715  1.00  0.00     0.011 A 
ENDBRANCH  20  21
ENDBRANCH  19  20
ENDBRANCH  18  19
ENDBRANCH   1  18
BRANCH   2  24
HETATM   24  C9  UNL     1      21.821   0.973  53.103  1.00  0.00    -0.019 A 
HETATM   25  C10 UNL     1      20.954   0.837  54.131  1.00  0.00     0.012 A 
HETATM   26  C11 UNL     1      20.959  -0.365  54.690  1.00  0.00     0.001 A 
HETATM   27  C12 UNL     1      21.761  -1.449  54.269  1.00  0.00     0.000 A 
HETATM   28  C13 UNL     1      22.636  -1.255  53.174  1.00  0.00     0.001 A 
HETATM   29  C14 UNL     1      22.675   0.002  52.555  1.00  0.00     0.012 A 
ENDBRANCH   2  24
BRANCH  14  30
HETATM   30  C25 UNL     1      21.006   1.773  48.292  1.00  0.00     0.189 C 
BRANCH  30  31
HETATM   31  O1  UNL     1      22.343   1.713  48.727  1.00  0.00    -0.399 OA
HETATM   32  H24 UNL     1      22.356   0.901  49.346  1.00  0.00     0.209 HD
ENDBRANCH  30  31
ENDBRANCH  14  30
TORSDOF 7
ENDMDL
MODEL 4
REMARK VINA RESULT:      -7.2      2.089      5.169
REMARK  7 active torsions:
REMARK  status: ('A' for Active; 'I' for Inactive)
REMARK    1  A    between atoms: C3_3  and  C4_4 
REMARK    2  A    between atoms: C4_4  and  C5_5 
REMARK    3  A    between atoms: C5_5  and  C6_6 
REMARK    4  A    between atoms: C6_6  and  C7_7 
REMARK    5  A    between atoms: C8_8  and  C9_9 
REMARK    6  A    between atoms: C24_26  and  C25_27 
REMARK    7  A    between atoms: C25_27  and  O1_28 
ROOT
HETATM    1  C7  UNL     1      25.364   3.008  51.325  1.00  0.00     0.083 C 
HETATM    2  C8  UNL     1      24.718   3.582  50.310  1.00  0.00     0.053 C 
HETATM    3  C15 UNL     1      23.262   3.517  49.823  1.00  0.00     0.138 C 
HETATM    4  N1  UNL     1      22.638   2.326  49.741  1.00  0.00    -0.231 NA
HETATM    5  C16 UNL     1      22.547   1.183  50.744  1.00  0.00     0.184 C 
HETATM    6  N2  UNL     1      22.649   1.133  52.436  1.00  0.00    -0.227 NA
HETATM    7  C17 UNL     1      23.340   2.388  52.476  1.00  0.00     0.196 A 
HETATM    8  C18 UNL     1      22.037   2.484  52.484  1.00  0.00     0.145 A 
HETATM    9  C19 UNL     1      20.524   2.332  52.530  1.00  0.00    -0.002 C 
HETATM   10  C20 UNL     1      19.513   3.029  51.928  1.00  0.00    -0.003 C 
HETATM   11  C21 UNL     1      19.005   4.032  51.040  1.00  0.00    -0.004 C 
HETATM   12  C22 UNL     1      19.035   4.961  49.986  1.00  0.00    -0.025 C 
HETATM   13  C23 UNL     1      20.435   4.436  49.683  1.00  0.00     0.054 C 
HETATM   14  C24 UNL     1      21.529   5.465  49.756  1.00  0.00     0.110 C 
HETATM   15  N3  UNL     1      22.814   4.861  49.442  1.00  0.00    -0.367 N 
HETATM   16  O2  UNL     1      24.445   3.403  52.513  1.00  0.00    -0.317 OA
HETATM   17  H25 UNL     1      23.544   5.470  48.940  1.00  0.00     0.161 HD
ENDROOT
BRANCH   1  18
HETATM   18  C6  UNL     1      26.064   2.397  52.308  1.00  0.00     0.012 C 
BRANCH  18  19
HETATM   19  C5  UNL     1      26.994   1.804  53.145  1.00  0.00     0.002 C 
BRANCH  19  20
HETATM   20  C4  UNL     1      26.979   0.324  53.211  1.00  0.00     0.030 C 
BRANCH  20  21
HETATM   21  C3  UNL     1      28.407   0.130  53.630  1.00  0.00    -0.005 A 
HETATM   22  C2  UNL     1      28.919  -1.359  53.226  1.00  0.00    -0.005 A 
HETATM   23  C1  UNL     1      29.869  -0.406  53.743  1.00  0.00     0.011 A 
ENDBRANCH  20  21
ENDBRANCH  19  20
ENDBRANCH  18  19
ENDBRANCH   1  18
BRANCH   2  24
HETATM   24  C9  UNL     1      25.709   4.269  49.564  1.00  0.00    -0.019 A 
HETATM   25  C10 UNL     1      26.863   3.867  48.988  1.00  0.00     0.012 A 
HETATM   26  C11 UNL     1      27.663   4.860  48.623  1.00  0.00     0.001 A 
HETATM   27  C12 UNL     1      27.368   6.233  48.775  1.00  0.00     0.000 A 
HETATM   28  C13 UNL     1      26.134   6.596  49.366  1.00  0.00     0.001 A 
HETATM   29  C14 UNL     1      25.259   5.582  49.780  1.00  0.00     0.012 A 
ENDBRANCH   2  24
BRANCH  14  30
HETATM   30  C25 UNL     1      21.432   6.341  50.931  1.00  0.00     0.189 C 
BRANCH  30  31
HETATM   31  O1  UNL     1      22.310   5.857  51.919  1.00  0.00    -0.399 OA
HETATM   32  H24 UNL     1      23.131   5.565  51.387  1.00  0.00     0.209 HD
ENDBRANCH  30  31
ENDBRANCH  14  30
TORSDOF 7
ENDMDL
MODEL 5
REMARK VINA RESULT:      -7.1      1.809      4.437
REMARK  7 active torsions:
REMARK  status: ('A' for Active; 'I' for Inactive)
REMARK    1  A    between atoms: C3_3  and  C4_4 
REMARK    2  A    between atoms: C4_4  and  C5_5 
REMARK    3  A    between atoms: C5_5  and  C6_6 
REMARK    4  A    between atoms: C6_6  and  C7_7 
REMARK    5  A    between atoms: C8_8  and  C9_9 
REMARK    6  A    between atoms: C24_26  and  C25_27 
REMARK    7  A    between atoms: C25_27  and  O1_28 
ROOT
HETATM    1  C7  UNL     1      24.345   2.882  50.818  1.00  0.00     0.083 C 
HETATM    2  C8  UNL     1      23.089   3.193  50.496  1.00  0.00     0.053 C 
HETATM    3  C15 UNL     1      22.436   4.461  49.924  1.00  0.00     0.138 C 
HETATM    4  N1  UNL     1      22.761   5.666  50.430  1.00  0.00    -0.231 NA
HETATM    5  C16 UNL     1      24.123   6.280  50.732  1.00  0.00     0.184 C 
HETATM    6  N2  UNL     1      25.667   6.017  50.083  1.00  0.00    -0.227 NA
HETATM    7  C17 UNL     1      25.289   4.726  49.588  1.00  0.00     0.196 A 
HETATM    8  C18 UNL     1      25.035   5.717  48.774  1.00  0.00     0.145 A 
HETATM    9  C19 UNL     1      24.884   7.015  47.996  1.00  0.00    -0.002 C 
HETATM   10  C20 UNL     1      23.882   7.496  47.199  1.00  0.00    -0.003 C 
HETATM   11  C21 UNL     1      22.582   7.431  46.603  1.00  0.00    -0.004 C 
HETATM   12  C22 UNL     1      21.255   6.997  46.437  1.00  0.00    -0.025 C 
HETATM   13  C23 UNL     1      21.445   6.215  47.733  1.00  0.00     0.054 C 
HETATM   14  C24 UNL     1      21.259   4.728  47.612  1.00  0.00     0.110 C 
HETATM   15  N3  UNL     1      21.452   4.086  48.902  1.00  0.00    -0.367 N 
HETATM   16  O2  UNL     1      25.079   3.244  49.498  1.00  0.00    -0.317 OA
HETATM   17  H25 UNL     1      20.872   3.207  49.116  1.00  0.00     0.161 HD
ENDROOT
BRANCH   1  18
HETATM   18  C6  UNL     1      25.597   2.554  51.210  1.00  0.00     0.012 C 
BRANCH  18  19
HETATM   19  C5  UNL     1      26.751   2.033  51.770  1.00  0.00     0.002 C 
BRANCH  19  20
HETATM   20  C4  UNL     1      26.793   0.564  51.957  1.00  0.00     0.030 C 
BRANCH  20  21
HETATM   21  C3  UNL     1      25.409   0.395  52.512  1.00  0.00    -0.005 A 
HETATM   22  C2  UNL     1      25.418  -0.653  53.754  1.00  0.00    -0.005 A 
HETATM   23  C1  UNL     1      24.208   0.072  53.458  1.00  0.00     0.011 A 
ENDBRANCH  20  21
ENDBRANCH  19  20
ENDBRANCH  18  19
ENDBRANCH   1  18
BRANCH   2  24
HETATM   24  C9  UNL     1      22.301   2.090  50.912  1.00  0.00    -0.019 A 
HETATM   25  C10 UNL     1      21.913   0.957  50.287  1.00  0.00     0.012 A 
HETATM   26  C11 UNL     1      20.941   0.300  50.907  1.00  0.00     0.001 A 
HETATM   27  C12 UNL     1      20.352   0.694  52.128  1.00  0.00     0.000 A 
HETATM   28  C13 UNL     1      20.813   1.879  52.749  1.00  0.00     0.001 A 
HETATM   29  C14 UNL     1      21.831   2.615  52.126  1.00  0.00     0.012 A 
ENDBRANCH   2  24
BRANCH  14  30
HETATM   30  C25 UNL     1      21.917   4.150  46.433  1.00  0.00     0.189 C 
BRANCH  30  31
HETATM   31  O1  UNL     1      22.292   2.828  46.737  1.00  0.00    -0.399 OA
HETATM   32  H24 UNL     1      22.414   2.841  47.750  1.00  0.00     0.209 HD
ENDBRANCH  30  31
ENDBRANCH  14  30
TORSDOF 7
ENDMDL
MODEL 6
REMARK VINA RESULT:      -6.8      2.374      5.165
REMARK  7 active torsions:
REMARK  status: ('A' for Active; 'I' for Inactive)
REMARK    1  A    between atoms: C3_3  and  C4_4 
REMARK    2  A    between atoms: C4_4  and  C5_5 
REMARK    3  A    between atoms: C5_5  and  C6_6 
REMARK    4  A    between atoms: C6_6  and  C7_7 
REMARK    5  A    between atoms: C8_8  and  C9_9 
REMARK    6  A    between atoms: C24_26  and  C25_27 
REMARK    7  A    between atoms: C25_27  and  O1_28 
ROOT
HETATM    1  C7  UNL     1      23.419   1.970  51.657  1.00  0.00     0.083 C 
HETATM    2  C8  UNL     1      22.179   1.799  52.117  1.00  0.00     0.053 C 
HETATM    3  C15 UNL     1      20.909   2.662  52.053  1.00  0.00     0.138 C 
HETATM    4  N1  UNL     1      20.984   3.981  52.316  1.00  0.00    -0.231 NA
HETATM    5  C16 UNL     1      21.951   5.041  51.804  1.00  0.00     0.184 C 
HETATM    6  N2  UNL     1      22.870   5.162  50.383  1.00  0.00    -0.227 NA
HETATM    7  C17 UNL     1      22.793   3.749  50.158  1.00  0.00     0.196 A 
HETATM    8  C18 UNL     1      21.797   4.434  49.661  1.00  0.00     0.145 A 
HETATM    9  C19 UNL     1      20.785   5.445  49.142  1.00  0.00    -0.002 C 
HETATM   10  C20 UNL     1      19.419   5.422  49.072  1.00  0.00    -0.003 C 
HETATM   11  C21 UNL     1      18.137   4.836  49.322  1.00  0.00    -0.004 C 
HETATM   12  C22 UNL     1      17.203   3.981  49.931  1.00  0.00    -0.025 C 
HETATM   13  C23 UNL     1      18.332   3.561  50.866  1.00  0.00     0.054 C 
HETATM   14  C24 UNL     1      18.674   2.097  50.833  1.00  0.00     0.110 C 
HETATM   15  N3  UNL     1      19.751   1.807  51.765  1.00  0.00    -0.367 N 
HETATM   16  O2  UNL     1      23.131   2.287  50.165  1.00  0.00    -0.317 OA
HETATM   17  H25 UNL     1      19.751   0.847  52.248  1.00  0.00     0.161 HD
ENDROOT
BRANCH   1  18
HETATM   18  C6  UNL     1      24.699   2.136  51.257  1.00  0.00     0.012 C 
BRANCH  18  19
HETATM   19  C5  UNL     1      26.068   2.127  51.047  1.00  0.00     0.002 C 
BRANCH  19  20
HETATM   20  C4  UNL     1      26.911   1.710  52.191  1.00  0.00     0.030 C 
BRANCH  20  21
HETATM   21  C3  UNL     1      26.606   0.242  52.139  1.00  0.00    -0.005 A 
HETATM   22  C2  UNL     1      27.717  -0.600  52.974  1.00  0.00    -0.005 A 
HETATM   23  C1  UNL     1      26.557  -1.285  52.462  1.00  0.00     0.011 A 
ENDBRANCH  20  21
ENDBRANCH  19  20
ENDBRANCH  18  19
ENDBRANCH   1  18
BRANCH   2  24
HETATM   24  C9  UNL     1      22.213   0.604  52.878  1.00  0.00    -0.019 A 
HETATM   25  C10 UNL     1      22.675  -0.637  52.611  1.00  0.00     0.012 A 
HETATM   26  C11 UNL     1      22.268  -1.565  53.468  1.00  0.00     0.001 A 
HETATM   27  C12 UNL     1      21.447  -1.323  54.591  1.00  0.00     0.000 A 
HETATM   28  C13 UNL     1      21.009   0.001  54.833  1.00  0.00     0.001 A 
HETATM   29  C14 UNL     1      21.403   1.015  53.949  1.00  0.00     0.012 A 
ENDBRANCH   2  24
BRANCH  14  30
HETATM   30  C25 UNL     1      18.752   1.545  49.475  1.00  0.00     0.189 C 
BRANCH  30  31
HETATM   31  O1  UNL     1      20.109   1.394  49.134  1.00  0.00    -0.399 OA
HETATM   32  H24 UNL     1      20.218   1.994  48.315  1.00  0.00     0.209 HD
ENDBRANCH  30  31
ENDBRANCH  14  30
TORSDOF 7
ENDMDL
MODEL 7
REMARK VINA RESULT:      -6.8      9.105     12.263
REMARK  7 active torsions:
REMARK  status: ('A' for Active; 'I' for Inactive)
REMARK    1  A    between atoms: C3_3  and  C4_4 
REMARK    2  A    between atoms: C4_4  and  C5_5 
REMARK    3  A    between atoms: C5_5  and  C6_6 
REMARK    4  A    between atoms: C6_6  and  C7_7 
REMARK    5  A    between atoms: C8_8  and  C9_9 
REMARK    6  A    between atoms: C24_26  and  C25_27 
REMARK    7  A    between atoms: C25_27  and  O1_28 
ROOT
HETATM    1  C7  UNL     1      33.320   5.839  44.819  1.00  0.00     0.083 C 
HETATM    2  C8  UNL     1      33.134   5.783  46.139  1.00  0.00     0.053 C 
HETATM    3  C15 UNL     1      33.040   6.860  47.231  1.00  0.00     0.138 C 
HETATM    4  N1  UNL     1      33.929   7.871  47.250  1.00  0.00    -0.231 NA
HETATM    5  C16 UNL     1      34.415   8.786  46.132  1.00  0.00     0.184 C 
HETATM    6  N2  UNL     1      33.704   9.296  44.679  1.00  0.00    -0.227 NA
HETATM    7  C17 UNL     1      32.797   8.187  44.681  1.00  0.00     0.196 A 
HETATM    8  C18 UNL     1      32.376   9.234  45.340  1.00  0.00     0.145 A 
HETATM    9  C19 UNL     1      32.096  10.578  45.997  1.00  0.00    -0.002 C 
HETATM   10  C20 UNL     1      31.521  10.912  47.192  1.00  0.00    -0.003 C 
HETATM   11  C21 UNL     1      30.948  10.597  48.466  1.00  0.00    -0.004 C 
HETATM   12  C22 UNL     1      30.652   9.810  49.592  1.00  0.00    -0.025 C 
HETATM   13  C23 UNL     1      31.597   8.769  49.000  1.00  0.00     0.054 C 
HETATM   14  C24 UNL     1      30.970   7.433  48.712  1.00  0.00     0.110 C 
HETATM   15  N3  UNL     1      31.958   6.519  48.162  1.00  0.00    -0.367 N 
HETATM   16  O2  UNL     1      32.201   6.836  44.413  1.00  0.00    -0.317 OA
HETATM   17  H25 UNL     1      31.859   5.474  48.397  1.00  0.00     0.161 HD
ENDROOT
BRANCH   1  18
HETATM   18  C6  UNL     1      33.566   5.856  43.490  1.00  0.00     0.012 C 
BRANCH  18  19
HETATM   19  C5  UNL     1      33.769   5.602  42.144  1.00  0.00     0.002 C 
BRANCH  19  20
HETATM   20  C4  UNL     1      32.737   4.790  41.459  1.00  0.00     0.030 C 
BRANCH  20  21
HETATM   21  C3  UNL     1      33.643   3.712  40.942  1.00  0.00    -0.005 A 
HETATM   22  C2  UNL     1      32.778   2.534  40.231  1.00  0.00    -0.005 A 
HETATM   23  C1  UNL     1      34.216   2.500  40.141  1.00  0.00     0.011 A 
ENDBRANCH  20  21
ENDBRANCH  19  20
ENDBRANCH  18  19
ENDBRANCH   1  18
BRANCH   2  24
HETATM   24  C9  UNL     1      33.149   4.405  46.470  1.00  0.00    -0.019 A 
HETATM   25  C10 UNL     1      32.219   3.430  46.369  1.00  0.00     0.012 A 
HETATM   26  C11 UNL     1      32.509   2.330  47.050  1.00  0.00     0.001 A 
HETATM   27  C12 UNL     1      33.685   2.134  47.807  1.00  0.00     0.000 A 
HETATM   28  C13 UNL     1      34.634   3.182  47.861  1.00  0.00     0.001 A 
HETATM   29  C14 UNL     1      34.368   4.371  47.166  1.00  0.00     0.012 A 
ENDBRANCH   2  24
BRANCH  14  30
HETATM   30  C25 UNL     1      29.660   7.530  48.055  1.00  0.00     0.189 C 
BRANCH  30  31
HETATM   31  O1  UNL     1      28.697   6.944  48.897  1.00  0.00    -0.399 OA
HETATM   32  H24 UNL     1      28.833   7.425  49.787  1.00  0.00     0.209 HD
ENDBRANCH  30  31
ENDBRANCH  14  30
TORSDOF 7
ENDMDL
MODEL 8
REMARK VINA RESULT:      -6.6      2.255      7.066
REMARK  7 active torsions:
REMARK  status: ('A' for Active; 'I' for Inactive)
REMARK    1  A    between atoms: C3_3  and  C4_4 
REMARK    2  A    between atoms: C4_4  and  C5_5 
REMARK    3  A    between atoms: C5_5  and  C6_6 
REMARK    4  A    between atoms: C6_6  and  C7_7 
REMARK    5  A    between atoms: C8_8  and  C9_9 
REMARK    6  A    between atoms: C24_26  and  C25_27 
REMARK    7  A    between atoms: C25_27  and  O1_28 
ROOT
HETATM    1  C7  UNL     1      22.372   4.477  49.945  1.00  0.00     0.083 C 
HETATM    2  C8  UNL     1      21.470   3.699  49.345  1.00  0.00     0.053 C 
HETATM    3  C15 UNL     1      20.936   2.289  49.645  1.00  0.00     0.138 C 
HETATM    4  N1  UNL     1      21.796   1.302  49.960  1.00  0.00    -0.231 NA
HETATM    5  C16 UNL     1      22.953   1.274  50.951  1.00  0.00     0.184 C 
HETATM    6  N2  UNL     1      23.266   2.146  52.372  1.00  0.00    -0.227 NA
HETATM    7  C17 UNL     1      22.366   3.191  51.983  1.00  0.00     0.196 A 
HETATM    8  C18 UNL     1      21.805   2.201  52.626  1.00  0.00     0.145 A 
HETATM    9  C19 UNL     1      21.403   0.969  53.423  1.00  0.00    -0.002 C 
HETATM   10  C20 UNL     1      20.311   0.148  53.353  1.00  0.00    -0.003 C 
HETATM   11  C21 UNL     1      19.082  -0.296  52.767  1.00  0.00    -0.004 C 
HETATM   12  C22 UNL     1      18.093  -0.422  51.777  1.00  0.00    -0.025 C 
HETATM   13  C23 UNL     1      19.044   0.339  50.858  1.00  0.00     0.054 C 
HETATM   14  C24 UNL     1      18.502   1.631  50.313  1.00  0.00     0.110 C 
HETATM   15  N3  UNL     1      19.482   2.266  49.447  1.00  0.00    -0.367 N 
HETATM   16  O2  UNL     1      21.836   4.469  51.402  1.00  0.00    -0.317 OA
HETATM   17  H25 UNL     1      19.117   2.836  48.612  1.00  0.00     0.161 HD
ENDROOT
BRANCH   1  18
HETATM   18  C6  UNL     1      23.323   5.267  50.493  1.00  0.00     0.012 C 
BRANCH  18  19
HETATM   19  C5  UNL     1      24.382   6.106  50.794  1.00  0.00     0.002 C 
BRANCH  19  20
HETATM   20  C4  UNL     1      25.479   6.173  49.801  1.00  0.00     0.030 C 
BRANCH  20  21
HETATM   21  C3  UNL     1      25.750   4.700  49.705  1.00  0.00    -0.005 A 
HETATM   22  C2  UNL     1      27.166   4.431  48.956  1.00  0.00    -0.005 A 
HETATM   23  C1  UNL     1      26.466   3.321  49.552  1.00  0.00     0.011 A 
ENDBRANCH  20  21
ENDBRANCH  19  20
ENDBRANCH  18  19
ENDBRANCH   1  18
BRANCH   2  24
HETATM   24  C9  UNL     1      21.095   4.387  48.164  1.00  0.00    -0.019 A 
HETATM   25  C10 UNL     1      20.062   5.207  47.873  1.00  0.00     0.012 A 
HETATM   26  C11 UNL     1      19.891   5.426  46.576  1.00  0.00     0.001 A 
HETATM   27  C12 UNL     1      20.705   4.895  45.552  1.00  0.00     0.000 A 
HETATM   28  C13 UNL     1      21.787   4.058  45.917  1.00  0.00     0.001 A 
HETATM   29  C14 UNL     1      22.002   3.787  47.276  1.00  0.00     0.012 A 
ENDBRANCH   2  24
BRANCH  14  30
HETATM   30  C25 UNL     1      17.819   2.451  51.322  1.00  0.00     0.189 C 
BRANCH  30  31
HETATM   31  O1  UNL     1      18.740   3.385  51.833  1.00  0.00    -0.399 OA
HETATM   32  H24 UNL     1      19.636   2.901  51.762  1.00  0.00     0.209 HD
ENDBRANCH  30  31
ENDBRANCH  14  30
TORSDOF 7
ENDMDL
MODEL 9
REMARK VINA RESULT:      -6.4      9.793     12.029
REMARK  7 active torsions:
REMARK  status: ('A' for Active; 'I' for Inactive)
REMARK    1  A    between atoms: C3_3  and  C4_4 
REMARK    2  A    between atoms: C4_4  and  C5_5 
REMARK    3  A    between atoms: C5_5  and  C6_6 
REMARK    4  A    between atoms: C6_6  and  C7_7 
REMARK    5  A    between atoms: C8_8  and  C9_9 
REMARK    6  A    between atoms: C24_26  and  C25_27 
REMARK    7  A    between atoms: C25_27  and  O1_28 
ROOT
HETATM    1  C7  UNL     1      33.643   6.439  46.636  1.00  0.00     0.083 C 
HETATM    2  C8  UNL     1      33.028   7.212  45.740  1.00  0.00     0.053 C 
HETATM    3  C15 UNL     1      31.815   8.151  45.823  1.00  0.00     0.138 C 
HETATM    4  N1  UNL     1      30.699   7.746  46.459  1.00  0.00    -0.231 NA
HETATM    5  C16 UNL     1      30.517   7.091  47.823  1.00  0.00     0.184 C 
HETATM    6  N2  UNL     1      31.443   7.128  49.244  1.00  0.00    -0.227 NA
HETATM    7  C17 UNL     1      32.615   7.528  48.524  1.00  0.00     0.196 A 
HETATM    8  C18 UNL     1      31.850   8.515  48.908  1.00  0.00     0.145 A 
HETATM    9  C19 UNL     1      30.831   9.479  49.497  1.00  0.00    -0.002 C 
HETATM   10  C20 UNL     1      30.273  10.631  49.016  1.00  0.00    -0.003 C 
HETATM   11  C21 UNL     1      30.056  11.619  48.002  1.00  0.00    -0.004 C 
HETATM   12  C22 UNL     1      30.050  12.162  46.706  1.00  0.00    -0.025 C 
HETATM   13  C23 UNL     1      30.477  10.779  46.223  1.00  0.00     0.054 C 
HETATM   14  C24 UNL     1      31.793  10.739  45.496  1.00  0.00     0.110 C 
HETATM   15  N3  UNL     1      32.096   9.381  45.074  1.00  0.00    -0.367 N 
HETATM   16  O2  UNL     1      33.911   7.467  47.769  1.00  0.00    -0.317 OA
HETATM   17  H25 UNL     1      32.642   9.252  44.156  1.00  0.00     0.161 HD
ENDROOT
BRANCH   1  18
HETATM   18  C6  UNL     1      34.254   5.600  47.503  1.00  0.00     0.012 C 
BRANCH  18  19
HETATM   19  C5  UNL     1      34.785   4.544  48.223  1.00  0.00     0.002 C 
BRANCH  19  20
HETATM   20  C4  UNL     1      34.835   3.232  47.538  1.00  0.00     0.030 C 
BRANCH  20  21
HETATM   21  C3  UNL     1      33.463   3.272  46.931  1.00  0.00    -0.005 A 
HETATM   22  C2  UNL     1      32.754   1.813  47.030  1.00  0.00    -0.005 A 
HETATM   23  C1  UNL     1      31.982   2.938  46.565  1.00  0.00     0.011 A 
ENDBRANCH  20  21
ENDBRANCH  19  20
ENDBRANCH  18  19
ENDBRANCH   1  18
BRANCH   2  24
HETATM   24  C9  UNL     1      33.654   6.933  44.499  1.00  0.00    -0.019 A 
HETATM   25  C10 UNL     1      34.506   7.641  43.725  1.00  0.00     0.012 A 
HETATM   26  C11 UNL     1      34.646   7.165  42.495  1.00  0.00     0.001 A 
HETATM   27  C12 UNL     1      34.004   6.009  41.998  1.00  0.00     0.000 A 
HETATM   28  C13 UNL     1      33.138   5.296  42.860  1.00  0.00     0.001 A 
HETATM   29  C14 UNL     1      32.948   5.765  44.167  1.00  0.00     0.012 A 
ENDBRANCH   2  24
BRANCH  14  30
HETATM   30  C25 UNL     1      32.848  11.524  46.150  1.00  0.00     0.189 C 
BRANCH  30  31
HETATM   31  O1  UNL     1      33.623  10.655  46.941  1.00  0.00    -0.399 OA
HETATM   32  H24 UNL     1      33.085   9.788  46.940  1.00  0.00     0.209 HD
ENDBRANCH  30  31
ENDBRANCH  14  30
TORSDOF 7
ENDMDL
