MODEL 1
REMARK VINA RESULT:      -7.8      0.000      0.000
REMARK  0 active torsions:
REMARK  status: ('A' for Active; 'I' for Inactive)
ROOT
HETATM    1  F1  UNL     1      25.779   0.203  53.724  1.00  0.00    -0.362 F 
HETATM    2  C1  UNL     1      26.959   0.810  53.905  1.00  0.00     0.079 A 
HETATM    3  C2  UNL     1      26.300   0.315  54.985  1.00  0.00     0.200 A 
HETATM    4  C3  UNL     1      25.158  -0.197  54.249  1.00  0.00     0.073 C 
HETATM    5  C4  UNL     1      24.062  -0.829  54.558  1.00  0.00     0.071 C 
HETATM    6  N1  UNL     1      23.505  -0.943  53.221  1.00  0.00    -0.353 N 
HETATM    7  C5  UNL     1      22.582   0.011  52.778  1.00  0.00     0.135 C 
HETATM    8  C6  UNL     1      22.549   1.119  52.083  1.00  0.00     0.019 C 
HETATM    9  C7  UNL     1      23.953   1.359  51.677  1.00  0.00     0.040 C 
HETATM   10  C8  UNL     1      24.933   2.269  51.852  1.00  0.00     0.023 C 
HETATM   11  C9  UNL     1      26.300   2.447  51.368  1.00  0.00     0.171 C 
HETATM   12  N2  UNL     1      27.364   2.518  52.249  1.00  0.00    -0.410 N 
HETATM   13  C10 UNL     1      27.841   1.391  52.913  1.00  0.00     0.179 C 
HETATM   14  N3  UNL     1      24.760   3.460  52.667  1.00  0.00    -0.390 N 
HETATM   15  C11 UNL     1      23.655   4.341  53.015  1.00  0.00     0.146 C 
HETATM   16  C12 UNL     1      22.516   4.167  52.008  1.00  0.00     0.188 C 
HETATM   17  O1  UNL     1      21.615   3.266  52.487  1.00  0.00    -0.379 OA
HETATM   18  C13 UNL     1      21.494   2.082  51.734  1.00  0.00     0.163 C 
HETATM   19  C14 UNL     1      20.143   1.523  52.043  1.00  0.00     0.084 C 
HETATM   20  C15 UNL     1      20.232   0.284  52.827  1.00  0.00     0.095 C 
HETATM   21  N4  UNL     1      21.272  -0.431  53.185  1.00  0.00    -0.247 NA
HETATM   22  H4  UNL     1      23.632  -1.619  52.438  1.00  0.00     0.166 HD
HETATM   23  H8  UNL     1      27.608   3.402  52.707  1.00  0.00     0.153 HD
HETATM   24  H11 UNL     1      25.660   3.790  53.138  1.00  0.00     0.159 HD
ENDROOT
TORSDOF 0
ENDMDL
MODEL 2
REMARK VINA RESULT:      -7.7      2.161      4.749
REMARK  0 active torsions:
REMARK  status: ('A' for Active; 'I' for Inactive)
ROOT
HETATM    1  F1  UNL     1      21.683   1.274  52.641  1.00  0.00    -0.362 F 
HETATM    2  C1  UNL     1      20.762   2.048  52.054  1.00  0.00     0.079 A 
HETATM    3  C2  UNL     1      20.808   0.727  51.743  1.00  0.00     0.200 A 
HETATM    4  C3  UNL     1      21.923   0.401  52.615  1.00  0.00     0.073 C 
HETATM    5  C4  UNL     1      22.589  -0.680  52.905  1.00  0.00     0.071 C 
HETATM    6  N1  UNL     1      23.522  -0.098  53.855  1.00  0.00    -0.353 N 
HETATM    7  C5  UNL     1      24.786   0.309  53.413  1.00  0.00     0.135 C 
HETATM    8  C6  UNL     1      25.400   1.392  53.010  1.00  0.00     0.019 C 
HETATM    9  C7  UNL     1      24.378   2.462  53.080  1.00  0.00     0.040 C 
HETATM   10  C8  UNL     1      23.728   3.316  52.265  1.00  0.00     0.023 C 
HETATM   11  C9  UNL     1      22.747   4.386  52.432  1.00  0.00     0.171 C 
HETATM   12  N2  UNL     1      21.515   4.328  51.806  1.00  0.00    -0.410 N 
HETATM   13  C10 UNL     1      20.514   3.464  52.240  1.00  0.00     0.179 C 
HETATM   14  N3  UNL     1      23.953   3.356  50.830  1.00  0.00    -0.390 N 
HETATM   15  C11 UNL     1      25.074   3.099  49.937  1.00  0.00     0.146 C 
HETATM   16  C12 UNL     1      26.386   3.150  50.723  1.00  0.00     0.188 C 
HETATM   17  O1  UNL     1      26.736   1.893  51.111  1.00  0.00    -0.379 OA
HETATM   18  C13 UNL     1      26.750   1.678  52.503  1.00  0.00     0.163 C 
HETATM   19  C14 UNL     1      27.663   0.519  52.740  1.00  0.00     0.084 C 
HETATM   20  C15 UNL     1      26.928  -0.672  53.185  1.00  0.00     0.095 C 
HETATM   21  N4  UNL     1      25.663  -0.831  53.498  1.00  0.00    -0.247 NA
HETATM   22  H4  UNL     1      23.483   0.111  54.875  1.00  0.00     0.166 HD
HETATM   23  H8  UNL     1      21.406   4.631  50.833  1.00  0.00     0.153 HD
HETATM   24  H11 UNL     1      23.092   3.645  50.269  1.00  0.00     0.159 HD
ENDROOT
TORSDOF 0
ENDMDL
MODEL 3
REMARK VINA RESULT:      -7.4      1.605      2.267
REMARK  0 active torsions:
REMARK  status: ('A' for Active; 'I' for Inactive)
ROOT
HETATM    1  F1  UNL     1      25.928   1.677  51.886  1.00  0.00    -0.362 F 
HETATM    2  C1  UNL     1      26.578   2.668  51.262  1.00  0.00     0.079 A 
HETATM    3  C2  UNL     1      26.875   2.401  52.560  1.00  0.00     0.200 A 
HETATM    4  C3  UNL     1      25.932   1.307  52.713  1.00  0.00     0.073 C 
HETATM    5  C4  UNL     1      25.597   0.499  53.678  1.00  0.00     0.071 C 
HETATM    6  N1  UNL     1      24.588  -0.266  52.965  1.00  0.00    -0.353 N 
HETATM    7  C5  UNL     1      23.242   0.096  53.084  1.00  0.00     0.135 C 
HETATM    8  C6  UNL     1      22.340   0.802  52.452  1.00  0.00     0.019 C 
HETATM    9  C7  UNL     1      23.038   1.338  51.260  1.00  0.00     0.040 C 
HETATM   10  C8  UNL     1      23.393   2.523  50.725  1.00  0.00     0.023 C 
HETATM   11  C9  UNL     1      24.056   2.966  49.500  1.00  0.00     0.171 C 
HETATM   12  N2  UNL     1      25.227   3.701  49.549  1.00  0.00    -0.410 N 
HETATM   13  C10 UNL     1      26.444   3.117  49.891  1.00  0.00     0.179 C 
HETATM   14  N3  UNL     1      23.098   3.794  51.365  1.00  0.00    -0.390 N 
HETATM   15  C11 UNL     1      22.046   4.314  52.228  1.00  0.00     0.146 C 
HETATM   16  C12 UNL     1      20.808   3.419  52.133  1.00  0.00     0.188 C 
HETATM   17  O1  UNL     1      20.829   2.502  53.139  1.00  0.00    -0.379 OA
HETATM   18  C13 UNL     1      20.940   1.161  52.723  1.00  0.00     0.163 C 
HETATM   19  C14 UNL     1      20.385   0.329  53.835  1.00  0.00     0.084 C 
HETATM   20  C15 UNL     1      21.435  -0.440  54.516  1.00  0.00     0.095 C 
HETATM   21  N4  UNL     1      22.710  -0.585  54.237  1.00  0.00    -0.247 NA
HETATM   22  H4  UNL     1      24.618  -1.092  52.330  1.00  0.00     0.166 HD
HETATM   23  H8  UNL     1      25.204   4.716  49.683  1.00  0.00     0.153 HD
HETATM   24  H11 UNL     1      23.822   4.553  51.166  1.00  0.00     0.159 HD
ENDROOT
TORSDOF 0
ENDMDL
MODEL 4
REMARK VINA RESULT:      -7.3      1.131      1.453
REMARK  0 active torsions:
REMARK  status: ('A' for Active; 'I' for Inactive)
ROOT
HETATM    1  F1  UNL     1      24.443  -0.224  52.994  1.00  0.00    -0.362 F 
HETATM    2  C1  UNL     1      25.733  -0.126  53.338  1.00  0.00     0.079 A 
HETATM    3  C2  UNL     1      24.838  -0.571  54.258  1.00  0.00     0.200 A 
HETATM    4  C3  UNL     1      23.672  -0.480  53.396  1.00  0.00     0.073 C 
HETATM    5  C4  UNL     1      22.401  -0.732  53.525  1.00  0.00     0.071 C 
HETATM    6  N1  UNL     1      21.980  -0.359  52.186  1.00  0.00    -0.353 N 
HETATM    7  C5  UNL     1      21.486   0.930  51.956  1.00  0.00     0.135 C 
HETATM    8  C6  UNL     1      21.903   2.098  51.538  1.00  0.00     0.019 C 
HETATM    9  C7  UNL     1      23.339   1.905  51.230  1.00  0.00     0.040 C 
HETATM   10  C8  UNL     1      24.545   2.352  51.635  1.00  0.00     0.023 C 
HETATM   11  C9  UNL     1      25.934   2.132  51.238  1.00  0.00     0.171 C 
HETATM   12  N2  UNL     1      26.862   1.635  52.136  1.00  0.00    -0.410 N 
HETATM   13  C10 UNL     1      26.857   0.300  52.530  1.00  0.00     0.179 C 
HETATM   14  N3  UNL     1      24.704   3.327  52.701  1.00  0.00    -0.390 N 
HETATM   15  C11 UNL     1      23.933   4.448  53.219  1.00  0.00     0.146 C 
HETATM   16  C12 UNL     1      22.913   4.903  52.173  1.00  0.00     0.188 C 
HETATM   17  O1  UNL     1      21.715   4.300  52.408  1.00  0.00    -0.379 OA
HETATM   18  C13 UNL     1      21.279   3.422  51.397  1.00  0.00     0.163 C 
HETATM   19  C14 UNL     1      19.794   3.326  51.536  1.00  0.00     0.084 C 
HETATM   20  C15 UNL     1      19.376   2.000  52.012  1.00  0.00     0.095 C 
HETATM   21  N4  UNL     1      20.070   0.905  52.218  1.00  0.00    -0.247 NA
HETATM   22  H4  UNL     1      21.951  -0.855  51.269  1.00  0.00     0.166 HD
HETATM   23  H8  UNL     1      27.343   2.258  52.792  1.00  0.00     0.153 HD
HETATM   24  H11 UNL     1      25.608   3.211  53.257  1.00  0.00     0.159 HD
ENDROOT
TORSDOF 0
ENDMDL
MODEL 5
REMARK VINA RESULT:      -7.3      2.041      4.731
REMARK  0 active torsions:
REMARK  status: ('A' for Active; 'I' for Inactive)
ROOT
HETATM    1  F1  UNL     1      23.160   0.448  53.606  1.00  0.00    -0.362 F 
HETATM    2  C1  UNL     1      22.024  -0.217  53.854  1.00  0.00     0.079 A 
HETATM    3  C2  UNL     1      23.164  -0.921  53.632  1.00  0.00     0.200 A 
HETATM    4  C3  UNL     1      24.022   0.234  53.431  1.00  0.00     0.073 C 
HETATM    5  C4  UNL     1      25.285   0.417  53.169  1.00  0.00     0.071 C 
HETATM    6  N1  UNL     1      25.280   1.869  53.136  1.00  0.00    -0.353 N 
HETATM    7  C5  UNL     1      25.147   2.527  51.908  1.00  0.00     0.135 C 
HETATM    8  C6  UNL     1      24.218   3.072  51.165  1.00  0.00     0.019 C 
HETATM    9  C7  UNL     1      22.963   2.903  51.933  1.00  0.00     0.040 C 
HETATM   10  C8  UNL     1      21.767   2.288  51.827  1.00  0.00     0.023 C 
HETATM   11  C9  UNL     1      20.551   2.209  52.632  1.00  0.00     0.171 C 
HETATM   12  N2  UNL     1      20.079   0.994  53.095  1.00  0.00    -0.410 N 
HETATM   13  C10 UNL     1      20.706   0.314  54.136  1.00  0.00     0.179 C 
HETATM   14  N3  UNL     1      21.400   1.482  50.674  1.00  0.00    -0.390 N 
HETATM   15  C11 UNL     1      21.710   1.484  49.252  1.00  0.00     0.146 C 
HETATM   16  C12 UNL     1      22.255   2.855  48.842  1.00  0.00     0.188 C 
HETATM   17  O1  UNL     1      23.616   2.835  48.879  1.00  0.00    -0.379 OA
HETATM   18  C13 UNL     1      24.201   3.692  49.832  1.00  0.00     0.163 C 
HETATM   19  C14 UNL     1      25.591   3.963  49.355  1.00  0.00     0.084 C 
HETATM   20  C15 UNL     1      26.596   3.328  50.218  1.00  0.00     0.095 C 
HETATM   21  N4  UNL     1      26.467   2.681  51.353  1.00  0.00    -0.247 NA
HETATM   22  H4  UNL     1      25.358   2.611  53.864  1.00  0.00     0.166 HD
HETATM   23  H8  UNL     1      19.501   0.394  52.498  1.00  0.00     0.153 HD
HETATM   24  H11 UNL     1      20.734   0.681  50.906  1.00  0.00     0.159 HD
ENDROOT
TORSDOF 0
ENDMDL
MODEL 6
REMARK VINA RESULT:      -7.2      7.199      9.245
REMARK  0 active torsions:
REMARK  status: ('A' for Active; 'I' for Inactive)
ROOT
HETATM    1  F1  UNL     1      31.101   7.953  48.303  1.00  0.00    -0.362 F 
HETATM    2  C1  UNL     1      31.665   9.157  48.461  1.00  0.00     0.079 A 
HETATM    3  C2  UNL     1      32.080   8.128  49.244  1.00  0.00     0.200 A 
HETATM    4  C3  UNL     1      31.186   7.133  48.678  1.00  0.00     0.073 C 
HETATM    5  C4  UNL     1      30.960   5.867  48.882  1.00  0.00     0.071 C 
HETATM    6  N1  UNL     1      29.917   5.681  47.887  1.00  0.00    -0.353 N 
HETATM    7  C5  UNL     1      28.575   5.768  48.275  1.00  0.00     0.135 C 
HETATM    8  C6  UNL     1      27.602   6.642  48.307  1.00  0.00     0.019 C 
HETATM    9  C7  UNL     1      28.179   7.882  47.737  1.00  0.00     0.040 C 
HETATM   10  C8  UNL     1      28.452   9.151  48.103  1.00  0.00     0.023 C 
HETATM   11  C9  UNL     1      28.995  10.338  47.448  1.00  0.00     0.171 C 
HETATM   12  N2  UNL     1      30.143  10.950  47.919  1.00  0.00    -0.410 N 
HETATM   13  C10 UNL     1      31.401  10.384  47.736  1.00  0.00     0.179 C 
HETATM   14  N3  UNL     1      28.174   9.660  49.435  1.00  0.00    -0.390 N 
HETATM   15  C11 UNL     1      27.184   9.401  50.471  1.00  0.00     0.146 C 
HETATM   16  C12 UNL     1      25.970   8.694  49.864  1.00  0.00     0.188 C 
HETATM   17  O1  UNL     1      26.104   7.348  50.011  1.00  0.00    -0.379 OA
HETATM   18  C13 UNL     1      26.220   6.623  48.809  1.00  0.00     0.163 C 
HETATM   19  C14 UNL     1      25.787   5.226  49.117  1.00  0.00     0.084 C 
HETATM   20  C15 UNL     1      26.914   4.285  49.074  1.00  0.00     0.095 C 
HETATM   21  N4  UNL     1      28.164   4.459  48.712  1.00  0.00    -0.247 NA
HETATM   22  H4  UNL     1      29.918   5.481  46.864  1.00  0.00     0.166 HD
HETATM   23  H8  UNL     1      30.101  11.622  48.691  1.00  0.00     0.153 HD
HETATM   24  H11 UNL     1      28.855  10.418  49.755  1.00  0.00     0.159 HD
ENDROOT
TORSDOF 0
ENDMDL
MODEL 7
REMARK VINA RESULT:      -7.2      2.141      5.526
REMARK  0 active torsions:
REMARK  status: ('A' for Active; 'I' for Inactive)
ROOT
HETATM    1  F1  UNL     1      21.981   3.435  51.677  1.00  0.00    -0.362 F 
HETATM    2  C1  UNL     1      20.677   3.633  51.442  1.00  0.00     0.079 A 
HETATM    3  C2  UNL     1      21.336   4.492  52.262  1.00  0.00     0.200 A 
HETATM    4  C3  UNL     1      22.630   3.839  52.163  1.00  0.00     0.073 C 
HETATM    5  C4  UNL     1      23.816   4.050  52.658  1.00  0.00     0.071 C 
HETATM    6  N1  UNL     1      24.499   2.926  52.041  1.00  0.00    -0.353 N 
HETATM    7  C5  UNL     1      24.642   1.732  52.758  1.00  0.00     0.135 C 
HETATM    8  C6  UNL     1      24.052   0.572  52.889  1.00  0.00     0.019 C 
HETATM    9  C7  UNL     1      22.901   0.618  51.959  1.00  0.00     0.040 C 
HETATM   10  C8  UNL     1      21.554   0.570  51.987  1.00  0.00     0.023 C 
HETATM   11  C9  UNL     1      20.481   0.581  50.996  1.00  0.00     0.171 C 
HETATM   12  N2  UNL     1      19.510   1.566  51.008  1.00  0.00    -0.410 N 
HETATM   13  C10 UNL     1      19.782   2.868  50.598  1.00  0.00     0.179 C 
HETATM   14  N3  UNL     1      20.800   0.439  53.223  1.00  0.00    -0.390 N 
HETATM   15  C11 UNL     1      21.014  -0.187  54.521  1.00  0.00     0.146 C 
HETATM   16  C12 UNL     1      22.126  -1.233  54.415  1.00  0.00     0.188 C 
HETATM   17  O1  UNL     1      23.315  -0.674  54.773  1.00  0.00    -0.379 OA
HETATM   18  C13 UNL     1      24.276  -0.603  53.745  1.00  0.00     0.163 C 
HETATM   19  C14 UNL     1      25.607  -0.523  54.420  1.00  0.00     0.084 C 
HETATM   20  C15 UNL     1      26.225   0.799  54.248  1.00  0.00     0.095 C 
HETATM   21  N4  UNL     1      25.853   1.833  53.532  1.00  0.00    -0.247 NA
HETATM   22  H4  UNL     1      24.951   2.771  51.114  1.00  0.00     0.166 HD
HETATM   23  H8  UNL     1      18.691   1.488  51.620  1.00  0.00     0.153 HD
HETATM   24  H11 UNL     1      19.844   0.913  53.194  1.00  0.00     0.159 HD
ENDROOT
TORSDOF 0
ENDMDL
MODEL 8
REMARK VINA RESULT:      -7.1      2.845      5.348
REMARK  0 active torsions:
REMARK  status: ('A' for Active; 'I' for Inactive)
ROOT
HETATM    1  F1  UNL     1      26.111   3.798  50.650  1.00  0.00    -0.362 F 
HETATM    2  C1  UNL     1      26.385   2.500  50.829  1.00  0.00     0.079 A 
HETATM    3  C2  UNL     1      26.584   3.052  49.604  1.00  0.00     0.200 A 
HETATM    4  C3  UNL     1      26.149   4.390  49.965  1.00  0.00     0.073 C 
HETATM    5  C4  UNL     1      26.039   5.529  49.343  1.00  0.00     0.071 C 
HETATM    6  N1  UNL     1      25.532   6.321  50.451  1.00  0.00    -0.353 N 
HETATM    7  C5  UNL     1      24.151   6.502  50.589  1.00  0.00     0.135 C 
HETATM    8  C6  UNL     1      23.137   5.985  51.235  1.00  0.00     0.019 C 
HETATM    9  C7  UNL     1      23.717   4.888  52.045  1.00  0.00     0.040 C 
HETATM   10  C8  UNL     1      23.636   3.548  52.168  1.00  0.00     0.023 C 
HETATM   11  C9  UNL     1      24.226   2.535  53.039  1.00  0.00     0.171 C 
HETATM   12  N2  UNL     1      24.984   1.501  52.520  1.00  0.00    -0.410 N 
HETATM   13  C10 UNL     1      26.272   1.708  52.037  1.00  0.00     0.179 C 
HETATM   14  N3  UNL     1      22.769   2.735  51.331  1.00  0.00    -0.390 N 
HETATM   15  C11 UNL     1      21.489   2.915  50.661  1.00  0.00     0.146 C 
HETATM   16  C12 UNL     1      20.742   4.099  51.279  1.00  0.00     0.188 C 
HETATM   17  O1  UNL     1      20.991   5.225  50.556  1.00  0.00    -0.379 OA
HETATM   18  C13 UNL     1      21.689   6.237  51.245  1.00  0.00     0.163 C 
HETATM   19  C14 UNL     1      21.368   7.519  50.547  1.00  0.00     0.084 C 
HETATM   20  C15 UNL     1      22.535   8.056  49.833  1.00  0.00     0.095 C 
HETATM   21  N4  UNL     1      23.785   7.657  49.810  1.00  0.00    -0.247 NA
HETATM   22  H4  UNL     1      25.979   6.834  51.240  1.00  0.00     0.166 HD
HETATM   23  H8  UNL     1      24.535   0.656  52.152  1.00  0.00     0.153 HD
HETATM   24  H11 UNL     1      23.146   1.752  51.151  1.00  0.00     0.159 HD
ENDROOT
TORSDOF 0
ENDMDL
MODEL 9
REMARK VINA RESULT:      -7.0      2.805      4.707
REMARK  0 active torsions:
REMARK  status: ('A' for Active; 'I' for Inactive)
ROOT
HETATM    1  F1  UNL     1      22.315   2.901  49.186  1.00  0.00    -0.362 F 
HETATM    2  C1  UNL     1      22.830   3.787  48.325  1.00  0.00     0.079 A 
HETATM    3  C2  UNL     1      22.461   2.563  47.868  1.00  0.00     0.200 A 
HETATM    4  C3  UNL     1      22.002   2.051  49.148  1.00  0.00     0.073 C 
HETATM    5  C4  UNL     1      21.486   0.932  49.569  1.00  0.00     0.071 C 
HETATM    6  N1  UNL     1      21.336   1.288  50.969  1.00  0.00    -0.353 N 
HETATM    7  C5  UNL     1      22.335   0.927  51.880  1.00  0.00     0.135 C 
HETATM    8  C6  UNL     1      23.397   1.438  52.450  1.00  0.00     0.019 C 
HETATM    9  C7  UNL     1      23.491   2.818  51.920  1.00  0.00     0.040 C 
HETATM   10  C8  UNL     1      24.324   3.581  51.184  1.00  0.00     0.023 C 
HETATM   11  C9  UNL     1      24.355   4.971  50.738  1.00  0.00     0.171 C 
HETATM   12  N2  UNL     1      24.391   5.287  49.391  1.00  0.00    -0.410 N 
HETATM   13  C10 UNL     1      23.272   5.144  48.576  1.00  0.00     0.179 C 
HETATM   14  N3  UNL     1      25.574   3.077  50.639  1.00  0.00    -0.390 N 
HETATM   15  C11 UNL     1      26.565   2.086  51.033  1.00  0.00     0.146 C 
HETATM   16  C12 UNL     1      26.425   1.777  52.525  1.00  0.00     0.188 C 
HETATM   17  O1  UNL     1      25.635   0.681  52.693  1.00  0.00    -0.379 OA
HETATM   18  C13 UNL     1      24.421   0.917  53.367  1.00  0.00     0.163 C 
HETATM   19  C14 UNL     1      23.999  -0.396  53.944  1.00  0.00     0.084 C 
HETATM   20  C15 UNL     1      22.809  -0.930  53.269  1.00  0.00     0.095 C 
HETATM   21  N4  UNL     1      22.031  -0.399  52.353  1.00  0.00    -0.247 NA
HETATM   22  H4  UNL     1      20.604   1.791  51.515  1.00  0.00     0.166 HD
HETATM   23  H8  UNL     1      25.278   5.297  48.878  1.00  0.00     0.153 HD
HETATM   24  H11 UNL     1      25.856   3.537  49.718  1.00  0.00     0.159 HD
ENDROOT
TORSDOF 0
ENDMDL
