MODEL 1
REMARK VINA RESULT:      -8.1      0.000      0.000
REMARK  6 active torsions:
REMARK  status: ('A' for Active; 'I' for Inactive)
REMARK    1  A    between atoms: N1_2  and  C2_3 
REMARK    2  A    between atoms: C6_8  and  C7_9 
REMARK    3  A    between atoms: C7_9  and  C8_10 
REMARK    4  A    between atoms: C8_10  and  C9_11 
REMARK    5  A    between atoms: C11_13  and  C13_15 
REMARK    6  A    between atoms: C16_19  and  N4_20 
ROOT
HETATM    1  C9  UNL     1      25.508   0.385  52.617  1.00  0.00     0.049 C 
HETATM    2  C10 UNL     1      24.876  -0.162  53.849  1.00  0.00     0.012 C 
HETATM    3  C11 UNL     1      23.694  -0.739  54.022  1.00  0.00    -0.061 C 
HETATM    4  C12 UNL     1      23.107  -1.273  55.303  1.00  0.00     0.045 C 
HETATM    5  N3  UNL     1      25.684  -0.064  55.045  1.00  0.00    -0.390 N 
HETATM    6  C15 UNL     1      27.106  -0.395  55.047  1.00  0.00     0.164 C 
HETATM    7  C16 UNL     1      27.673  -0.354  53.644  1.00  0.00     0.202 C 
HETATM    8  C17 UNL     1      29.119   0.094  53.658  1.00  0.00     0.212 C 
HETATM    9  O1  UNL     1      29.260   1.367  54.204  1.00  0.00    -0.381 OA
HETATM   10  C18 UNL     1      28.560   2.315  53.493  1.00  0.00     0.246 C 
HETATM   11  C19 UNL     1      27.096   1.950  53.608  1.00  0.00     0.157 C 
HETATM   12  O2  UNL     1      26.398   2.694  54.274  1.00  0.00    -0.295 OA
HETATM   13  C20 UNL     1      26.943   0.698  52.814  1.00  0.00     0.109 C 
HETATM   14  H25 UNL     1      25.272   0.252  55.975  1.00  0.00     0.159 HD
ENDROOT
BRANCH   1  15
HETATM   15  C8  UNL     1      24.810   1.584  52.045  1.00  0.00     0.014 C 
BRANCH  15  16
HETATM   16  C7  UNL     1      25.643   2.088  50.880  1.00  0.00     0.038 C 
BRANCH  16  17
HETATM   17  C6  UNL     1      25.468   3.596  50.744  1.00  0.00     0.252 C 
HETATM   18  C2  UNL     1      24.945   3.935  49.385  1.00  0.00     0.235 C 
HETATM   19  C3  UNL     1      23.438   3.894  49.413  1.00  0.00     0.038 C 
HETATM   20  C4  UNL     1      22.943   4.928  50.373  1.00  0.00     0.032 C 
HETATM   21  C5  UNL     1      23.885   5.231  51.506  1.00  0.00     0.270 C 
HETATM   22  N2  UNL     1      24.667   4.042  51.841  1.00  0.00     0.090 N 
HETATM   23  H10 UNL     1      23.937   3.327  52.129  1.00  0.00     0.316 HD
BRANCH  18  24
HETATM   24  N1  UNL     1      25.421   5.228  48.947  1.00  0.00     0.021 NA
HETATM   25  C1  UNL     1      26.688   5.425  48.857  1.00  0.00     0.708 C 
ENDBRANCH  18  24
ENDBRANCH  16  17
ENDBRANCH  15  16
ENDBRANCH   1  15
BRANCH   3  26
HETATM   26  C13 UNL     1      22.648  -1.038  52.995  1.00  0.00     0.031 C 
HETATM   27  C14 UNL     1      21.509  -0.010  53.109  1.00  0.00     0.010 C 
ENDBRANCH   3  26
BRANCH   7  28
HETATM   28  N4  UNL     1      27.619  -1.670  53.060  1.00  0.00     0.092 N 
HETATM   29  H28 UNL     1      28.530  -2.186  53.175  1.00  0.00     0.314 HD
HETATM   30  H29 UNL     1      27.556  -1.520  52.010  1.00  0.00     0.314 HD
ENDBRANCH   7  28
TORSDOF 6
ENDMDL
MODEL 2
REMARK VINA RESULT:      -8.0      2.007      6.996
REMARK  6 active torsions:
REMARK  status: ('A' for Active; 'I' for Inactive)
REMARK    1  A    between atoms: N1_2  and  C2_3 
REMARK    2  A    between atoms: C6_8  and  C7_9 
REMARK    3  A    between atoms: C7_9  and  C8_10 
REMARK    4  A    between atoms: C8_10  and  C9_11 
REMARK    5  A    between atoms: C11_13  and  C13_15 
REMARK    6  A    between atoms: C16_19  and  N4_20 
ROOT
HETATM    1  C9  UNL     1      25.410   2.995  50.276  1.00  0.00     0.049 C 
HETATM    2  C10 UNL     1      25.327   4.401  49.796  1.00  0.00     0.012 C 
HETATM    3  C11 UNL     1      26.217   5.138  49.144  1.00  0.00    -0.061 C 
HETATM    4  C12 UNL     1      26.074   6.567  48.685  1.00  0.00     0.045 C 
HETATM    5  N3  UNL     1      24.071   5.067  50.067  1.00  0.00    -0.390 N 
HETATM    6  C15 UNL     1      22.786   4.409  49.853  1.00  0.00     0.164 C 
HETATM    7  C16 UNL     1      22.947   2.905  49.810  1.00  0.00     0.202 C 
HETATM    8  C17 UNL     1      21.723   2.213  50.372  1.00  0.00     0.212 C 
HETATM    9  O1  UNL     1      21.491   2.571  51.697  1.00  0.00    -0.381 OA
HETATM   10  C18 UNL     1      22.544   2.237  52.516  1.00  0.00     0.246 C 
HETATM   11  C19 UNL     1      23.733   3.047  52.047  1.00  0.00     0.157 C 
HETATM   12  O2  UNL     1      24.119   3.931  52.791  1.00  0.00    -0.295 OA
HETATM   13  C20 UNL     1      24.095   2.475  50.720  1.00  0.00     0.109 C 
HETATM   14  H25 UNL     1      24.035   6.066  50.434  1.00  0.00     0.159 HD
ENDROOT
BRANCH   1  15
HETATM   15  C8  UNL     1      26.426   2.770  51.357  1.00  0.00     0.014 C 
BRANCH  15  16
HETATM   16  C7  UNL     1      26.585   1.270  51.534  1.00  0.00     0.038 C 
BRANCH  16  17
HETATM   17  C6  UNL     1      26.848   0.955  53.001  1.00  0.00     0.252 C 
HETATM   18  C2  UNL     1      26.735  -0.515  53.243  1.00  0.00     0.235 C 
HETATM   19  C3  UNL     1      28.076  -1.160  52.998  1.00  0.00     0.038 C 
HETATM   20  C4  UNL     1      29.065  -0.604  53.973  1.00  0.00     0.032 C 
HETATM   21  C5  UNL     1      28.779   0.803  54.420  1.00  0.00     0.270 C 
HETATM   22  N2  UNL     1      28.104   1.541  53.354  1.00  0.00     0.090 N 
HETATM   23  H10 UNL     1      28.800   1.528  52.552  1.00  0.00     0.316 HD
BRANCH  18  24
HETATM   24  N1  UNL     1      26.262  -0.793  54.580  1.00  0.00     0.021 NA
HETATM   25  C1  UNL     1      24.995  -0.811  54.799  1.00  0.00     0.708 C 
ENDBRANCH  18  24
ENDBRANCH  16  17
ENDBRANCH  15  16
ENDBRANCH   1  15
BRANCH   3  26
HETATM   26  C13 UNL     1      27.580   4.743  48.669  1.00  0.00     0.031 C 
HETATM   27  C14 UNL     1      28.361   6.000  48.247  1.00  0.00     0.010 C 
ENDBRANCH   3  26
BRANCH   7  28
HETATM   28  N4  UNL     1      23.118   2.474  48.446  1.00  0.00     0.092 N 
HETATM   29  H28 UNL     1      23.027   1.428  48.353  1.00  0.00     0.314 HD
HETATM   30  H29 UNL     1      24.139   2.650  48.211  1.00  0.00     0.314 HD
ENDBRANCH   7  28
TORSDOF 6
ENDMDL
MODEL 3
REMARK VINA RESULT:      -7.8      1.157      1.866
REMARK  6 active torsions:
REMARK  status: ('A' for Active; 'I' for Inactive)
REMARK    1  A    between atoms: N1_2  and  C2_3 
REMARK    2  A    between atoms: C6_8  and  C7_9 
REMARK    3  A    between atoms: C7_9  and  C8_10 
REMARK    4  A    between atoms: C8_10  and  C9_11 
REMARK    5  A    between atoms: C11_13  and  C13_15 
REMARK    6  A    between atoms: C16_19  and  N4_20 
ROOT
HETATM    1  C9  UNL     1      25.024   0.604  52.439  1.00  0.00     0.049 C 
HETATM    2  C10 UNL     1      24.368  -0.066  53.594  1.00  0.00     0.012 C 
HETATM    3  C11 UNL     1      23.114  -0.473  53.751  1.00  0.00    -0.061 C 
HETATM    4  C12 UNL     1      22.507  -1.147  54.954  1.00  0.00     0.045 C 
HETATM    5  N3  UNL     1      25.237  -0.333  54.720  1.00  0.00    -0.390 N 
HETATM    6  C15 UNL     1      26.580  -0.877  54.548  1.00  0.00     0.164 C 
HETATM    7  C16 UNL     1      27.079  -0.652  53.137  1.00  0.00     0.202 C 
HETATM    8  C17 UNL     1      28.579  -0.449  53.119  1.00  0.00     0.212 C 
HETATM    9  O1  UNL     1      28.959   0.655  53.878  1.00  0.00    -0.381 OA
HETATM   10  C18 UNL     1      28.397   1.821  53.412  1.00  0.00     0.246 C 
HETATM   11  C19 UNL     1      26.899   1.676  53.573  1.00  0.00     0.157 C 
HETATM   12  O2  UNL     1      26.371   2.376  54.418  1.00  0.00    -0.295 OA
HETATM   13  C20 UNL     1      26.499   0.643  52.577  1.00  0.00     0.109 C 
HETATM   14  H25 UNL     1      24.929  -0.143  55.722  1.00  0.00     0.159 HD
ENDROOT
BRANCH   1  15
HETATM   15  C8  UNL     1      24.513   1.987  52.155  1.00  0.00     0.014 C 
BRANCH  15  16
HETATM   16  C7  UNL     1      24.317   2.105  50.654  1.00  0.00     0.038 C 
BRANCH  16  17
HETATM   17  C6  UNL     1      23.532   3.373  50.341  1.00  0.00     0.252 C 
HETATM   18  C2  UNL     1      24.175   4.554  50.994  1.00  0.00     0.235 C 
HETATM   19  C3  UNL     1      25.216   5.125  50.064  1.00  0.00     0.038 C 
HETATM   20  C4  UNL     1      24.542   5.594  48.814  1.00  0.00     0.032 C 
HETATM   21  C5  UNL     1      23.291   4.840  48.456  1.00  0.00     0.270 C 
HETATM   22  N2  UNL     1      23.389   3.457  48.921  1.00  0.00     0.090 N 
HETATM   23  H10 UNL     1      24.231   3.071  48.403  1.00  0.00     0.316 HD
BRANCH  18  24
HETATM   24  N1  UNL     1      23.195   5.554  51.353  1.00  0.00     0.021 NA
HETATM   25  C1  UNL     1      22.103   5.178  51.917  1.00  0.00     0.708 C 
ENDBRANCH  18  24
ENDBRANCH  16  17
ENDBRANCH  15  16
ENDBRANCH   1  15
BRANCH   3  26
HETATM   26  C13 UNL     1      21.985  -0.396  52.772  1.00  0.00     0.031 C 
HETATM   27  C14 UNL     1      21.091   0.809  53.113  1.00  0.00     0.010 C 
ENDBRANCH   3  26
BRANCH   7  28
HETATM   28  N4  UNL     1      26.774  -1.803  52.326  1.00  0.00     0.092 N 
HETATM   29  H28 UNL     1      25.770  -2.104  52.437  1.00  0.00     0.314 HD
HETATM   30  H29 UNL     1      27.318  -2.611  52.752  1.00  0.00     0.314 HD
ENDBRANCH   7  28
TORSDOF 6
ENDMDL
MODEL 4
REMARK VINA RESULT:      -7.8      1.696      2.074
REMARK  6 active torsions:
REMARK  status: ('A' for Active; 'I' for Inactive)
REMARK    1  A    between atoms: N1_2  and  C2_3 
REMARK    2  A    between atoms: C6_8  and  C7_9 
REMARK    3  A    between atoms: C7_9  and  C8_10 
REMARK    4  A    between atoms: C8_10  and  C9_11 
REMARK    5  A    between atoms: C11_13  and  C13_15 
REMARK    6  A    between atoms: C16_19  and  N4_20 
ROOT
HETATM    1  C9  UNL     1      24.971   0.659  52.459  1.00  0.00     0.049 C 
HETATM    2  C10 UNL     1      24.382  -0.044  53.631  1.00  0.00     0.012 C 
HETATM    3  C11 UNL     1      23.154  -0.509  53.825  1.00  0.00    -0.061 C 
HETATM    4  C12 UNL     1      22.616  -1.214  55.044  1.00  0.00     0.045 C 
HETATM    5  N3  UNL     1      25.298  -0.274  54.728  1.00  0.00    -0.390 N 
HETATM    6  C15 UNL     1      26.658  -0.756  54.512  1.00  0.00     0.164 C 
HETATM    7  C16 UNL     1      27.102  -0.504  53.086  1.00  0.00     0.202 C 
HETATM    8  C17 UNL     1      28.590  -0.232  53.023  1.00  0.00     0.212 C 
HETATM    9  O1  UNL     1      28.943   0.885  53.774  1.00  0.00    -0.381 OA
HETATM   10  C18 UNL     1      28.313   2.026  53.331  1.00  0.00     0.246 C 
HETATM   11  C19 UNL     1      26.830   1.812  53.538  1.00  0.00     0.157 C 
HETATM   12  O2  UNL     1      26.297   2.485  54.402  1.00  0.00    -0.295 OA
HETATM   13  C20 UNL     1      26.446   0.765  52.550  1.00  0.00     0.109 C 
HETATM   14  H25 UNL     1      25.013  -0.102  55.740  1.00  0.00     0.159 HD
ENDROOT
BRANCH   1  15
HETATM   15  C8  UNL     1      24.388   2.017  52.197  1.00  0.00     0.014 C 
BRANCH  15  16
HETATM   16  C7  UNL     1      24.406   2.243  50.695  1.00  0.00     0.038 C 
BRANCH  16  17
HETATM   17  C6  UNL     1      23.109   2.918  50.267  1.00  0.00     0.252 C 
HETATM   18  C2  UNL     1      22.586   2.287  49.017  1.00  0.00     0.235 C 
HETATM   19  C3  UNL     1      21.705   1.120  49.386  1.00  0.00     0.038 C 
HETATM   20  C4  UNL     1      20.538   1.625  50.174  1.00  0.00     0.032 C 
HETATM   21  C5  UNL     1      20.815   2.868  50.973  1.00  0.00     0.270 C 
HETATM   22  N2  UNL     1      22.218   2.899  51.385  1.00  0.00     0.090 N 
HETATM   23  H10 UNL     1      22.330   2.027  51.980  1.00  0.00     0.316 HD
BRANCH  18  24
HETATM   24  N1  UNL     1      21.868   3.244  48.206  1.00  0.00     0.021 NA
HETATM   25  C1  UNL     1      22.422   4.374  47.943  1.00  0.00     0.708 C 
ENDBRANCH  18  24
ENDBRANCH  16  17
ENDBRANCH  15  16
ENDBRANCH   1  15
BRANCH   3  26
HETATM   26  C13 UNL     1      21.993  -0.482  52.882  1.00  0.00     0.031 C 
HETATM   27  C14 UNL     1      20.779   0.156  53.582  1.00  0.00     0.010 C 
ENDBRANCH   3  26
BRANCH   7  28
HETATM   28  N4  UNL     1      26.825  -1.666  52.280  1.00  0.00     0.092 N 
HETATM   29  H28 UNL     1      27.648  -1.927  51.676  1.00  0.00     0.314 HD
HETATM   30  H29 UNL     1      26.093  -1.361  51.573  1.00  0.00     0.314 HD
ENDBRANCH   7  28
TORSDOF 6
ENDMDL
MODEL 5
REMARK VINA RESULT:      -7.8      2.327      6.941
REMARK  6 active torsions:
REMARK  status: ('A' for Active; 'I' for Inactive)
REMARK    1  A    between atoms: N1_2  and  C2_3 
REMARK    2  A    between atoms: C6_8  and  C7_9 
REMARK    3  A    between atoms: C7_9  and  C8_10 
REMARK    4  A    between atoms: C8_10  and  C9_11 
REMARK    5  A    between atoms: C11_13  and  C13_15 
REMARK    6  A    between atoms: C16_19  and  N4_20 
ROOT
HETATM    1  C9  UNL     1      24.547   2.566  50.423  1.00  0.00     0.049 C 
HETATM    2  C10 UNL     1      24.621   3.948  49.875  1.00  0.00     0.012 C 
HETATM    3  C11 UNL     1      25.650   4.614  49.367  1.00  0.00    -0.061 C 
HETATM    4  C12 UNL     1      25.662   6.022  48.828  1.00  0.00     0.045 C 
HETATM    5  N3  UNL     1      23.370   4.675  49.880  1.00  0.00    -0.390 N 
HETATM    6  C15 UNL     1      22.116   4.059  49.461  1.00  0.00     0.164 C 
HETATM    7  C16 UNL     1      22.209   2.549  49.515  1.00  0.00     0.202 C 
HETATM    8  C17 UNL     1      20.871   1.936  49.871  1.00  0.00     0.212 C 
HETATM    9  O1  UNL     1      20.418   2.372  51.113  1.00  0.00    -0.381 OA
HETATM   10  C18 UNL     1      21.287   2.039  52.127  1.00  0.00     0.246 C 
HETATM   11  C19 UNL     1      22.580   2.776  51.851  1.00  0.00     0.157 C 
HETATM   12  O2  UNL     1      22.865   3.681  52.614  1.00  0.00    -0.295 OA
HETATM   13  C20 UNL     1      23.149   2.122  50.639  1.00  0.00     0.109 C 
HETATM   14  H25 UNL     1      23.316   5.693  50.190  1.00  0.00     0.159 HD
ENDROOT
BRANCH   1  15
HETATM   15  C8  UNL     1      25.336   2.358  51.683  1.00  0.00     0.014 C 
BRANCH  15  16
HETATM   16  C7  UNL     1      26.503   1.445  51.348  1.00  0.00     0.038 C 
BRANCH  16  17
HETATM   17  C6  UNL     1      26.427   0.188  52.206  1.00  0.00     0.252 C 
HETATM   18  C2  UNL     1      27.685   0.024  52.996  1.00  0.00     0.235 C 
HETATM   19  C3  UNL     1      27.547   0.766  54.302  1.00  0.00     0.038 C 
HETATM   20  C4  UNL     1      26.425   0.162  55.085  1.00  0.00     0.032 C 
HETATM   21  C5  UNL     1      25.339  -0.453  54.248  1.00  0.00     0.270 C 
HETATM   22  N2  UNL     1      25.223   0.256  52.975  1.00  0.00     0.090 N 
HETATM   23  H10 UNL     1      24.975   1.249  53.255  1.00  0.00     0.316 HD
BRANCH  18  24
HETATM   24  N1  UNL     1      27.987  -1.372  53.222  1.00  0.00     0.021 NA
HETATM   25  C1  UNL     1      29.217  -1.731  53.327  1.00  0.00     0.708 C 
ENDBRANCH  18  24
ENDBRANCH  16  17
ENDBRANCH  15  16
ENDBRANCH   1  15
BRANCH   3  26
HETATM   26  C13 UNL     1      27.056   4.142  49.170  1.00  0.00     0.031 C 
HETATM   27  C14 UNL     1      27.882   5.254  48.501  1.00  0.00     0.010 C 
ENDBRANCH   3  26
BRANCH   7  28
HETATM   28  N4  UNL     1      22.605   2.041  48.226  1.00  0.00     0.092 N 
HETATM   29  H28 UNL     1      21.814   2.083  47.531  1.00  0.00     0.314 HD
HETATM   30  H29 UNL     1      22.756   0.998  48.359  1.00  0.00     0.314 HD
ENDBRANCH   7  28
TORSDOF 6
ENDMDL
MODEL 6
REMARK VINA RESULT:      -7.8      2.442      5.915
REMARK  6 active torsions:
REMARK  status: ('A' for Active; 'I' for Inactive)
REMARK    1  A    between atoms: N1_2  and  C2_3 
REMARK    2  A    between atoms: C6_8  and  C7_9 
REMARK    3  A    between atoms: C7_9  and  C8_10 
REMARK    4  A    between atoms: C8_10  and  C9_11 
REMARK    5  A    between atoms: C11_13  and  C13_15 
REMARK    6  A    between atoms: C16_19  and  N4_20 
ROOT
HETATM    1  C9  UNL     1      24.170   2.553  52.149  1.00  0.00     0.049 C 
HETATM    2  C10 UNL     1      22.696   2.354  52.168  1.00  0.00     0.012 C 
HETATM    3  C11 UNL     1      21.958   1.471  52.829  1.00  0.00    -0.061 C 
HETATM    4  C12 UNL     1      20.459   1.317  52.804  1.00  0.00     0.045 C 
HETATM    5  N3  UNL     1      21.944   3.280  51.349  1.00  0.00    -0.390 N 
HETATM    6  C15 UNL     1      22.235   4.710  51.332  1.00  0.00     0.164 C 
HETATM    7  C16 UNL     1      23.635   4.983  51.841  1.00  0.00     0.202 C 
HETATM    8  C17 UNL     1      24.237   6.186  51.146  1.00  0.00     0.212 C 
HETATM    9  O1  UNL     1      24.321   5.998  49.769  1.00  0.00    -0.381 OA
HETATM   10  C18 UNL     1      25.108   4.918  49.441  1.00  0.00     0.246 C 
HETATM   11  C19 UNL     1      24.422   3.694  50.008  1.00  0.00     0.157 C 
HETATM   12  O2  UNL     1      23.937   2.918  49.203  1.00  0.00    -0.295 OA
HETATM   13  C20 UNL     1      24.557   3.821  51.486  1.00  0.00     0.109 C 
HETATM   14  H25 UNL     1      21.144   2.954  50.726  1.00  0.00     0.159 HD
ENDROOT
BRANCH   1  15
HETATM   15  C8  UNL     1      24.940   1.417  51.540  1.00  0.00     0.014 C 
BRANCH  15  16
HETATM   16  C7  UNL     1      26.418   1.711  51.725  1.00  0.00     0.038 C 
BRANCH  16  17
HETATM   17  C6  UNL     1      26.831   1.369  53.151  1.00  0.00     0.252 C 
HETATM   18  C2  UNL     1      26.584  -0.079  53.427  1.00  0.00     0.235 C 
HETATM   19  C3  UNL     1      27.801  -0.873  53.022  1.00  0.00     0.038 C 
HETATM   20  C4  UNL     1      28.964  -0.433  53.854  1.00  0.00     0.032 C 
HETATM   21  C5  UNL     1      28.898   0.997  54.313  1.00  0.00     0.270 C 
HETATM   22  N2  UNL     1      28.180   1.808  53.331  1.00  0.00     0.090 N 
HETATM   23  H10 UNL     1      28.760   1.715  52.447  1.00  0.00     0.316 HD
BRANCH  18  24
HETATM   24  N1  UNL     1      26.259  -0.301  54.818  1.00  0.00     0.021 NA
HETATM   25  C1  UNL     1      25.209  -0.984  55.108  1.00  0.00     0.708 C 
ENDBRANCH  18  24
ENDBRANCH  16  17
ENDBRANCH  15  16
ENDBRANCH   1  15
BRANCH   3  26
HETATM   26  C13 UNL     1      22.412   0.418  53.790  1.00  0.00     0.031 C 
HETATM   27  C14 UNL     1      21.208  -0.084  54.607  1.00  0.00     0.010 C 
ENDBRANCH   3  26
BRANCH   7  28
HETATM   28  N4  UNL     1      23.592   5.258  53.254  1.00  0.00     0.092 N 
HETATM   29  H28 UNL     1      24.195   4.588  53.800  1.00  0.00     0.314 HD
HETATM   30  H29 UNL     1      22.608   5.011  53.569  1.00  0.00     0.314 HD
ENDBRANCH   7  28
TORSDOF 6
ENDMDL
MODEL 7
REMARK VINA RESULT:      -7.5      3.051      6.861
REMARK  6 active torsions:
REMARK  status: ('A' for Active; 'I' for Inactive)
REMARK    1  A    between atoms: N1_2  and  C2_3 
REMARK    2  A    between atoms: C6_8  and  C7_9 
REMARK    3  A    between atoms: C7_9  and  C8_10 
REMARK    4  A    between atoms: C8_10  and  C9_11 
REMARK    5  A    between atoms: C11_13  and  C13_15 
REMARK    6  A    between atoms: C16_19  and  N4_20 
ROOT
HETATM    1  C9  UNL     1      22.239   0.824  52.338  1.00  0.00     0.049 C 
HETATM    2  C10 UNL     1      22.074   2.301  52.398  1.00  0.00     0.012 C 
HETATM    3  C11 UNL     1      22.975   3.270  52.289  1.00  0.00    -0.061 C 
HETATM    4  C12 UNL     1      22.744   4.758  52.362  1.00  0.00     0.045 C 
HETATM    5  N3  UNL     1      20.714   2.757  52.588  1.00  0.00    -0.390 N 
HETATM    6  C15 UNL     1      19.595   2.178  51.852  1.00  0.00     0.164 C 
HETATM    7  C16 UNL     1      19.954   0.814  51.304  1.00  0.00     0.202 C 
HETATM    8  C17 UNL     1      18.742  -0.092  51.269  1.00  0.00     0.212 C 
HETATM    9  O1  UNL     1      18.202  -0.280  52.538  1.00  0.00    -0.381 OA
HETATM   10  C18 UNL     1      19.102  -0.858  53.403  1.00  0.00     0.246 C 
HETATM   11  C19 UNL     1      20.246   0.120  53.557  1.00  0.00     0.157 C 
HETATM   12  O2  UNL     1      20.356   0.666  54.640  1.00  0.00    -0.295 OA
HETATM   13  C20 UNL     1      20.940   0.118  52.238  1.00  0.00     0.109 C 
HETATM   14  H25 UNL     1      20.475   3.537  53.274  1.00  0.00     0.159 HD
ENDROOT
BRANCH   1  15
HETATM   15  C8  UNL     1      23.036   0.244  53.471  1.00  0.00     0.014 C 
BRANCH  15  16
HETATM   16  C7  UNL     1      23.984  -0.787  52.885  1.00  0.00     0.038 C 
BRANCH  16  17
HETATM   17  C6  UNL     1      25.326  -0.708  53.602  1.00  0.00     0.252 C 
HETATM   18  C2  UNL     1      26.427  -1.139  52.687  1.00  0.00     0.235 C 
HETATM   19  C3  UNL     1      26.919   0.057  51.911  1.00  0.00     0.038 C 
HETATM   20  C4  UNL     1      27.477   1.060  52.870  1.00  0.00     0.032 C 
HETATM   21  C5  UNL     1      26.852   1.033  54.237  1.00  0.00     0.270 C 
HETATM   22  N2  UNL     1      25.456   0.609  54.142  1.00  0.00     0.090 N 
HETATM   23  H10 UNL     1      25.004   1.348  53.527  1.00  0.00     0.316 HD
BRANCH  18  24
HETATM   24  N1  UNL     1      27.506  -1.762  53.420  1.00  0.00     0.021 NA
HETATM   25  C1  UNL     1      28.236  -2.637  52.825  1.00  0.00     0.708 C 
ENDBRANCH  18  24
ENDBRANCH  16  17
ENDBRANCH  15  16
ENDBRANCH   1  15
BRANCH   3  26
HETATM   26  C13 UNL     1      24.445   3.146  52.040  1.00  0.00     0.031 C 
HETATM   27  C14 UNL     1      24.696   2.968  50.532  1.00  0.00     0.010 C 
ENDBRANCH   3  26
BRANCH   7  28
HETATM   28  N4  UNL     1      20.452   0.947  49.958  1.00  0.00     0.092 N 
HETATM   29  H28 UNL     1      21.494   0.801  49.911  1.00  0.00     0.314 HD
HETATM   30  H29 UNL     1      20.340   1.974  49.707  1.00  0.00     0.314 HD
ENDBRANCH   7  28
TORSDOF 6
ENDMDL
MODEL 8
REMARK VINA RESULT:      -7.2      2.876      5.132
REMARK  6 active torsions:
REMARK  status: ('A' for Active; 'I' for Inactive)
REMARK    1  A    between atoms: N1_2  and  C2_3 
REMARK    2  A    between atoms: C6_8  and  C7_9 
REMARK    3  A    between atoms: C7_9  and  C8_10 
REMARK    4  A    between atoms: C8_10  and  C9_11 
REMARK    5  A    between atoms: C11_13  and  C13_15 
REMARK    6  A    between atoms: C16_19  and  N4_20 
ROOT
HETATM    1  C9  UNL     1      22.565   1.540  52.950  1.00  0.00     0.049 C 
HETATM    2  C10 UNL     1      23.483   0.375  53.081  1.00  0.00     0.012 C 
HETATM    3  C11 UNL     1      24.761   0.326  53.431  1.00  0.00    -0.061 C 
HETATM    4  C12 UNL     1      25.641  -0.893  53.543  1.00  0.00     0.045 C 
HETATM    5  N3  UNL     1      22.882  -0.911  52.798  1.00  0.00    -0.390 N 
HETATM    6  C15 UNL     1      21.564  -1.277  53.307  1.00  0.00     0.164 C 
HETATM    7  C16 UNL     1      20.772  -0.047  53.695  1.00  0.00     0.202 C 
HETATM    8  C17 UNL     1      19.292  -0.259  53.458  1.00  0.00     0.212 C 
HETATM    9  O1  UNL     1      19.017  -0.529  52.120  1.00  0.00    -0.381 OA
HETATM   10  C18 UNL     1      19.406   0.501  51.294  1.00  0.00     0.246 C 
HETATM   11  C19 UNL     1      20.910   0.612  51.417  1.00  0.00     0.157 C 
HETATM   12  O2  UNL     1      21.563   0.284  50.443  1.00  0.00    -0.295 OA
HETATM   13  C20 UNL     1      21.151   1.125  52.794  1.00  0.00     0.109 C 
HETATM   14  H25 UNL     1      23.380  -1.643  52.206  1.00  0.00     0.159 HD
ENDROOT
BRANCH   1  15
HETATM   15  C8  UNL     1      22.929   2.492  51.849  1.00  0.00     0.014 C 
BRANCH  15  16
HETATM   16  C7  UNL     1      23.127   3.862  52.473  1.00  0.00     0.038 C 
BRANCH  16  17
HETATM   17  C6  UNL     1      24.107   4.669  51.630  1.00  0.00     0.252 C 
HETATM   18  C2  UNL     1      23.798   4.503  50.177  1.00  0.00     0.235 C 
HETATM   19  C3  UNL     1      22.788   5.545  49.766  1.00  0.00     0.038 C 
HETATM   20  C4  UNL     1      23.386   6.902  49.962  1.00  0.00     0.032 C 
HETATM   21  C5  UNL     1      24.407   6.982  51.063  1.00  0.00     0.270 C 
HETATM   22  N2  UNL     1      24.091   6.015  52.112  1.00  0.00     0.090 N 
HETATM   23  H10 UNL     1      23.132   6.313  52.456  1.00  0.00     0.316 HD
BRANCH  18  24
HETATM   24  N1  UNL     1      24.995   4.594  49.371  1.00  0.00     0.021 NA
HETATM   25  C1  UNL     1      26.010   3.871  49.685  1.00  0.00     0.708 C 
ENDBRANCH  18  24
ENDBRANCH  16  17
ENDBRANCH  15  16
ENDBRANCH   1  15
BRANCH   3  26
HETATM   26  C13 UNL     1      25.657   1.455  53.832  1.00  0.00     0.031 C 
HETATM   27  C14 UNL     1      26.628   1.774  52.682  1.00  0.00     0.010 C 
ENDBRANCH   3  26
BRANCH   7  28
HETATM   28  N4  UNL     1      20.964   0.233  55.095  1.00  0.00     0.092 N 
HETATM   29  H28 UNL     1      21.249   1.234  55.258  1.00  0.00     0.314 HD
HETATM   30  H29 UNL     1      21.828  -0.314  55.385  1.00  0.00     0.314 HD
ENDBRANCH   7  28
TORSDOF 6
ENDMDL
MODEL 9
REMARK VINA RESULT:      -7.2      2.617      6.172
REMARK  6 active torsions:
REMARK  status: ('A' for Active; 'I' for Inactive)
REMARK    1  A    between atoms: N1_2  and  C2_3 
REMARK    2  A    between atoms: C6_8  and  C7_9 
REMARK    3  A    between atoms: C7_9  and  C8_10 
REMARK    4  A    between atoms: C8_10  and  C9_11 
REMARK    5  A    between atoms: C11_13  and  C13_15 
REMARK    6  A    between atoms: C16_19  and  N4_20 
ROOT
HETATM    1  C9  UNL     1      22.841   3.536  51.917  1.00  0.00     0.049 C 
HETATM    2  C10 UNL     1      21.656   3.279  51.054  1.00  0.00     0.012 C 
HETATM    3  C11 UNL     1      20.554   2.581  51.297  1.00  0.00    -0.061 C 
HETATM    4  C12 UNL     1      19.384   2.354  50.375  1.00  0.00     0.045 C 
HETATM    5  N3  UNL     1      21.703   3.903  49.749  1.00  0.00    -0.390 N 
HETATM    6  C15 UNL     1      22.139   5.284  49.568  1.00  0.00     0.164 C 
HETATM    7  C16 UNL     1      22.952   5.756  50.754  1.00  0.00     0.202 C 
HETATM    8  C17 UNL     1      24.014   6.745  50.323  1.00  0.00     0.212 C 
HETATM    9  O1  UNL     1      24.899   6.186  49.406  1.00  0.00    -0.381 OA
HETATM   10  C18 UNL     1      25.561   5.096  49.923  1.00  0.00     0.246 C 
HETATM   11  C19 UNL     1      24.510   4.046  50.212  1.00  0.00     0.157 C 
HETATM   12  O2  UNL     1      24.520   3.055  49.505  1.00  0.00    -0.295 OA
HETATM   13  C20 UNL     1      23.725   4.586  51.357  1.00  0.00     0.109 C 
HETATM   14  H25 UNL     1      21.419   3.378  48.867  1.00  0.00     0.159 HD
ENDROOT
BRANCH   1  15
HETATM   15  C8  UNL     1      23.654   2.314  52.230  1.00  0.00     0.014 C 
BRANCH  15  16
HETATM   16  C7  UNL     1      24.678   2.701  53.283  1.00  0.00     0.038 C 
BRANCH  16  17
HETATM   17  C6  UNL     1      26.002   2.010  52.983  1.00  0.00     0.252 C 
HETATM   18  C2  UNL     1      26.556   1.391  54.225  1.00  0.00     0.235 C 
HETATM   19  C3  UNL     1      26.008  -0.007  54.364  1.00  0.00     0.038 C 
HETATM   20  C4  UNL     1      26.463  -0.823  53.196  1.00  0.00     0.032 C 
HETATM   21  C5  UNL     1      26.690  -0.037  51.935  1.00  0.00     0.270 C 
HETATM   22  N2  UNL     1      25.789   1.113  51.890  1.00  0.00     0.090 N 
HETATM   23  H10 UNL     1      24.819   0.680  51.903  1.00  0.00     0.316 HD
BRANCH  18  24
HETATM   24  N1  UNL     1      28.002   1.383  54.209  1.00  0.00     0.021 NA
HETATM   25  C1  UNL     1      28.622   2.394  53.714  1.00  0.00     0.708 C 
ENDBRANCH  18  24
ENDBRANCH  16  17
ENDBRANCH  15  16
ENDBRANCH   1  15
BRANCH   3  26
HETATM   26  C13 UNL     1      20.170   1.860  52.550  1.00  0.00     0.031 C 
HETATM   27  C14 UNL     1      20.004   0.360  52.250  1.00  0.00     0.010 C 
ENDBRANCH   3  26
BRANCH   7  28
HETATM   28  N4  UNL     1      22.090   6.411  51.704  1.00  0.00     0.092 N 
HETATM   29  H28 UNL     1      21.159   5.923  51.788  1.00  0.00     0.314 HD
HETATM   30  H29 UNL     1      21.834   7.346  51.268  1.00  0.00     0.314 HD
ENDBRANCH   7  28
TORSDOF 6
ENDMDL
