MODEL 1
REMARK VINA RESULT:      -7.9      0.000      0.000
REMARK  3 active torsions:
REMARK  status: ('A' for Active; 'I' for Inactive)
REMARK    1  A    between atoms: C2_2  and  N1_3 
REMARK    2  A    between atoms: C5_6  and  N2_7 
REMARK    3  A    between atoms: N2_7  and  C6_8 
ROOT
HETATM    1  C6  UNL     1      25.204   0.047  53.489  1.00  0.00     0.314 C 
HETATM    2  C7  UNL     1      25.640   0.344  54.939  1.00  0.00     0.153 C 
HETATM    3  N3  UNL     1      26.786   0.932  54.846  1.00  0.00    -0.187 NA
HETATM    4  N4  UNL     1      27.694   0.683  53.820  1.00  0.00    -0.276 N 
HETATM    5  C8  UNL     1      27.602  -0.199  52.728  1.00  0.00     0.140 C 
HETATM    6  C9  UNL     1      26.435  -0.678  53.033  1.00  0.00     0.065 C 
HETATM    7  N5  UNL     1      26.685  -2.073  52.899  1.00  0.00    -0.366 N 
HETATM    8  C10 UNL     1      27.962  -2.720  52.913  1.00  0.00     0.088 C 
HETATM    9  C11 UNL     1      29.209  -2.274  53.152  1.00  0.00     0.017 C 
HETATM   10  C12 UNL     1      30.027  -1.120  53.493  1.00  0.00    -0.001 C 
HETATM   11  C13 UNL     1      29.966   0.187  53.777  1.00  0.00    -0.005 C 
HETATM   12  C14 UNL     1      29.002   1.352  53.945  1.00  0.00     0.177 C 
HETATM   13  H15 UNL     1      25.790  -2.580  52.791  1.00  0.00     0.165 HD
ENDROOT
BRANCH   1  14
HETATM   14  N2  UNL     1      24.048  -0.767  53.456  1.00  0.00     0.103 N 
HETATM   15  H11 UNL     1      24.235  -1.713  53.834  1.00  0.00     0.317 HD
BRANCH  14  16
HETATM   16  C5  UNL     1      22.981  -0.177  54.220  1.00  0.00     0.225 C 
HETATM   17  C4  UNL     1      22.042   0.626  53.317  1.00  0.00     0.066 C 
HETATM   18  C3  UNL     1      20.714   0.727  54.026  1.00  0.00     0.274 C 
HETATM   19  N1  UNL     1      19.984  -0.527  53.995  1.00  0.00     0.088 N 
HETATM   20  C16 UNL     1      20.946  -1.615  53.962  1.00  0.00     0.274 C 
HETATM   21  C15 UNL     1      22.106  -1.221  54.880  1.00  0.00     0.066 C 
BRANCH  19  22
HETATM   22  C2  UNL     1      19.177  -0.635  52.785  1.00  0.00     0.268 C 
HETATM   23  C1  UNL     1      17.890  -1.338  53.136  1.00  0.00     0.037 C 
ENDBRANCH  19  22
ENDBRANCH  14  16
ENDBRANCH   1  14
TORSDOF 3
ENDMDL
MODEL 2
REMARK VINA RESULT:      -7.5      1.730      2.180
REMARK  3 active torsions:
REMARK  status: ('A' for Active; 'I' for Inactive)
REMARK    1  A    between atoms: C2_2  and  N1_3 
REMARK    2  A    between atoms: C5_6  and  N2_7 
REMARK    3  A    between atoms: N2_7  and  C6_8 
ROOT
HETATM    1  C6  UNL     1      25.188   0.356  53.282  1.00  0.00     0.314 C 
HETATM    2  C7  UNL     1      25.558   0.533  54.770  1.00  0.00     0.153 C 
HETATM    3  N3  UNL     1      26.753   1.022  54.778  1.00  0.00    -0.187 NA
HETATM    4  N4  UNL     1      27.699   0.752  53.792  1.00  0.00    -0.276 N 
HETATM    5  C8  UNL     1      27.600  -0.056  52.644  1.00  0.00     0.140 C 
HETATM    6  C9  UNL     1      26.380  -0.448  52.853  1.00  0.00     0.065 C 
HETATM    7  N5  UNL     1      26.519  -1.850  52.650  1.00  0.00    -0.366 N 
HETATM    8  C10 UNL     1      27.734  -2.605  52.697  1.00  0.00     0.088 C 
HETATM    9  C11 UNL     1      28.997  -2.284  53.031  1.00  0.00     0.017 C 
HETATM   10  C12 UNL     1      29.887  -1.227  53.488  1.00  0.00    -0.001 C 
HETATM   11  C13 UNL     1      29.919   0.063  53.846  1.00  0.00    -0.005 C 
HETATM   12  C14 UNL     1      29.047   1.296  54.031  1.00  0.00     0.177 C 
HETATM   13  H15 UNL     1      25.594  -2.270  52.461  1.00  0.00     0.165 HD
ENDROOT
BRANCH   1  14
HETATM   14  N2  UNL     1      23.972  -0.351  53.136  1.00  0.00     0.103 N 
HETATM   15  H11 UNL     1      23.887  -1.116  53.829  1.00  0.00     0.317 HD
BRANCH  14  16
HETATM   16  C5  UNL     1      22.844   0.527  53.289  1.00  0.00     0.225 C 
HETATM   17  C4  UNL     1      23.051   1.825  52.505  1.00  0.00     0.066 C 
HETATM   18  C3  UNL     1      21.688   2.415  52.245  1.00  0.00     0.274 C 
HETATM   19  N1  UNL     1      20.965   1.685  51.219  1.00  0.00     0.088 N 
HETATM   20  C16 UNL     1      21.390   0.297  51.262  1.00  0.00     0.274 C 
HETATM   21  C15 UNL     1      21.571  -0.076  52.736  1.00  0.00     0.066 C 
BRANCH  19  22
HETATM   22  C2  UNL     1      21.289   2.189  49.890  1.00  0.00     0.268 C 
HETATM   23  C1  UNL     1      21.449   1.009  48.963  1.00  0.00     0.037 C 
ENDBRANCH  19  22
ENDBRANCH  14  16
ENDBRANCH   1  14
TORSDOF 3
ENDMDL
MODEL 3
REMARK VINA RESULT:      -7.2      4.844      7.610
REMARK  3 active torsions:
REMARK  status: ('A' for Active; 'I' for Inactive)
REMARK    1  A    between atoms: C2_2  and  N1_3 
REMARK    2  A    between atoms: C5_6  and  N2_7 
REMARK    3  A    between atoms: N2_7  and  C6_8 
ROOT
HETATM    1  C6  UNL     1      24.139   3.377  51.961  1.00  0.00     0.314 C 
HETATM    2  C7  UNL     1      23.446   4.625  52.547  1.00  0.00     0.153 C 
HETATM    3  N3  UNL     1      22.664   5.061  51.617  1.00  0.00    -0.187 NA
HETATM    4  N4  UNL     1      22.933   4.915  50.258  1.00  0.00    -0.276 N 
HETATM    5  C8  UNL     1      24.032   4.315  49.615  1.00  0.00     0.140 C 
HETATM    6  C9  UNL     1      24.669   3.992  50.699  1.00  0.00     0.065 C 
HETATM    7  N5  UNL     1      25.974   4.464  50.384  1.00  0.00    -0.366 N 
HETATM    8  C10 UNL     1      26.317   5.432  49.386  1.00  0.00     0.088 C 
HETATM    9  C11 UNL     1      25.576   6.217  48.583  1.00  0.00     0.017 C 
HETATM   10  C12 UNL     1      24.229   6.608  48.196  1.00  0.00    -0.001 C 
HETATM   11  C13 UNL     1      22.935   6.387  48.458  1.00  0.00    -0.005 C 
HETATM   12  C14 UNL     1      21.992   5.584  49.342  1.00  0.00     0.177 C 
HETATM   13  H15 UNL     1      26.670   4.005  50.995  1.00  0.00     0.165 HD
ENDROOT
BRANCH   1  14
HETATM   14  N2  UNL     1      25.166   2.911  52.814  1.00  0.00     0.103 N 
HETATM   15  H11 UNL     1      24.899   2.985  53.812  1.00  0.00     0.317 HD
BRANCH  14  16
HETATM   16  C5  UNL     1      25.487   1.538  52.531  1.00  0.00     0.225 C 
HETATM   17  C4  UNL     1      26.981   1.373  52.245  1.00  0.00     0.066 C 
HETATM   18  C3  UNL     1      27.335  -0.068  52.513  1.00  0.00     0.274 C 
HETATM   19  N1  UNL     1      27.379  -0.361  53.934  1.00  0.00     0.088 N 
HETATM   20  C16 UNL     1      26.436   0.511  54.610  1.00  0.00     0.274 C 
HETATM   21  C15 UNL     1      25.203   0.631  53.710  1.00  0.00     0.066 C 
BRANCH  19  22
HETATM   22  C2  UNL     1      28.697  -0.075  54.488  1.00  0.00     0.268 C 
HETATM   23  C1  UNL     1      29.723  -0.839  53.687  1.00  0.00     0.037 C 
ENDBRANCH  19  22
ENDBRANCH  14  16
ENDBRANCH   1  14
TORSDOF 3
ENDMDL
MODEL 4
REMARK VINA RESULT:      -7.2      2.116      7.558
REMARK  3 active torsions:
REMARK  status: ('A' for Active; 'I' for Inactive)
REMARK    1  A    between atoms: C2_2  and  N1_3 
REMARK    2  A    between atoms: C5_6  and  N2_7 
REMARK    3  A    between atoms: N2_7  and  C6_8 
ROOT
HETATM    1  C6  UNL     1      22.916   2.155  52.225  1.00  0.00     0.314 C 
HETATM    2  C7  UNL     1      23.036   1.370  50.902  1.00  0.00     0.153 C 
HETATM    3  N3  UNL     1      21.902   1.519  50.302  1.00  0.00    -0.187 NA
HETATM    4  N4  UNL     1      20.694   1.683  50.975  1.00  0.00    -0.276 N 
HETATM    5  C8  UNL     1      20.429   1.717  52.357  1.00  0.00     0.140 C 
HETATM    6  C9  UNL     1      21.654   1.526  52.740  1.00  0.00     0.065 C 
HETATM    7  N5  UNL     1      21.467   0.500  53.709  1.00  0.00    -0.366 N 
HETATM    8  C10 UNL     1      20.335  -0.367  53.829  1.00  0.00     0.088 C 
HETATM    9  C11 UNL     1      19.241  -0.553  53.068  1.00  0.00     0.017 C 
HETATM   10  C12 UNL     1      18.536  -0.149  51.860  1.00  0.00    -0.001 C 
HETATM   11  C13 UNL     1      18.611   0.665  50.800  1.00  0.00    -0.005 C 
HETATM   12  C14 UNL     1      19.488   1.713  50.130  1.00  0.00     0.177 C 
HETATM   13  H15 UNL     1      22.288   0.457  54.336  1.00  0.00     0.165 HD
ENDROOT
BRANCH   1  14
HETATM   14  N2  UNL     1      24.027   1.917  53.067  1.00  0.00     0.103 N 
HETATM   15  H11 UNL     1      23.734   1.714  54.040  1.00  0.00     0.317 HD
BRANCH  14  16
HETATM   16  C5  UNL     1      24.807   0.807  52.588  1.00  0.00     0.225 C 
HETATM   17  C4  UNL     1      26.259   1.225  52.344  1.00  0.00     0.066 C 
HETATM   18  C3  UNL     1      27.102  -0.024  52.400  1.00  0.00     0.274 C 
HETATM   19  N1  UNL     1      27.269  -0.507  53.758  1.00  0.00     0.088 N 
HETATM   20  C16 UNL     1      26.088  -0.141  54.521  1.00  0.00     0.274 C 
HETATM   21  C15 UNL     1      24.879  -0.318  53.598  1.00  0.00     0.066 C 
BRANCH  19  22
HETATM   22  C2  UNL     1      28.409   0.129  54.406  1.00  0.00     0.268 C 
HETATM   23  C1  UNL     1      29.669  -0.370  53.743  1.00  0.00     0.037 C 
ENDBRANCH  19  22
ENDBRANCH  14  16
ENDBRANCH   1  14
TORSDOF 3
ENDMDL
MODEL 5
REMARK VINA RESULT:      -6.7      5.225      6.789
REMARK  3 active torsions:
REMARK  status: ('A' for Active; 'I' for Inactive)
REMARK    1  A    between atoms: C2_2  and  N1_3 
REMARK    2  A    between atoms: C5_6  and  N2_7 
REMARK    3  A    between atoms: N2_7  and  C6_8 
ROOT
HETATM    1  C6  UNL     1      23.983   3.757  51.607  1.00  0.00     0.314 C 
HETATM    2  C7  UNL     1      23.405   5.069  52.180  1.00  0.00     0.153 C 
HETATM    3  N3  UNL     1      22.764   5.624  51.207  1.00  0.00    -0.187 NA
HETATM    4  N4  UNL     1      23.125   5.480  49.869  1.00  0.00    -0.276 N 
HETATM    5  C8  UNL     1      24.190   4.761  49.295  1.00  0.00     0.140 C 
HETATM    6  C9  UNL     1      24.689   4.331  50.414  1.00  0.00     0.065 C 
HETATM    7  N5  UNL     1      26.065   4.641  50.220  1.00  0.00    -0.366 N 
HETATM    8  C10 UNL     1      26.608   5.582  49.289  1.00  0.00     0.088 C 
HETATM    9  C11 UNL     1      26.041   6.475  48.457  1.00  0.00     0.017 C 
HETATM   10  C12 UNL     1      24.790   7.046  47.979  1.00  0.00    -0.001 C 
HETATM   11  C13 UNL     1      23.462   6.985  48.129  1.00  0.00    -0.005 C 
HETATM   12  C14 UNL     1      22.355   6.287  48.906  1.00  0.00     0.177 C 
HETATM   13  H15 UNL     1      26.644   4.081  50.868  1.00  0.00     0.165 HD
ENDROOT
BRANCH   1  14
HETATM   14  N2  UNL     1      24.868   3.143  52.521  1.00  0.00     0.103 N 
HETATM   15  H11 UNL     1      24.542   3.244  53.499  1.00  0.00     0.317 HD
BRANCH  14  16
HETATM   16  C5  UNL     1      25.012   1.740  52.236  1.00  0.00     0.225 C 
HETATM   17  C4  UNL     1      25.371   0.959  53.501  1.00  0.00     0.066 C 
HETATM   18  C3  UNL     1      24.963  -0.476  53.275  1.00  0.00     0.274 C 
HETATM   19  N1  UNL     1      23.523  -0.649  53.344  1.00  0.00     0.088 N 
HETATM   20  C16 UNL     1      22.894   0.583  52.903  1.00  0.00     0.274 C 
HETATM   21  C15 UNL     1      23.723   1.124  51.736  1.00  0.00     0.066 C 
BRANCH  19  22
HETATM   22  C2  UNL     1      23.088  -0.883  54.716  1.00  0.00     0.268 C 
HETATM   23  C1  UNL     1      21.583  -0.790  54.757  1.00  0.00     0.037 C 
ENDBRANCH  19  22
ENDBRANCH  14  16
ENDBRANCH   1  14
TORSDOF 3
ENDMDL
MODEL 6
REMARK VINA RESULT:      -6.6      5.612      7.621
REMARK  3 active torsions:
REMARK  status: ('A' for Active; 'I' for Inactive)
REMARK    1  A    between atoms: C2_2  and  N1_3 
REMARK    2  A    between atoms: C5_6  and  N2_7 
REMARK    3  A    between atoms: N2_7  and  C6_8 
ROOT
HETATM    1  C6  UNL     1      24.512   3.746  51.383  1.00  0.00     0.314 C 
HETATM    2  C7  UNL     1      23.873   2.749  50.394  1.00  0.00     0.153 C 
HETATM    3  N3  UNL     1      23.303   1.848  51.122  1.00  0.00    -0.187 NA
HETATM    4  N4  UNL     1      23.770   1.470  52.379  1.00  0.00    -0.276 N 
HETATM    5  C8  UNL     1      24.887   1.929  53.101  1.00  0.00     0.140 C 
HETATM    6  C9  UNL     1      25.302   2.767  52.201  1.00  0.00     0.065 C 
HETATM    7  N5  UNL     1      26.684   2.431  52.151  1.00  0.00    -0.366 N 
HETATM    8  C10 UNL     1      27.286   1.213  52.600  1.00  0.00     0.088 C 
HETATM    9  C11 UNL     1      26.774   0.057  53.062  1.00  0.00     0.017 C 
HETATM   10  C12 UNL     1      25.557  -0.676  53.378  1.00  0.00    -0.001 C 
HETATM   11  C13 UNL     1      24.222  -0.585  53.368  1.00  0.00    -0.005 C 
HETATM   12  C14 UNL     1      23.067   0.340  53.011  1.00  0.00     0.177 C 
HETATM   13  H15 UNL     1      27.218   3.209  51.728  1.00  0.00     0.165 HD
ENDROOT
BRANCH   1  14
HETATM   14  N2  UNL     1      25.332   4.682  50.712  1.00  0.00     0.103 N 
HETATM   15  H11 UNL     1      25.921   4.229  49.990  1.00  0.00     0.317 HD
BRANCH  14  16
HETATM   16  C5  UNL     1      24.537   5.698  50.075  1.00  0.00     0.225 C 
HETATM   17  C4  UNL     1      24.494   6.971  50.924  1.00  0.00     0.066 C 
HETATM   18  C3  UNL     1      24.160   8.116  50.001  1.00  0.00     0.274 C 
HETATM   19  N1  UNL     1      25.285   8.484  49.160  1.00  0.00     0.088 N 
HETATM   20  C16 UNL     1      26.085   7.296  48.924  1.00  0.00     0.274 C 
HETATM   21  C15 UNL     1      25.116   6.125  48.743  1.00  0.00     0.066 C 
BRANCH  19  22
HETATM   22  C2  UNL     1      26.145   9.452  49.830  1.00  0.00     0.268 C 
HETATM   23  C1  UNL     1      27.561   8.932  49.792  1.00  0.00     0.037 C 
ENDBRANCH  19  22
ENDBRANCH  14  16
ENDBRANCH   1  14
TORSDOF 3
ENDMDL
MODEL 7
REMARK VINA RESULT:      -6.6      4.526      7.783
REMARK  3 active torsions:
REMARK  status: ('A' for Active; 'I' for Inactive)
REMARK    1  A    between atoms: C2_2  and  N1_3 
REMARK    2  A    between atoms: C5_6  and  N2_7 
REMARK    3  A    between atoms: N2_7  and  C6_8 
ROOT
HETATM    1  C6  UNL     1      24.440   3.381  51.838  1.00  0.00     0.314 C 
HETATM    2  C7  UNL     1      25.038   3.840  50.492  1.00  0.00     0.153 C 
HETATM    3  N3  UNL     1      24.970   5.129  50.499  1.00  0.00    -0.187 NA
HETATM    4  N4  UNL     1      23.973   5.840  51.163  1.00  0.00    -0.276 N 
HETATM    5  C8  UNL     1      22.883   5.372  51.920  1.00  0.00     0.140 C 
HETATM    6  C9  UNL     1      23.130   4.108  51.756  1.00  0.00     0.065 C 
HETATM    7  N5  UNL     1      21.837   3.637  51.391  1.00  0.00    -0.366 N 
HETATM    8  C10 UNL     1      20.750   4.421  50.888  1.00  0.00     0.088 C 
HETATM    9  C11 UNL     1      20.647   5.712  50.523  1.00  0.00     0.017 C 
HETATM   10  C12 UNL     1      21.349   6.978  50.378  1.00  0.00    -0.001 C 
HETATM   11  C13 UNL     1      22.543   7.563  50.534  1.00  0.00    -0.005 C 
HETATM   12  C14 UNL     1      23.981   7.299  50.957  1.00  0.00     0.177 C 
HETATM   13  H15 UNL     1      21.784   2.615  51.537  1.00  0.00     0.165 HD
ENDROOT
BRANCH   1  14
HETATM   14  N2  UNL     1      24.282   1.976  51.879  1.00  0.00     0.103 N 
HETATM   15  H11 UNL     1      24.829   1.507  51.135  1.00  0.00     0.317 HD
BRANCH  14  16
HETATM   16  C5  UNL     1      24.699   1.448  53.150  1.00  0.00     0.225 C 
HETATM   17  C4  UNL     1      25.015  -0.046  53.044  1.00  0.00     0.066 C 
HETATM   18  C3  UNL     1      25.940  -0.392  54.183  1.00  0.00     0.274 C 
HETATM   19  N1  UNL     1      27.286   0.106  53.961  1.00  0.00     0.088 N 
HETATM   20  C16 UNL     1      27.200   1.314  53.161  1.00  0.00     0.274 C 
HETATM   21  C15 UNL     1      25.975   2.093  53.646  1.00  0.00     0.066 C 
BRANCH  19  22
HETATM   22  C2  UNL     1      28.081  -0.853  53.203  1.00  0.00     0.268 C 
HETATM   23  C1  UNL     1      29.495  -0.813  53.727  1.00  0.00     0.037 C 
ENDBRANCH  19  22
ENDBRANCH  14  16
ENDBRANCH   1  14
TORSDOF 3
ENDMDL
MODEL 8
REMARK VINA RESULT:      -6.6      3.825      7.674
REMARK  3 active torsions:
REMARK  status: ('A' for Active; 'I' for Inactive)
REMARK    1  A    between atoms: C2_2  and  N1_3 
REMARK    2  A    between atoms: C5_6  and  N2_7 
REMARK    3  A    between atoms: N2_7  and  C6_8 
ROOT
HETATM    1  C6  UNL     1      23.776   3.036  52.467  1.00  0.00     0.314 C 
HETATM    2  C7  UNL     1      23.449   4.530  52.671  1.00  0.00     0.153 C 
HETATM    3  N3  UNL     1      22.179   4.642  52.465  1.00  0.00    -0.187 NA
HETATM    4  N4  UNL     1      21.472   3.829  51.584  1.00  0.00    -0.276 N 
HETATM    5  C8  UNL     1      21.924   2.777  50.765  1.00  0.00     0.140 C 
HETATM    6  C9  UNL     1      23.174   2.864  51.103  1.00  0.00     0.065 C 
HETATM    7  N5  UNL     1      23.792   2.841  49.821  1.00  0.00    -0.366 N 
HETATM    8  C10 UNL     1      23.171   3.135  48.566  1.00  0.00     0.088 C 
HETATM    9  C11 UNL     1      21.951   3.597  48.236  1.00  0.00     0.017 C 
HETATM   10  C12 UNL     1      20.661   4.046  48.739  1.00  0.00    -0.001 C 
HETATM   11  C13 UNL     1      19.966   4.257  49.864  1.00  0.00    -0.005 C 
HETATM   12  C14 UNL     1      20.055   4.182  51.381  1.00  0.00     0.177 C 
HETATM   13  H15 UNL     1      24.788   2.579  49.917  1.00  0.00     0.165 HD
ENDROOT
BRANCH   1  14
HETATM   14  N2  UNL     1      25.172   2.809  52.479  1.00  0.00     0.103 N 
HETATM   15  H11 UNL     1      25.612   3.175  53.343  1.00  0.00     0.317 HD
BRANCH  14  16
HETATM   16  C5  UNL     1      25.467   1.405  52.380  1.00  0.00     0.225 C 
HETATM   17  C4  UNL     1      26.951   1.177  52.086  1.00  0.00     0.066 C 
HETATM   18  C3  UNL     1      27.290  -0.220  52.541  1.00  0.00     0.274 C 
HETATM   19  N1  UNL     1      27.364  -0.318  53.988  1.00  0.00     0.088 N 
HETATM   20  C16 UNL     1      26.449   0.655  54.558  1.00  0.00     0.274 C 
HETATM   21  C15 UNL     1      25.198   0.672  53.677  1.00  0.00     0.066 C 
BRANCH  19  22
HETATM   22  C2  UNL     1      28.699   0.018  54.469  1.00  0.00     0.268 C 
HETATM   23  C1  UNL     1      29.697  -0.841  53.732  1.00  0.00     0.037 C 
ENDBRANCH  19  22
ENDBRANCH  14  16
ENDBRANCH   1  14
TORSDOF 3
ENDMDL
MODEL 9
REMARK VINA RESULT:      -6.5      2.941      7.666
REMARK  3 active torsions:
REMARK  status: ('A' for Active; 'I' for Inactive)
REMARK    1  A    between atoms: C2_2  and  N1_3 
REMARK    2  A    between atoms: C5_6  and  N2_7 
REMARK    3  A    between atoms: N2_7  and  C6_8 
ROOT
HETATM    1  C6  UNL     1      24.016   2.447  51.714  1.00  0.00     0.314 C 
HETATM    2  C7  UNL     1      23.753   3.118  50.350  1.00  0.00     0.153 C 
HETATM    3  N3  UNL     1      22.720   3.873  50.524  1.00  0.00    -0.187 NA
HETATM    4  N4  UNL     1      21.704   3.584  51.432  1.00  0.00    -0.276 N 
HETATM    5  C8  UNL     1      21.558   2.490  52.305  1.00  0.00     0.140 C 
HETATM    6  C9  UNL     1      22.647   1.880  51.949  1.00  0.00     0.065 C 
HETATM    7  N5  UNL     1      22.154   0.558  51.759  1.00  0.00    -0.366 N 
HETATM    8  C10 UNL     1      20.792   0.174  51.551  1.00  0.00     0.088 C 
HETATM    9  C11 UNL     1      19.661   0.880  51.367  1.00  0.00     0.017 C 
HETATM   10  C12 UNL     1      19.081   2.210  51.257  1.00  0.00    -0.001 C 
HETATM   11  C13 UNL     1      19.385   3.514  51.273  1.00  0.00    -0.005 C 
HETATM   12  C14 UNL     1      20.543   4.492  51.406  1.00  0.00     0.177 C 
HETATM   13  H15 UNL     1      22.939  -0.115  51.788  1.00  0.00     0.165 HD
ENDROOT
BRANCH   1  14
HETATM   14  N2  UNL     1      25.011   1.447  51.612  1.00  0.00     0.103 N 
HETATM   15  H11 UNL     1      25.851   1.792  51.113  1.00  0.00     0.317 HD
BRANCH  14  16
HETATM   16  C5  UNL     1      25.414   0.987  52.914  1.00  0.00     0.225 C 
HETATM   17  C4  UNL     1      26.413  -0.167  52.800  1.00  0.00     0.066 C 
HETATM   18  C3  UNL     1      27.192  -0.217  54.090  1.00  0.00     0.274 C 
HETATM   19  N1  UNL     1      28.157   0.863  54.186  1.00  0.00     0.088 N 
HETATM   20  C16 UNL     1      27.640   2.003  53.449  1.00  0.00     0.274 C 
HETATM   21  C15 UNL     1      26.132   2.061  53.702  1.00  0.00     0.066 C 
BRANCH  19  22
HETATM   22  C2  UNL     1      29.423   0.492  53.565  1.00  0.00     0.268 C 
HETATM   23  C1  UNL     1      29.716  -0.947  53.912  1.00  0.00     0.037 C 
ENDBRANCH  19  22
ENDBRANCH  14  16
ENDBRANCH   1  14
TORSDOF 3
ENDMDL
