MODEL 1
REMARK VINA RESULT:      -9.1      0.000      0.000
REMARK  6 active torsions:
REMARK  status: ('A' for Active; 'I' for Inactive)
REMARK    1  A    between atoms: O1_2  and  C2_3 
REMARK    2  A    between atoms: C7_8  and  C8_9 
REMARK    3  A    between atoms: C8_9  and  N1_10 
REMARK    4  A    between atoms: N1_10  and  C9_11 
REMARK    5  A    between atoms: C11_13  and  N2_14 
REMARK    6  A    between atoms: C20_26  and  N4_27 
ROOT
HETATM    1  C9  UNL     1      26.251   2.542  51.414  1.00  0.00     0.146 A 
HETATM    2  C10 UNL     1      24.967   2.094  51.593  1.00  0.00     0.102 A 
HETATM    3  C11 UNL     1      24.662   0.926  52.237  1.00  0.00     0.158 A 
HETATM    4  N3  UNL     1      25.690   0.160  52.729  1.00  0.00    -0.045 NA
HETATM    5  C20 UNL     1      26.973   0.601  52.554  1.00  0.00     0.724 A 
HETATM    6  N5  UNL     1      27.243   1.757  51.915  1.00  0.00    -0.046 NA
ENDROOT
BRANCH   1   7
HETATM    7  N1  UNL     1      26.787   3.684  50.774  1.00  0.00    -0.373 N 
HETATM    8  H12 UNL     1      27.202   4.423  51.368  1.00  0.00     0.161 HD
BRANCH   7   9
HETATM    9  C8  UNL     1      26.759   3.831  49.329  1.00  0.00     0.130 C 
BRANCH   9  10
HETATM   10  C7  UNL     1      25.971   5.049  48.888  1.00  0.00     0.038 A 
HETATM   11  C5  UNL     1      26.884   6.219  48.902  1.00  0.00    -0.078 A 
HETATM   12  C4  UNL     1      26.689   7.387  49.541  1.00  0.00     0.005 A 
HETATM   13  C6  UNL     1      28.132   6.102  48.108  1.00  0.00     0.044 C 
HETATM   14  C3  UNL     1      25.483   7.555  50.338  1.00  0.00     0.032 A 
HETATM   15  C2  UNL     1      24.639   6.539  50.395  1.00  0.00     0.046 A 
HETATM   16  C21 UNL     1      24.759   5.208  49.748  1.00  0.00     0.075 A 
BRANCH  15  17
HETATM   17  O1  UNL     1      23.469   6.638  51.134  1.00  0.00    -0.360 OA
HETATM   18  C1  UNL     1      22.737   5.483  51.485  1.00  0.00     0.209 C 
ENDBRANCH  15  17
ENDBRANCH   9  10
ENDBRANCH   7   9
ENDBRANCH   1   7
BRANCH   3  19
HETATM   19  N2  UNL     1      23.301   0.547  52.388  1.00  0.00    -0.292 N 
HETATM   20  C12 UNL     1      21.917   0.528  52.009  1.00  0.00     0.052 A 
HETATM   21  C13 UNL     1      22.299  -0.168  53.100  1.00  0.00     0.103 A 
HETATM   22  C19 UNL     1      20.706   0.838  51.215  1.00  0.00     0.088 C 
HETATM   23  C14 UNL     1      21.591  -0.997  54.057  1.00  0.00     0.147 C 
HETATM   24  F1  UNL     1      22.417  -1.376  55.071  1.00  0.00    -0.204 F 
HETATM   25  C15 UNL     1      20.365  -1.453  54.164  1.00  0.00     0.069 C 
HETATM   26  C16 UNL     1      19.111  -1.388  53.430  1.00  0.00     0.048 C 
HETATM   27 CL1  UNL     1      17.958  -2.641  53.834  1.00  0.00    -0.083 Cl
HETATM   28  C17 UNL     1      18.732  -0.537  52.528  1.00  0.00    -0.006 C 
HETATM   29  C18 UNL     1      19.534   0.214  51.859  1.00  0.00    -0.007 C 
ENDBRANCH   3  19
BRANCH   5  30
HETATM   30  N4  UNL     1      27.956  -0.268  53.102  1.00  0.00    -0.231 N 
HETATM   31  H18 UNL     1      28.870  -0.197  52.592  1.00  0.00     0.174 HD
HETATM   32  H19 UNL     1      27.622  -0.839  53.925  1.00  0.00     0.174 HD
ENDBRANCH   5  30
TORSDOF 6
ENDMDL
MODEL 2
REMARK VINA RESULT:      -8.8      1.793      2.813
REMARK  6 active torsions:
REMARK  status: ('A' for Active; 'I' for Inactive)
REMARK    1  A    between atoms: O1_2  and  C2_3 
REMARK    2  A    between atoms: C7_8  and  C8_9 
REMARK    3  A    between atoms: C8_9  and  N1_10 
REMARK    4  A    between atoms: N1_10  and  C9_11 
REMARK    5  A    between atoms: C11_13  and  N2_14 
REMARK    6  A    between atoms: C20_26  and  N4_27 
ROOT
HETATM    1  C9  UNL     1      26.674   2.657  51.557  1.00  0.00     0.146 A 
HETATM    2  C10 UNL     1      25.482   2.021  51.789  1.00  0.00     0.102 A 
HETATM    3  C11 UNL     1      25.274   1.176  52.845  1.00  0.00     0.158 A 
HETATM    4  N3  UNL     1      26.309   0.949  53.718  1.00  0.00    -0.045 NA
HETATM    5  C20 UNL     1      27.501   1.580  53.492  1.00  0.00     0.724 A 
HETATM    6  N5  UNL     1      27.676   2.408  52.443  1.00  0.00    -0.046 NA
ENDROOT
BRANCH   1   7
HETATM    7  N1  UNL     1      27.108   3.537  50.538  1.00  0.00    -0.373 N 
HETATM    8  H12 UNL     1      28.059   3.938  50.616  1.00  0.00     0.161 HD
BRANCH   7   9
HETATM    9  C8  UNL     1      26.256   3.880  49.413  1.00  0.00     0.130 C 
BRANCH   9  10
HETATM   10  C7  UNL     1      25.427   5.121  49.675  1.00  0.00     0.038 A 
HETATM   11  C5  UNL     1      24.120   4.958  48.990  1.00  0.00    -0.078 A 
HETATM   12  C4  UNL     1      23.556   5.809  48.115  1.00  0.00     0.005 A 
HETATM   13  C6  UNL     1      23.340   3.740  49.324  1.00  0.00     0.044 C 
HETATM   14  C3  UNL     1      24.280   7.017  47.749  1.00  0.00     0.032 A 
HETATM   15  C2  UNL     1      25.466   7.211  48.299  1.00  0.00     0.046 A 
HETATM   16  C21 UNL     1      26.188   6.338  49.258  1.00  0.00     0.075 A 
BRANCH  15  17
HETATM   17  O1  UNL     1      26.204   8.346  47.994  1.00  0.00    -0.360 OA
HETATM   18  C1  UNL     1      27.192   8.824  48.882  1.00  0.00     0.209 C 
ENDBRANCH  15  17
ENDBRANCH   9  10
ENDBRANCH   7   9
ENDBRANCH   1   7
BRANCH   3  19
HETATM   19  N2  UNL     1      24.000   0.570  53.014  1.00  0.00    -0.292 N 
HETATM   20  C12 UNL     1      23.043  -0.255  53.695  1.00  0.00     0.052 A 
HETATM   21  C13 UNL     1      22.665   0.375  52.564  1.00  0.00     0.103 A 
HETATM   22  C19 UNL     1      22.506  -1.164  54.734  1.00  0.00     0.088 C 
HETATM   23  C14 UNL     1      21.425   0.424  51.812  1.00  0.00     0.147 C 
HETATM   24  F1  UNL     1      21.594   1.109  50.647  1.00  0.00    -0.204 F 
HETATM   25  C15 UNL     1      20.209  -0.032  51.995  1.00  0.00     0.069 C 
HETATM   26  C16 UNL     1      19.468  -0.790  52.991  1.00  0.00     0.048 C 
HETATM   27 CL1  UNL     1      17.728  -0.635  52.888  1.00  0.00    -0.083 Cl
HETATM   28  C17 UNL     1      19.915  -1.560  53.934  1.00  0.00    -0.006 C 
HETATM   29  C18 UNL     1      21.118  -1.527  54.387  1.00  0.00    -0.007 C 
ENDBRANCH   3  19
BRANCH   5  30
HETATM   30  N4  UNL     1      28.502   1.274  54.455  1.00  0.00    -0.231 N 
HETATM   31  H18 UNL     1      29.435   1.673  54.192  1.00  0.00     0.174 HD
HETATM   32  H19 UNL     1      28.157   0.704  55.275  1.00  0.00     0.174 HD
ENDBRANCH   5  30
TORSDOF 6
ENDMDL
MODEL 3
REMARK VINA RESULT:      -8.8      4.722      9.392
REMARK  6 active torsions:
REMARK  status: ('A' for Active; 'I' for Inactive)
REMARK    1  A    between atoms: O1_2  and  C2_3 
REMARK    2  A    between atoms: C7_8  and  C8_9 
REMARK    3  A    between atoms: C8_9  and  N1_10 
REMARK    4  A    between atoms: N1_10  and  C9_11 
REMARK    5  A    between atoms: C11_13  and  N2_14 
REMARK    6  A    between atoms: C20_26  and  N4_27 
ROOT
HETATM    1  C9  UNL     1      23.226   3.042  52.177  1.00  0.00     0.146 A 
HETATM    2  C10 UNL     1      24.254   3.697  51.551  1.00  0.00     0.102 A 
HETATM    3  C11 UNL     1      24.064   4.728  50.672  1.00  0.00     0.158 A 
HETATM    4  N3  UNL     1      22.779   5.128  50.399  1.00  0.00    -0.045 NA
HETATM    5  C20 UNL     1      21.748   4.479  51.019  1.00  0.00     0.724 A 
HETATM    6  N5  UNL     1      21.967   3.466  51.882  1.00  0.00    -0.046 NA
ENDROOT
BRANCH   1   7
HETATM    7  N1  UNL     1      23.192   1.959  53.087  1.00  0.00    -0.373 N 
HETATM    8  H12 UNL     1      23.781   2.020  53.936  1.00  0.00     0.161 HD
BRANCH   7   9
HETATM    9  C8  UNL     1      22.365   0.788  52.848  1.00  0.00     0.130 C 
BRANCH   9  10
HETATM   10  C7  UNL     1      23.085  -0.503  53.178  1.00  0.00     0.038 A 
HETATM   11  C5  UNL     1      22.426  -1.111  54.362  1.00  0.00    -0.078 A 
HETATM   12  C4  UNL     1      23.018  -1.490  55.509  1.00  0.00     0.005 A 
HETATM   13  C6  UNL     1      20.965  -1.350  54.262  1.00  0.00     0.044 C 
HETATM   14  C3  UNL     1      24.449  -1.274  55.661  1.00  0.00     0.032 A 
HETATM   15  C2  UNL     1      25.094  -0.708  54.657  1.00  0.00     0.046 A 
HETATM   16  C21 UNL     1      24.545  -0.239  53.360  1.00  0.00     0.075 A 
BRANCH  15  17
HETATM   17  O1  UNL     1      26.460  -0.481  54.739  1.00  0.00    -0.360 OA
HETATM   18  C1  UNL     1      27.029   0.696  54.205  1.00  0.00     0.209 C 
ENDBRANCH  15  17
ENDBRANCH   9  10
ENDBRANCH   7   9
ENDBRANCH   1   7
BRANCH   3  19
HETATM   19  N2  UNL     1      25.191   5.359  50.080  1.00  0.00    -0.292 N 
HETATM   20  C12 UNL     1      26.424   5.373  49.346  1.00  0.00     0.052 A 
HETATM   21  C13 UNL     1      25.915   6.545  49.780  1.00  0.00     0.103 A 
HETATM   22  C19 UNL     1      27.582   4.835  48.595  1.00  0.00     0.088 C 
HETATM   23  C14 UNL     1      26.349   7.925  49.672  1.00  0.00     0.147 C 
HETATM   24  F1  UNL     1      25.542   8.742  50.404  1.00  0.00    -0.204 F 
HETATM   25  C15 UNL     1      27.319   8.548  49.046  1.00  0.00     0.069 C 
HETATM   26  C16 UNL     1      28.430   8.227  48.164  1.00  0.00     0.048 C 
HETATM   27 CL1  UNL     1      29.063   9.582  47.255  1.00  0.00    -0.083 Cl
HETATM   28  C17 UNL     1      29.012   7.085  47.962  1.00  0.00    -0.006 C 
HETATM   29  C18 UNL     1      28.491   5.945  48.249  1.00  0.00    -0.007 C 
ENDBRANCH   3  19
BRANCH   5  30
HETATM   30  N4  UNL     1      20.463   4.973  50.664  1.00  0.00    -0.231 N 
HETATM   31  H18 UNL     1      19.819   5.020  51.489  1.00  0.00     0.174 HD
HETATM   32  H19 UNL     1      20.358   5.215  49.641  1.00  0.00     0.174 HD
ENDBRANCH   5  30
TORSDOF 6
ENDMDL
MODEL 4
REMARK VINA RESULT:      -8.7      3.547      6.327
REMARK  6 active torsions:
REMARK  status: ('A' for Active; 'I' for Inactive)
REMARK    1  A    between atoms: O1_2  and  C2_3 
REMARK    2  A    between atoms: C7_8  and  C8_9 
REMARK    3  A    between atoms: C8_9  and  N1_10 
REMARK    4  A    between atoms: N1_10  and  C9_11 
REMARK    5  A    between atoms: C11_13  and  N2_14 
REMARK    6  A    between atoms: C20_26  and  N4_27 
ROOT
HETATM    1  C9  UNL     1      20.909   1.579  52.459  1.00  0.00     0.146 A 
HETATM    2  C10 UNL     1      22.275   1.533  52.570  1.00  0.00     0.102 A 
HETATM    3  C11 UNL     1      22.942   0.534  53.226  1.00  0.00     0.158 A 
HETATM    4  N3  UNL     1      22.210  -0.473  53.806  1.00  0.00    -0.045 NA
HETATM    5  C20 UNL     1      20.847  -0.432  53.700  1.00  0.00     0.724 A 
HETATM    6  N5  UNL     1      20.218   0.565  53.046  1.00  0.00    -0.046 NA
ENDROOT
BRANCH   1   7
HETATM    7  N1  UNL     1      20.028   2.508  51.857  1.00  0.00    -0.373 N 
HETATM    8  H12 UNL     1      19.661   3.278  52.443  1.00  0.00     0.161 HD
BRANCH   7   9
HETATM    9  C8  UNL     1      19.639   2.396  50.462  1.00  0.00     0.130 C 
BRANCH   9  10
HETATM   10  C7  UNL     1      20.433   3.325  49.566  1.00  0.00     0.038 A 
HETATM   11  C5  UNL     1      21.670   2.619  49.148  1.00  0.00    -0.078 A 
HETATM   12  C4  UNL     1      22.934   3.059  49.281  1.00  0.00     0.005 A 
HETATM   13  C6  UNL     1      21.495   1.299  48.492  1.00  0.00     0.044 C 
HETATM   14  C3  UNL     1      23.162   4.345  49.921  1.00  0.00     0.032 A 
HETATM   15  C2  UNL     1      22.105   5.015  50.346  1.00  0.00     0.046 A 
HETATM   16  C21 UNL     1      20.676   4.622  50.267  1.00  0.00     0.075 A 
BRANCH  15  17
HETATM   17  O1  UNL     1      22.257   6.250  50.960  1.00  0.00    -0.360 OA
HETATM   18  C1  UNL     1      23.512   6.898  50.978  1.00  0.00     0.209 C 
ENDBRANCH  15  17
ENDBRANCH   9  10
ENDBRANCH   7   9
ENDBRANCH   1   7
BRANCH   3  19
HETATM   19  N2  UNL     1      24.361   0.560  53.279  1.00  0.00    -0.292 N 
HETATM   20  C12 UNL     1      25.633   1.184  53.510  1.00  0.00     0.052 A 
HETATM   21  C13 UNL     1      25.606  -0.111  53.131  1.00  0.00     0.103 A 
HETATM   22  C19 UNL     1      26.594   2.255  53.860  1.00  0.00     0.088 C 
HETATM   23  C14 UNL     1      26.636  -1.103  52.883  1.00  0.00     0.147 C 
HETATM   24  F1  UNL     1      26.093  -2.248  52.386  1.00  0.00    -0.204 F 
HETATM   25  C15 UNL     1      27.940  -1.144  53.026  1.00  0.00     0.069 C 
HETATM   26  C16 UNL     1      29.014  -0.277  53.483  1.00  0.00     0.048 C 
HETATM   27 CL1  UNL     1      30.496  -1.105  53.907  1.00  0.00    -0.083 Cl
HETATM   28  C17 UNL     1      29.025   1.013  53.618  1.00  0.00    -0.006 C 
HETATM   29  C18 UNL     1      27.969   1.742  53.699  1.00  0.00    -0.007 C 
ENDBRANCH   3  19
BRANCH   5  30
HETATM   30  N4  UNL     1      20.191  -1.521  54.336  1.00  0.00    -0.231 N 
HETATM   31  H18 UNL     1      20.694  -1.831  55.201  1.00  0.00     0.174 HD
HETATM   32  H19 UNL     1      19.311  -1.844  53.848  1.00  0.00     0.174 HD
ENDBRANCH   5  30
TORSDOF 6
ENDMDL
MODEL 5
REMARK VINA RESULT:      -8.6      1.721      2.642
REMARK  6 active torsions:
REMARK  status: ('A' for Active; 'I' for Inactive)
REMARK    1  A    between atoms: O1_2  and  C2_3 
REMARK    2  A    between atoms: C7_8  and  C8_9 
REMARK    3  A    between atoms: C8_9  and  N1_10 
REMARK    4  A    between atoms: N1_10  and  C9_11 
REMARK    5  A    between atoms: C11_13  and  N2_14 
REMARK    6  A    between atoms: C20_26  and  N4_27 
ROOT
HETATM    1  C9  UNL     1      26.227   2.917  50.994  1.00  0.00     0.146 A 
HETATM    2  C10 UNL     1      24.938   2.469  51.121  1.00  0.00     0.102 A 
HETATM    3  C11 UNL     1      24.591   1.383  51.878  1.00  0.00     0.158 A 
HETATM    4  N3  UNL     1      25.582   0.705  52.545  1.00  0.00    -0.045 NA
HETATM    5  C20 UNL     1      26.870   1.147  52.423  1.00  0.00     0.724 A 
HETATM    6  N5  UNL     1      27.181   2.221  51.669  1.00  0.00    -0.046 NA
ENDROOT
BRANCH   1   7
HETATM    7  N1  UNL     1      26.804   3.983  50.263  1.00  0.00    -0.373 N 
HETATM    8  H12 UNL     1      27.757   4.291  50.525  1.00  0.00     0.161 HD
BRANCH   7   9
HETATM    9  C8  UNL     1      26.091   4.637  49.179  1.00  0.00     0.130 C 
BRANCH   9  10
HETATM   10  C7  UNL     1      26.294   6.139  49.179  1.00  0.00     0.038 A 
HETATM   11  C5  UNL     1      25.114   6.765  48.531  1.00  0.00    -0.078 A 
HETATM   12  C4  UNL     1      25.124   7.625  47.498  1.00  0.00     0.005 A 
HETATM   13  C6  UNL     1      23.785   6.427  49.097  1.00  0.00     0.044 C 
HETATM   14  C3  UNL     1      26.401   7.987  46.901  1.00  0.00     0.032 A 
HETATM   15  C2  UNL     1      27.492   7.442  47.410  1.00  0.00     0.046 A 
HETATM   16  C21 UNL     1      27.598   6.475  48.532  1.00  0.00     0.075 A 
BRANCH  15  17
HETATM   17  O1  UNL     1      28.740   7.751  46.889  1.00  0.00    -0.360 OA
HETATM   18  C1  UNL     1      29.917   7.277  47.507  1.00  0.00     0.209 C 
ENDBRANCH  15  17
ENDBRANCH   9  10
ENDBRANCH   7   9
ENDBRANCH   1   7
BRANCH   3  19
HETATM   19  N2  UNL     1      23.227   0.997  51.962  1.00  0.00    -0.292 N 
HETATM   20  C12 UNL     1      21.899   0.829  51.443  1.00  0.00     0.052 A 
HETATM   21  C13 UNL     1      22.154   0.440  52.710  1.00  0.00     0.103 A 
HETATM   22  C19 UNL     1      20.789   0.884  50.464  1.00  0.00     0.088 C 
HETATM   23  C14 UNL     1      21.344  -0.156  53.756  1.00  0.00     0.147 C 
HETATM   24  F1  UNL     1      22.045  -0.238  54.921  1.00  0.00    -0.204 F 
HETATM   25  C15 UNL     1      20.119  -0.621  53.832  1.00  0.00     0.069 C 
HETATM   26  C16 UNL     1      18.962  -0.790  52.967  1.00  0.00     0.048 C 
HETATM   27 CL1  UNL     1      17.783  -1.951  53.537  1.00  0.00    -0.083 Cl
HETATM   28  C17 UNL     1      18.686  -0.204  51.843  1.00  0.00    -0.006 C 
HETATM   29  C18 UNL     1      19.555   0.390  51.104  1.00  0.00    -0.007 C 
ENDBRANCH   3  19
BRANCH   5  30
HETATM   30  N4  UNL     1      27.813   0.373  53.153  1.00  0.00    -0.231 N 
HETATM   31  H18 UNL     1      27.588   0.344  54.177  1.00  0.00     0.174 HD
HETATM   32  H19 UNL     1      28.580  -0.050  52.562  1.00  0.00     0.174 HD
ENDBRANCH   5  30
TORSDOF 6
ENDMDL
MODEL 6
REMARK VINA RESULT:      -8.5      4.550      9.303
REMARK  6 active torsions:
REMARK  status: ('A' for Active; 'I' for Inactive)
REMARK    1  A    between atoms: O1_2  and  C2_3 
REMARK    2  A    between atoms: C7_8  and  C8_9 
REMARK    3  A    between atoms: C8_9  and  N1_10 
REMARK    4  A    between atoms: N1_10  and  C9_11 
REMARK    5  A    between atoms: C11_13  and  N2_14 
REMARK    6  A    between atoms: C20_26  and  N4_27 
ROOT
HETATM    1  C9  UNL     1      24.161   2.473  50.413  1.00  0.00     0.146 A 
HETATM    2  C10 UNL     1      24.868   3.438  49.743  1.00  0.00     0.102 A 
HETATM    3  C11 UNL     1      26.193   3.692  49.969  1.00  0.00     0.158 A 
HETATM    4  N3  UNL     1      26.852   2.946  50.915  1.00  0.00    -0.045 NA
HETATM    5  C20 UNL     1      26.153   1.982  51.587  1.00  0.00     0.724 A 
HETATM    6  N5  UNL     1      24.847   1.754  51.343  1.00  0.00    -0.046 NA
ENDROOT
BRANCH   1   7
HETATM    7  N1  UNL     1      22.808   2.063  50.356  1.00  0.00    -0.373 N 
HETATM    8  H12 UNL     1      22.384   1.920  49.424  1.00  0.00     0.161 HD
BRANCH   7   9
HETATM    9  C8  UNL     1      22.026   1.847  51.562  1.00  0.00     0.130 C 
BRANCH   9  10
HETATM   10  C7  UNL     1      21.578   0.407  51.708  1.00  0.00     0.038 A 
HETATM   11  C5  UNL     1      20.105   0.362  51.533  1.00  0.00    -0.078 A 
HETATM   12  C4  UNL     1      19.207  -0.171  52.380  1.00  0.00     0.005 A 
HETATM   13  C6  UNL     1      19.564   0.942  50.278  1.00  0.00     0.044 C 
HETATM   14  C3  UNL     1      19.682  -0.751  53.628  1.00  0.00     0.032 A 
HETATM   15  C2  UNL     1      20.982  -0.716  53.864  1.00  0.00     0.046 A 
HETATM   16  C21 UNL     1      22.055  -0.144  53.012  1.00  0.00     0.075 A 
BRANCH  15  17
HETATM   17  O1  UNL     1      21.498  -1.257  55.033  1.00  0.00    -0.360 OA
HETATM   18  C1  UNL     1      22.893  -1.388  55.213  1.00  0.00     0.209 C 
ENDBRANCH  15  17
ENDBRANCH   9  10
ENDBRANCH   7   9
ENDBRANCH   1   7
BRANCH   3  19
HETATM   19  N2  UNL     1      26.849   4.703  49.217  1.00  0.00    -0.292 N 
HETATM   20  C12 UNL     1      27.982   5.301  48.570  1.00  0.00     0.052 A 
HETATM   21  C13 UNL     1      26.794   5.937  48.513  1.00  0.00     0.103 A 
HETATM   22  C19 UNL     1      29.383   5.448  48.112  1.00  0.00     0.088 C 
HETATM   23  C14 UNL     1      26.351   7.178  47.904  1.00  0.00     0.147 C 
HETATM   24  F1  UNL     1      25.062   7.451  48.248  1.00  0.00    -0.204 F 
HETATM   25  C15 UNL     1      26.899   8.075  47.118  1.00  0.00     0.069 C 
HETATM   26  C16 UNL     1      28.173   8.312  46.457  1.00  0.00     0.048 C 
HETATM   27 CL1  UNL     1      28.109   9.442  45.123  1.00  0.00    -0.083 Cl
HETATM   28  C17 UNL     1      29.339   7.807  46.719  1.00  0.00    -0.006 C 
HETATM   29  C18 UNL     1      29.526   6.732  47.400  1.00  0.00    -0.007 C 
ENDBRANCH   3  19
BRANCH   5  30
HETATM   30  N4  UNL     1      26.932   1.272  52.542  1.00  0.00    -0.231 N 
HETATM   31  H18 UNL     1      27.921   1.615  52.575  1.00  0.00     0.174 HD
HETATM   32  H19 UNL     1      26.401   0.521  53.064  1.00  0.00     0.174 HD
ENDBRANCH   5  30
TORSDOF 6
ENDMDL
MODEL 7
REMARK VINA RESULT:      -8.5      5.330     10.226
REMARK  6 active torsions:
REMARK  status: ('A' for Active; 'I' for Inactive)
REMARK    1  A    between atoms: O1_2  and  C2_3 
REMARK    2  A    between atoms: C7_8  and  C8_9 
REMARK    3  A    between atoms: C8_9  and  N1_10 
REMARK    4  A    between atoms: N1_10  and  C9_11 
REMARK    5  A    between atoms: C11_13  and  N2_14 
REMARK    6  A    between atoms: C20_26  and  N4_27 
ROOT
HETATM    1  C9  UNL     1      25.358   4.388  50.191  1.00  0.00     0.146 A 
HETATM    2  C10 UNL     1      26.287   4.902  49.325  1.00  0.00     0.102 A 
HETATM    3  C11 UNL     1      26.488   6.245  49.149  1.00  0.00     0.158 A 
HETATM    4  N3  UNL     1      25.720   7.123  49.873  1.00  0.00    -0.045 NA
HETATM    5  C20 UNL     1      24.791   6.616  50.739  1.00  0.00     0.724 A 
HETATM    6  N5  UNL     1      24.616   5.288  50.891  1.00  0.00    -0.046 NA
ENDROOT
BRANCH   1   7
HETATM    7  N1  UNL     1      24.975   3.063  50.510  1.00  0.00    -0.373 N 
HETATM    8  H12 UNL     1      24.653   2.453  49.739  1.00  0.00     0.161 HD
BRANCH   7   9
HETATM    9  C8  UNL     1      25.024   2.562  51.873  1.00  0.00     0.130 C 
BRANCH   9  10
HETATM   10  C7  UNL     1      25.078   1.049  51.929  1.00  0.00     0.038 A 
HETATM   11  C5  UNL     1      23.893   0.572  52.684  1.00  0.00    -0.078 A 
HETATM   12  C4  UNL     1      23.892  -0.244  53.753  1.00  0.00     0.005 A 
HETATM   13  C6  UNL     1      22.566   1.019  52.194  1.00  0.00     0.044 C 
HETATM   14  C3  UNL     1      25.167  -0.710  54.278  1.00  0.00     0.032 A 
HETATM   15  C2  UNL     1      26.267  -0.298  53.672  1.00  0.00     0.046 A 
HETATM   16  C21 UNL     1      26.386   0.608  52.502  1.00  0.00     0.075 A 
BRANCH  15  17
HETATM   17  O1  UNL     1      27.513  -0.710  54.121  1.00  0.00    -0.360 OA
HETATM   18  C1  UNL     1      28.373   0.188  54.790  1.00  0.00     0.209 C 
ENDBRANCH  15  17
ENDBRANCH   9  10
ENDBRANCH   7   9
ENDBRANCH   1   7
BRANCH   3  19
HETATM   19  N2  UNL     1      27.484   6.688  48.238  1.00  0.00    -0.292 N 
HETATM   20  C12 UNL     1      27.968   7.463  47.131  1.00  0.00     0.052 A 
HETATM   21  C13 UNL     1      28.831   6.657  47.784  1.00  0.00     0.103 A 
HETATM   22  C19 UNL     1      27.925   8.419  46.001  1.00  0.00     0.088 C 
HETATM   23  C14 UNL     1      30.243   6.364  47.623  1.00  0.00     0.147 C 
HETATM   24  F1  UNL     1      30.627   5.364  48.465  1.00  0.00    -0.204 F 
HETATM   25  C15 UNL     1      31.209   6.832  46.869  1.00  0.00     0.069 C 
HETATM   26  C16 UNL     1      31.396   7.842  45.840  1.00  0.00     0.048 C 
HETATM   27 CL1  UNL     1      33.056   8.332  45.583  1.00  0.00    -0.083 Cl
HETATM   28  C17 UNL     1      30.510   8.424  45.092  1.00  0.00    -0.006 C 
HETATM   29  C18 UNL     1      29.253   8.467  45.359  1.00  0.00    -0.007 C 
ENDBRANCH   3  19
BRANCH   5  30
HETATM   30  N4  UNL     1      24.053   7.613  51.435  1.00  0.00    -0.231 N 
HETATM   31  H18 UNL     1      23.218   7.935  50.890  1.00  0.00     0.174 HD
HETATM   32  H19 UNL     1      24.453   7.870  52.379  1.00  0.00     0.174 HD
ENDBRANCH   5  30
TORSDOF 6
ENDMDL
MODEL 8
REMARK VINA RESULT:      -8.4      5.810     10.549
REMARK  6 active torsions:
REMARK  status: ('A' for Active; 'I' for Inactive)
REMARK    1  A    between atoms: O1_2  and  C2_3 
REMARK    2  A    between atoms: C7_8  and  C8_9 
REMARK    3  A    between atoms: C8_9  and  N1_10 
REMARK    4  A    between atoms: N1_10  and  C9_11 
REMARK    5  A    between atoms: C11_13  and  N2_14 
REMARK    6  A    between atoms: C20_26  and  N4_27 
ROOT
HETATM    1  C9  UNL     1      25.923   4.746  49.134  1.00  0.00     0.146 A 
HETATM    2  C10 UNL     1      27.282   4.860  49.000  1.00  0.00     0.102 A 
HETATM    3  C11 UNL     1      27.894   5.951  48.445  1.00  0.00     0.158 A 
HETATM    4  N3  UNL     1      27.110   6.986  47.997  1.00  0.00    -0.045 NA
HETATM    5  C20 UNL     1      25.753   6.879  48.128  1.00  0.00     0.724 A 
HETATM    6  N5  UNL     1      25.178   5.791  48.679  1.00  0.00    -0.046 NA
ENDROOT
BRANCH   1   7
HETATM    7  N1  UNL     1      25.093   3.721  49.646  1.00  0.00    -0.373 N 
HETATM    8  H12 UNL     1      24.465   3.230  48.986  1.00  0.00     0.161 HD
BRANCH   7   9
HETATM    9  C8  UNL     1      25.108   3.361  51.054  1.00  0.00     0.130 C 
BRANCH   9  10
HETATM   10  C7  UNL     1      25.512   1.917  51.274  1.00  0.00     0.038 A 
HETATM   11  C5  UNL     1      24.481   1.273  52.126  1.00  0.00    -0.078 A 
HETATM   12  C4  UNL     1      24.685   0.610  53.278  1.00  0.00     0.005 A 
HETATM   13  C6  UNL     1      23.079   1.346  51.645  1.00  0.00     0.044 C 
HETATM   14  C3  UNL     1      26.041   0.513  53.797  1.00  0.00     0.032 A 
HETATM   15  C2  UNL     1      27.006   1.091  53.105  1.00  0.00     0.046 A 
HETATM   16  C21 UNL     1      26.895   1.857  51.838  1.00  0.00     0.075 A 
BRANCH  15  17
HETATM   17  O1  UNL     1      28.320   1.030  53.545  1.00  0.00    -0.360 OA
HETATM   18  C1  UNL     1      28.644   0.392  54.762  1.00  0.00     0.209 C 
ENDBRANCH  15  17
ENDBRANCH   9  10
ENDBRANCH   7   9
ENDBRANCH   1   7
BRANCH   3  19
HETATM   19  N2  UNL     1      29.312   5.989  48.359  1.00  0.00    -0.292 N 
HETATM   20  C12 UNL     1      30.596   5.470  47.983  1.00  0.00     0.052 A 
HETATM   21  C13 UNL     1      30.538   6.662  48.612  1.00  0.00     0.103 A 
HETATM   22  C19 UNL     1      31.581   4.526  47.407  1.00  0.00     0.088 C 
HETATM   23  C14 UNL     1      31.542   7.623  49.031  1.00  0.00     0.147 C 
HETATM   24  F1  UNL     1      30.976   8.626  49.757  1.00  0.00    -0.204 F 
HETATM   25  C15 UNL     1      32.839   7.739  48.873  1.00  0.00     0.069 C 
HETATM   26  C16 UNL     1      33.928   7.020  48.230  1.00  0.00     0.048 C 
HETATM   27 CL1  UNL     1      35.371   7.970  47.949  1.00  0.00    -0.083 Cl
HETATM   28  C17 UNL     1      33.977   5.784  47.841  1.00  0.00    -0.006 C 
HETATM   29  C18 UNL     1      32.942   5.047  47.639  1.00  0.00    -0.007 C 
ENDBRANCH   3  19
BRANCH   5  30
HETATM   30  N4  UNL     1      25.040   8.004  47.632  1.00  0.00    -0.231 N 
HETATM   31  H18 UNL     1      25.331   8.256  46.657  1.00  0.00     0.174 HD
HETATM   32  H19 UNL     1      24.336   8.406  48.310  1.00  0.00     0.174 HD
ENDBRANCH   5  30
TORSDOF 6
ENDMDL
MODEL 9
REMARK VINA RESULT:      -8.4      2.939      4.829
REMARK  6 active torsions:
REMARK  status: ('A' for Active; 'I' for Inactive)
REMARK    1  A    between atoms: O1_2  and  C2_3 
REMARK    2  A    between atoms: C7_8  and  C8_9 
REMARK    3  A    between atoms: C8_9  and  N1_10 
REMARK    4  A    between atoms: N1_10  and  C9_11 
REMARK    5  A    between atoms: C11_13  and  N2_14 
REMARK    6  A    between atoms: C20_26  and  N4_27 
ROOT
HETATM    1  C9  UNL     1      26.130   5.288  49.360  1.00  0.00     0.146 A 
HETATM    2  C10 UNL     1      25.686   4.241  50.125  1.00  0.00     0.102 A 
HETATM    3  C11 UNL     1      24.395   3.786  50.099  1.00  0.00     0.158 A 
HETATM    4  N3  UNL     1      23.497   4.408  49.267  1.00  0.00    -0.045 NA
HETATM    5  C20 UNL     1      23.934   5.454  48.501  1.00  0.00     0.724 A 
HETATM    6  N5  UNL     1      25.213   5.880  48.548  1.00  0.00    -0.046 NA
ENDROOT
BRANCH   1   7
HETATM    7  N1  UNL     1      27.389   5.925  49.247  1.00  0.00    -0.373 N 
HETATM    8  H12 UNL     1      27.563   6.762  49.830  1.00  0.00     0.161 HD
BRANCH   7   9
HETATM    9  C8  UNL     1      28.413   5.433  48.341  1.00  0.00     0.130 C 
BRANCH   9  10
HETATM   10  C7  UNL     1      29.288   6.547  47.801  1.00  0.00     0.038 A 
HETATM   11  C5  UNL     1      30.702   6.211  48.105  1.00  0.00    -0.078 A 
HETATM   12  C4  UNL     1      31.594   6.984  48.749  1.00  0.00     0.005 A 
HETATM   13  C6  UNL     1      31.193   4.895  47.625  1.00  0.00     0.044 C 
HETATM   14  C3  UNL     1      31.164   8.283  49.244  1.00  0.00     0.032 A 
HETATM   15  C2  UNL     1      29.907   8.634  49.036  1.00  0.00     0.046 A 
HETATM   16  C21 UNL     1      28.839   7.860  48.356  1.00  0.00     0.075 A 
BRANCH  15  17
HETATM   17  O1  UNL     1      29.438   9.862  49.479  1.00  0.00    -0.360 OA
HETATM   18  C1  UNL     1      28.153  10.318  49.113  1.00  0.00     0.209 C 
ENDBRANCH  15  17
ENDBRANCH   9  10
ENDBRANCH   7   9
ENDBRANCH   1   7
BRANCH   3  19
HETATM   19  N2  UNL     1      24.026   2.685  50.917  1.00  0.00    -0.292 N 
HETATM   20  C12 UNL     1      24.224   1.748  51.986  1.00  0.00     0.052 A 
HETATM   21  C13 UNL     1      23.089   1.672  51.260  1.00  0.00     0.103 A 
HETATM   22  C19 UNL     1      24.901   1.085  53.124  1.00  0.00     0.088 C 
HETATM   23  C14 UNL     1      21.927   0.803  51.305  1.00  0.00     0.147 C 
HETATM   24  F1  UNL     1      21.097   1.053  50.256  1.00  0.00    -0.204 F 
HETATM   25  C15 UNL     1      21.508  -0.146  52.109  1.00  0.00     0.069 C 
HETATM   26  C16 UNL     1      21.941  -0.814  53.325  1.00  0.00     0.048 C 
HETATM   27 CL1  UNL     1      20.676  -1.659  54.190  1.00  0.00    -0.083 Cl
HETATM   28  C17 UNL     1      23.126  -0.871  53.852  1.00  0.00    -0.006 C 
HETATM   29  C18 UNL     1      24.080  -0.055  53.577  1.00  0.00    -0.007 C 
ENDBRANCH   3  19
BRANCH   5  30
HETATM   30  N4  UNL     1      22.924   6.023  47.679  1.00  0.00    -0.231 N 
HETATM   31  H18 UNL     1      22.871   7.064  47.786  1.00  0.00     0.174 HD
HETATM   32  H19 UNL     1      22.392   5.321  47.095  1.00  0.00     0.174 HD
ENDBRANCH   5  30
TORSDOF 6
ENDMDL
