MODEL 1
REMARK VINA RESULT:      -7.8      0.000      0.000
REMARK  6 active torsions:
REMARK  status: ('A' for Active; 'I' for Inactive)
REMARK    1  A    between atoms: O1_2  and  C2_3 
REMARK    2  A    between atoms: C6_8  and  N2_9 
REMARK    3  A    between atoms: C6_8  and  N3_12 
REMARK    4  A    between atoms: N3_12  and  C9_14 
REMARK    5  A    between atoms: C9_14  and  C10_15 
REMARK    6  A    between atoms: C17_22  and  O2_23 
ROOT
HETATM    1  C2  UNL     1      27.340   0.137  53.856  1.00  0.00     0.103 A 
HETATM    2  C3  UNL     1      27.751   1.133  53.067  1.00  0.00     0.071 A 
HETATM    3  C4  UNL     1      26.777   1.929  52.327  1.00  0.00     0.065 A 
HETATM    4  N1  UNL     1      27.095   2.903  51.547  1.00  0.00    -0.299 NA
HETATM    5  C5  UNL     1      25.335   1.644  52.442  1.00  0.00     0.040 A 
HETATM    6  C6  UNL     1      24.352   2.269  51.842  1.00  0.00     0.135 C 
HETATM    7  C16 UNL     1      24.992   0.534  53.331  1.00  0.00     0.057 A 
HETATM    8  C17 UNL     1      25.911  -0.150  53.974  1.00  0.00     0.102 A 
HETATM    9  H5  UNL     1      28.101   3.156  51.421  1.00  0.00     0.187 HD
ENDROOT
BRANCH   6  10
HETATM   10  N2  UNL     1      22.986   1.911  52.024  1.00  0.00    -0.248 NA
HETATM   11  C7  UNL     1      22.204   1.497  51.101  1.00  0.00     0.379 C 
HETATM   12 CL1  UNL     1      21.731   1.029  49.480  1.00  0.00    -0.230 Cl
ENDBRANCH   6  10
BRANCH   6  13
HETATM   13  N3  UNL     1      24.511   3.361  50.951  1.00  0.00    -0.365 N 
HETATM   14  C8  UNL     1      24.223   4.594  51.667  1.00  0.00     0.151 C 
BRANCH  13  15
HETATM   15  C9  UNL     1      24.887   3.361  49.562  1.00  0.00     0.162 C 
BRANCH  15  16
HETATM   16  C10 UNL     1      25.175   4.735  49.045  1.00  0.00    -0.040 A 
HETATM   17  C11 UNL     1      26.517   5.070  49.001  1.00  0.00     0.009 A 
HETATM   18  C12 UNL     1      26.913   6.317  48.541  1.00  0.00     0.001 A 
HETATM   19  C13 UNL     1      25.954   7.215  48.130  1.00  0.00     0.000 A 
HETATM   20  C14 UNL     1      24.621   6.867  48.179  1.00  0.00     0.001 A 
HETATM   21  C15 UNL     1      24.194   5.617  48.638  1.00  0.00     0.009 A 
ENDBRANCH  15  16
ENDBRANCH  13  15
ENDBRANCH   6  13
BRANCH   8  22
HETATM   22  O2  UNL     1      25.652  -1.217  54.835  1.00  0.00    -0.353 OA
HETATM   23  C18 UNL     1      24.393  -1.232  55.502  1.00  0.00     0.210 C 
ENDBRANCH   8  22
BRANCH   1  24
HETATM   24  O1  UNL     1      28.363  -0.534  54.497  1.00  0.00    -0.353 OA
HETATM   25  C1  UNL     1      29.605  -0.867  53.949  1.00  0.00     0.210 C 
ENDBRANCH   1  24
TORSDOF 6
ENDMDL
MODEL 2
REMARK VINA RESULT:      -7.5      2.750      4.703
REMARK  6 active torsions:
REMARK  status: ('A' for Active; 'I' for Inactive)
REMARK    1  A    between atoms: O1_2  and  C2_3 
REMARK    2  A    between atoms: C6_8  and  N2_9 
REMARK    3  A    between atoms: C6_8  and  N3_12 
REMARK    4  A    between atoms: N3_12  and  C9_14 
REMARK    5  A    between atoms: C9_14  and  C10_15 
REMARK    6  A    between atoms: C17_22  and  O2_23 
ROOT
HETATM    1  C2  UNL     1      20.205  -0.198  53.223  1.00  0.00     0.103 A 
HETATM    2  C3  UNL     1      20.005   0.684  52.240  1.00  0.00     0.071 A 
HETATM    3  C4  UNL     1      21.059   1.621  51.872  1.00  0.00     0.065 A 
HETATM    4  N1  UNL     1      20.941   2.500  50.937  1.00  0.00    -0.299 NA
HETATM    5  C5  UNL     1      22.354   1.608  52.577  1.00  0.00     0.040 A 
HETATM    6  C6  UNL     1      23.386   2.384  52.358  1.00  0.00     0.135 C 
HETATM    7  C16 UNL     1      22.470   0.605  53.636  1.00  0.00     0.057 A 
HETATM    8  C17 UNL     1      21.487  -0.217  53.927  1.00  0.00     0.102 A 
HETATM    9  H5  UNL     1      20.048   2.562  50.398  1.00  0.00     0.187 HD
ENDROOT
BRANCH   6  10
HETATM   10  N2  UNL     1      24.596   2.286  53.102  1.00  0.00    -0.248 NA
HETATM   11  C7  UNL     1      25.638   1.644  52.734  1.00  0.00     0.379 C 
HETATM   12 CL1  UNL     1      26.630   0.649  51.688  1.00  0.00    -0.230 Cl
ENDBRANCH   6  10
BRANCH   6  13
HETATM   13  N3  UNL     1      23.438   3.404  51.374  1.00  0.00    -0.365 N 
HETATM   14  C8  UNL     1      23.243   4.690  52.024  1.00  0.00     0.151 C 
BRANCH  13  15
HETATM   15  C9  UNL     1      23.640   3.294  49.953  1.00  0.00     0.162 C 
BRANCH  15  16
HETATM   16  C10 UNL     1      24.768   4.147  49.466  1.00  0.00    -0.040 A 
HETATM   17  C11 UNL     1      26.025   3.585  49.607  1.00  0.00     0.009 A 
HETATM   18  C12 UNL     1      27.153   4.277  49.194  1.00  0.00     0.001 A 
HETATM   19  C13 UNL     1      27.005   5.530  48.643  1.00  0.00     0.000 A 
HETATM   20  C14 UNL     1      25.746   6.077  48.508  1.00  0.00     0.001 A 
HETATM   21  C15 UNL     1      24.593   5.401  48.917  1.00  0.00     0.009 A 
ENDBRANCH  15  16
ENDBRANCH  13  15
ENDBRANCH   6  13
BRANCH   8  22
HETATM   22  O2  UNL     1      21.533  -1.193  54.922  1.00  0.00    -0.353 OA
HETATM   23  C18 UNL     1      22.814  -1.543  55.440  1.00  0.00     0.210 C 
ENDBRANCH   8  22
BRANCH   1  24
HETATM   24  O1  UNL     1      19.127  -1.025  53.469  1.00  0.00    -0.353 OA
HETATM   25  C1  UNL     1      17.883  -0.974  52.833  1.00  0.00     0.210 C 
ENDBRANCH   1  24
TORSDOF 6
ENDMDL
MODEL 3
REMARK VINA RESULT:      -7.4      2.805      4.363
REMARK  6 active torsions:
REMARK  status: ('A' for Active; 'I' for Inactive)
REMARK    1  A    between atoms: O1_2  and  C2_3 
REMARK    2  A    between atoms: C6_8  and  N2_9 
REMARK    3  A    between atoms: C6_8  and  N3_12 
REMARK    4  A    between atoms: N3_12  and  C9_14 
REMARK    5  A    between atoms: C9_14  and  C10_15 
REMARK    6  A    between atoms: C17_22  and  O2_23 
ROOT
HETATM    1  C2  UNL     1      26.443   0.177  54.206  1.00  0.00     0.103 A 
HETATM    2  C3  UNL     1      25.457  -0.696  53.978  1.00  0.00     0.071 A 
HETATM    3  C4  UNL     1      24.188  -0.238  53.427  1.00  0.00     0.065 A 
HETATM    4  N1  UNL     1      23.192  -1.017  53.181  1.00  0.00    -0.299 NA
HETATM    5  C5  UNL     1      23.977   1.188  53.114  1.00  0.00     0.040 A 
HETATM    6  C6  UNL     1      22.898   1.741  52.619  1.00  0.00     0.135 C 
HETATM    7  C16 UNL     1      25.118   2.059  53.400  1.00  0.00     0.057 A 
HETATM    8  C17 UNL     1      26.240   1.592  53.898  1.00  0.00     0.102 A 
HETATM    9  H5  UNL     1      23.276  -2.039  53.380  1.00  0.00     0.187 HD
ENDROOT
BRANCH   6  10
HETATM   10  N2  UNL     1      22.800   3.137  52.354  1.00  0.00    -0.248 NA
HETATM   11  C7  UNL     1      23.284   3.728  51.329  1.00  0.00     0.379 C 
HETATM   12 CL1  UNL     1      24.135   3.871  49.804  1.00  0.00    -0.230 Cl
ENDBRANCH   6  10
BRANCH   6  13
HETATM   13  N3  UNL     1      21.709   1.043  52.287  1.00  0.00    -0.365 N 
HETATM   14  C8  UNL     1      20.763   1.187  53.382  1.00  0.00     0.151 C 
BRANCH  13  15
HETATM   15  C9  UNL     1      21.390   0.290  51.103  1.00  0.00     0.162 C 
BRANCH  15  16
HETATM   16  C10 UNL     1      20.934   1.160  49.975  1.00  0.00    -0.040 A 
HETATM   17  C11 UNL     1      21.855   1.318  48.954  1.00  0.00     0.009 A 
HETATM   18  C12 UNL     1      21.551   2.103  47.852  1.00  0.00     0.001 A 
HETATM   19  C13 UNL     1      20.322   2.721  47.788  1.00  0.00     0.000 A 
HETATM   20  C14 UNL     1      19.414   2.553  48.813  1.00  0.00     0.001 A 
HETATM   21  C15 UNL     1      19.696   1.768  49.935  1.00  0.00     0.009 A 
ENDBRANCH  15  16
ENDBRANCH  13  15
ENDBRANCH   6  13
BRANCH   8  22
HETATM   22  O2  UNL     1      27.363   2.367  54.193  1.00  0.00    -0.353 OA
HETATM   23  C18 UNL     1      28.340   2.525  53.168  1.00  0.00     0.210 C 
ENDBRANCH   8  22
BRANCH   1  24
HETATM   24  O1  UNL     1      27.589  -0.389  54.729  1.00  0.00    -0.353 OA
HETATM   25  C1  UNL     1      28.708  -0.812  54.006  1.00  0.00     0.210 C 
ENDBRANCH   1  24
TORSDOF 6
ENDMDL
MODEL 4
REMARK VINA RESULT:      -7.3      3.586      6.948
REMARK  6 active torsions:
REMARK  status: ('A' for Active; 'I' for Inactive)
REMARK    1  A    between atoms: O1_2  and  C2_3 
REMARK    2  A    between atoms: C6_8  and  N2_9 
REMARK    3  A    between atoms: C6_8  and  N3_12 
REMARK    4  A    between atoms: N3_12  and  C9_14 
REMARK    5  A    between atoms: C9_14  and  C10_15 
REMARK    6  A    between atoms: C17_22  and  O2_23 
ROOT
HETATM    1  C2  UNL     1      26.769   5.610  48.869  1.00  0.00     0.103 A 
HETATM    2  C3  UNL     1      26.983   4.330  49.189  1.00  0.00     0.071 A 
HETATM    3  C4  UNL     1      26.122   3.666  50.161  1.00  0.00     0.065 A 
HETATM    4  N1  UNL     1      26.265   2.437  50.520  1.00  0.00    -0.299 NA
HETATM    5  C5  UNL     1      25.010   4.395  50.798  1.00  0.00     0.040 A 
HETATM    6  C6  UNL     1      24.161   3.933  51.682  1.00  0.00     0.135 C 
HETATM    7  C16 UNL     1      24.863   5.789  50.379  1.00  0.00     0.057 A 
HETATM    8  C17 UNL     1      25.668   6.338  49.498  1.00  0.00     0.102 A 
HETATM    9  H5  UNL     1      27.034   1.865  50.106  1.00  0.00     0.187 HD
ENDROOT
BRANCH   6  10
HETATM   10  N2  UNL     1      23.118   4.727  52.238  1.00  0.00    -0.248 NA
HETATM   11  C7  UNL     1      21.875   4.610  51.961  1.00  0.00     0.379 C 
HETATM   12 CL1  UNL     1      20.455   3.948  51.177  1.00  0.00    -0.230 Cl
ENDBRANCH   6  10
BRANCH   6  13
HETATM   13  N3  UNL     1      24.165   2.609  52.194  1.00  0.00    -0.365 N 
HETATM   14  C8  UNL     1      24.961   2.582  53.410  1.00  0.00     0.151 C 
BRANCH  13  15
HETATM   15  C9  UNL     1      23.527   1.427  51.678  1.00  0.00     0.162 C 
BRANCH  15  16
HETATM   16  C10 UNL     1      22.843   0.632  52.745  1.00  0.00    -0.040 A 
HETATM   17  C11 UNL     1      21.583   1.088  53.092  1.00  0.00     0.009 A 
HETATM   18  C12 UNL     1      20.847   0.437  54.070  1.00  0.00     0.001 A 
HETATM   19  C13 UNL     1      21.386  -0.669  54.688  1.00  0.00     0.000 A 
HETATM   20  C14 UNL     1      22.642  -1.113  54.331  1.00  0.00     0.001 A 
HETATM   21  C15 UNL     1      23.405  -0.474  53.349  1.00  0.00     0.009 A 
ENDBRANCH  15  16
ENDBRANCH  13  15
ENDBRANCH   6  13
BRANCH   8  22
HETATM   22  O2  UNL     1      25.583   7.659  49.056  1.00  0.00    -0.353 OA
HETATM   23  C18 UNL     1      26.180   8.664  49.871  1.00  0.00     0.210 C 
ENDBRANCH   8  22
BRANCH   1  24
HETATM   24  O1  UNL     1      27.656   6.115  47.938  1.00  0.00    -0.353 OA
HETATM   25  C1  UNL     1      29.035   6.266  48.106  1.00  0.00     0.210 C 
ENDBRANCH   1  24
TORSDOF 6
ENDMDL
MODEL 5
REMARK VINA RESULT:      -7.0      2.514      5.236
REMARK  6 active torsions:
REMARK  status: ('A' for Active; 'I' for Inactive)
REMARK    1  A    between atoms: O1_2  and  C2_3 
REMARK    2  A    between atoms: C6_8  and  N2_9 
REMARK    3  A    between atoms: C6_8  and  N3_12 
REMARK    4  A    between atoms: N3_12  and  C9_14 
REMARK    5  A    between atoms: C9_14  and  C10_15 
REMARK    6  A    between atoms: C17_22  and  O2_23 
ROOT
HETATM    1  C2  UNL     1      26.943  -0.161  53.504  1.00  0.00     0.103 A 
HETATM    2  C3  UNL     1      25.782  -0.787  53.717  1.00  0.00     0.071 A 
HETATM    3  C4  UNL     1      24.543  -0.230  53.187  1.00  0.00     0.065 A 
HETATM    4  N1  UNL     1      23.387  -0.774  53.351  1.00  0.00    -0.299 NA
HETATM    5  C5  UNL     1      24.556   1.024  52.413  1.00  0.00     0.040 A 
HETATM    6  C6  UNL     1      23.530   1.639  51.879  1.00  0.00     0.135 C 
HETATM    7  C16 UNL     1      25.877   1.629  52.237  1.00  0.00     0.057 A 
HETATM    8  C17 UNL     1      26.963   1.084  52.737  1.00  0.00     0.102 A 
HETATM    9  H5  UNL     1      23.309  -1.665  53.892  1.00  0.00     0.187 HD
ENDROOT
BRANCH   6  10
HETATM   10  N2  UNL     1      23.655   2.853  51.146  1.00  0.00    -0.248 NA
HETATM   11  C7  UNL     1      23.383   2.996  49.905  1.00  0.00     0.379 C 
HETATM   12 CL1  UNL     1      22.864   2.511  48.303  1.00  0.00    -0.230 Cl
ENDBRANCH   6  10
BRANCH   6  13
HETATM   13  N3  UNL     1      22.187   1.189  51.956  1.00  0.00    -0.365 N 
HETATM   14  C8  UNL     1      21.507   1.929  53.008  1.00  0.00     0.151 C 
BRANCH  13  15
HETATM   15  C9  UNL     1      21.513   0.182  51.180  1.00  0.00     0.162 C 
BRANCH  15  16
HETATM   16  C10 UNL     1      20.118   0.579  50.812  1.00  0.00    -0.040 A 
HETATM   17  C11 UNL     1      19.124  -0.042  51.548  1.00  0.00     0.009 A 
HETATM   18  C12 UNL     1      17.790   0.241  51.300  1.00  0.00     0.001 A 
HETATM   19  C13 UNL     1      17.468   1.147  50.314  1.00  0.00     0.000 A 
HETATM   20  C14 UNL     1      18.470   1.758  49.590  1.00  0.00     0.001 A 
HETATM   21  C15 UNL     1      19.823   1.491  49.819  1.00  0.00     0.009 A 
ENDBRANCH  15  16
ENDBRANCH  13  15
ENDBRANCH   6  13
BRANCH   8  22
HETATM   22  O2  UNL     1      28.250   1.607  52.606  1.00  0.00    -0.353 OA
HETATM   23  C18 UNL     1      28.682   2.540  53.592  1.00  0.00     0.210 C 
ENDBRANCH   8  22
BRANCH   1  24
HETATM   24  O1  UNL     1      28.037  -0.795  54.061  1.00  0.00    -0.353 OA
HETATM   25  C1  UNL     1      28.968  -1.587  53.383  1.00  0.00     0.210 C 
ENDBRANCH   1  24
TORSDOF 6
ENDMDL
MODEL 6
REMARK VINA RESULT:      -7.0      3.619      7.088
REMARK  6 active torsions:
REMARK  status: ('A' for Active; 'I' for Inactive)
REMARK    1  A    between atoms: O1_2  and  C2_3 
REMARK    2  A    between atoms: C6_8  and  N2_9 
REMARK    3  A    between atoms: C6_8  and  N3_12 
REMARK    4  A    between atoms: N3_12  and  C9_14 
REMARK    5  A    between atoms: C9_14  and  C10_15 
REMARK    6  A    between atoms: C17_22  and  O2_23 
ROOT
HETATM    1  C2  UNL     1      27.173   7.922  49.251  1.00  0.00     0.103 A 
HETATM    2  C3  UNL     1      26.257   8.215  50.177  1.00  0.00     0.071 A 
HETATM    3  C4  UNL     1      25.288   7.207  50.592  1.00  0.00     0.065 A 
HETATM    4  N1  UNL     1      24.375   7.414  51.478  1.00  0.00    -0.299 NA
HETATM    5  C5  UNL     1      25.309   5.858  49.998  1.00  0.00     0.040 A 
HETATM    6  C6  UNL     1      24.508   4.858  50.269  1.00  0.00     0.135 C 
HETATM    7  C16 UNL     1      26.351   5.641  48.994  1.00  0.00     0.057 A 
HETATM    8  C17 UNL     1      27.199   6.585  48.657  1.00  0.00     0.102 A 
HETATM    9  H5  UNL     1      24.306   8.350  51.937  1.00  0.00     0.187 HD
ENDROOT
BRANCH   6  10
HETATM   10  N2  UNL     1      24.615   3.589  49.632  1.00  0.00    -0.248 NA
HETATM   11  C7  UNL     1      23.685   3.017  48.967  1.00  0.00     0.379 C 
HETATM   12 CL1  UNL     1      22.095   2.830  48.254  1.00  0.00    -0.230 Cl
ENDBRANCH   6  10
BRANCH   6  13
HETATM   13  N3  UNL     1      23.448   4.901  51.212  1.00  0.00    -0.365 N 
HETATM   14  C8  UNL     1      22.269   5.453  50.564  1.00  0.00     0.151 C 
BRANCH  13  15
HETATM   15  C9  UNL     1      23.436   4.497  52.593  1.00  0.00     0.162 C 
BRANCH  15  16
HETATM   16  C10 UNL     1      23.734   3.042  52.768  1.00  0.00    -0.040 A 
HETATM   17  C11 UNL     1      22.693   2.192  52.441  1.00  0.00     0.009 A 
HETATM   18  C12 UNL     1      22.844   0.819  52.561  1.00  0.00     0.001 A 
HETATM   19  C13 UNL     1      24.044   0.315  53.011  1.00  0.00     0.000 A 
HETATM   20  C14 UNL     1      25.074   1.174  53.332  1.00  0.00     0.001 A 
HETATM   21  C15 UNL     1      24.947   2.562  53.220  1.00  0.00     0.009 A 
ENDBRANCH  15  16
ENDBRANCH  13  15
ENDBRANCH   6  13
BRANCH   8  22
HETATM   22  O2  UNL     1      28.214   6.444  47.710  1.00  0.00    -0.353 OA
HETATM   23  C18 UNL     1      29.405   5.777  48.118  1.00  0.00     0.210 C 
ENDBRANCH   8  22
BRANCH   1  24
HETATM   24  O1  UNL     1      28.027   8.965  48.951  1.00  0.00    -0.353 OA
HETATM   25  C1  UNL     1      27.740  10.328  49.065  1.00  0.00     0.210 C 
ENDBRANCH   1  24
TORSDOF 6
ENDMDL
MODEL 7
REMARK VINA RESULT:      -6.9      3.632      7.510
REMARK  6 active torsions:
REMARK  status: ('A' for Active; 'I' for Inactive)
REMARK    1  A    between atoms: O1_2  and  C2_3 
REMARK    2  A    between atoms: C6_8  and  N2_9 
REMARK    3  A    between atoms: C6_8  and  N3_12 
REMARK    4  A    between atoms: N3_12  and  C9_14 
REMARK    5  A    between atoms: C9_14  and  C10_15 
REMARK    6  A    between atoms: C17_22  and  O2_23 
ROOT
HETATM    1  C2  UNL     1      25.341   6.521  48.642  1.00  0.00     0.103 A 
HETATM    2  C3  UNL     1      24.195   6.245  49.271  1.00  0.00     0.071 A 
HETATM    3  C4  UNL     1      24.093   5.063  50.119  1.00  0.00     0.065 A 
HETATM    4  N1  UNL     1      23.023   4.730  50.756  1.00  0.00    -0.299 NA
HETATM    5  C5  UNL     1      25.248   4.163  50.293  1.00  0.00     0.040 A 
HETATM    6  C6  UNL     1      25.303   3.073  51.017  1.00  0.00     0.135 C 
HETATM    7  C16 UNL     1      26.453   4.555  49.562  1.00  0.00     0.057 A 
HETATM    8  C17 UNL     1      26.490   5.632  48.811  1.00  0.00     0.102 A 
HETATM    9  H5  UNL     1      22.169   5.326  50.675  1.00  0.00     0.187 HD
ENDROOT
BRANCH   6  10
HETATM   10  N2  UNL     1      26.476   2.272  51.116  1.00  0.00    -0.248 NA
HETATM   11  C7  UNL     1      27.120   2.038  52.195  1.00  0.00     0.379 C 
HETATM   12 CL1  UNL     1      27.481   2.129  53.907  1.00  0.00    -0.230 Cl
ENDBRANCH   6  10
BRANCH   6  13
HETATM   13  N3  UNL     1      24.228   2.554  51.783  1.00  0.00    -0.365 N 
HETATM   14  C8  UNL     1      24.161   3.277  53.043  1.00  0.00     0.151 C 
BRANCH  13  15
HETATM   15  C9  UNL     1      23.304   1.498  51.465  1.00  0.00     0.162 C 
BRANCH  15  16
HETATM   16  C10 UNL     1      22.997   0.629  52.643  1.00  0.00    -0.040 A 
HETATM   17  C11 UNL     1      21.673   0.646  53.048  1.00  0.00     0.009 A 
HETATM   18  C12 UNL     1      21.262  -0.117  54.130  1.00  0.00     0.001 A 
HETATM   19  C13 UNL     1      22.187  -0.890  54.795  1.00  0.00     0.000 A 
HETATM   20  C14 UNL     1      23.502  -0.897  54.380  1.00  0.00     0.001 A 
HETATM   21  C15 UNL     1      23.943  -0.137  53.293  1.00  0.00     0.009 A 
ENDBRANCH  15  16
ENDBRANCH  13  15
ENDBRANCH   6  13
BRANCH   8  22
HETATM   22  O2  UNL     1      27.605   6.062  48.090  1.00  0.00    -0.353 OA
HETATM   23  C18 UNL     1      28.817   5.332  48.258  1.00  0.00     0.210 C 
ENDBRANCH   8  22
BRANCH   1  24
HETATM   24  O1  UNL     1      25.301   7.667  47.873  1.00  0.00    -0.353 OA
HETATM   25  C1  UNL     1      24.156   8.266  47.338  1.00  0.00     0.210 C 
ENDBRANCH   1  24
TORSDOF 6
ENDMDL
MODEL 8
REMARK VINA RESULT:      -6.9      1.451      2.144
REMARK  6 active torsions:
REMARK  status: ('A' for Active; 'I' for Inactive)
REMARK    1  A    between atoms: O1_2  and  C2_3 
REMARK    2  A    between atoms: C6_8  and  N2_9 
REMARK    3  A    between atoms: C6_8  and  N3_12 
REMARK    4  A    between atoms: N3_12  and  C9_14 
REMARK    5  A    between atoms: C9_14  and  C10_15 
REMARK    6  A    between atoms: C17_22  and  O2_23 
ROOT
HETATM    1  C2  UNL     1      27.243   0.046  53.545  1.00  0.00     0.103 A 
HETATM    2  C3  UNL     1      27.672   1.084  52.822  1.00  0.00     0.071 A 
HETATM    3  C4  UNL     1      26.712   1.991  52.204  1.00  0.00     0.065 A 
HETATM    4  N1  UNL     1      27.048   3.012  51.493  1.00  0.00    -0.299 NA
HETATM    5  C5  UNL     1      25.263   1.775  52.369  1.00  0.00     0.040 A 
HETATM    6  C6  UNL     1      24.290   2.501  51.876  1.00  0.00     0.135 C 
HETATM    7  C16 UNL     1      24.900   0.611  53.178  1.00  0.00     0.057 A 
HETATM    8  C17 UNL     1      25.807  -0.174  53.713  1.00  0.00     0.102 A 
HETATM    9  H5  UNL     1      28.060   3.221  51.338  1.00  0.00     0.187 HD
ENDROOT
BRANCH   6  10
HETATM   10  N2  UNL     1      22.916   2.201  52.098  1.00  0.00    -0.248 NA
HETATM   11  C7  UNL     1      22.137   1.646  51.250  1.00  0.00     0.379 C 
HETATM   12 CL1  UNL     1      21.673   0.913  49.728  1.00  0.00    -0.230 Cl
ENDBRANCH   6  10
BRANCH   6  13
HETATM   13  N3  UNL     1      24.469   3.657  51.074  1.00  0.00    -0.365 N 
HETATM   14  C8  UNL     1      24.494   3.255  49.676  1.00  0.00     0.151 C 
BRANCH  13  15
HETATM   15  C9  UNL     1      24.613   5.032  51.470  1.00  0.00     0.162 C 
BRANCH  15  16
HETATM   16  C10 UNL     1      23.460   5.879  51.033  1.00  0.00    -0.040 A 
HETATM   17  C11 UNL     1      23.811   7.093  50.468  1.00  0.00     0.009 A 
HETATM   18  C12 UNL     1      22.833   7.969  50.024  1.00  0.00     0.001 A 
HETATM   19  C13 UNL     1      21.508   7.614  50.153  1.00  0.00     0.000 A 
HETATM   20  C14 UNL     1      21.173   6.402  50.718  1.00  0.00     0.001 A 
HETATM   21  C15 UNL     1      22.140   5.501  51.174  1.00  0.00     0.009 A 
ENDBRANCH  15  16
ENDBRANCH  13  15
ENDBRANCH   6  13
BRANCH   8  22
HETATM   22  O2  UNL     1      25.528  -1.297  54.493  1.00  0.00    -0.353 OA
HETATM   23  C18 UNL     1      24.816  -1.091  55.710  1.00  0.00     0.210 C 
ENDBRANCH   8  22
BRANCH   1  24
HETATM   24  O1  UNL     1      28.255  -0.732  54.073  1.00  0.00    -0.353 OA
HETATM   25  C1  UNL     1      29.617  -0.631  53.774  1.00  0.00     0.210 C 
ENDBRANCH   1  24
TORSDOF 6
ENDMDL
MODEL 9
REMARK VINA RESULT:      -6.7      3.712      7.227
REMARK  6 active torsions:
REMARK  status: ('A' for Active; 'I' for Inactive)
REMARK    1  A    between atoms: O1_2  and  C2_3 
REMARK    2  A    between atoms: C6_8  and  N2_9 
REMARK    3  A    between atoms: C6_8  and  N3_12 
REMARK    4  A    between atoms: N3_12  and  C9_14 
REMARK    5  A    between atoms: C9_14  and  C10_15 
REMARK    6  A    between atoms: C17_22  and  O2_23 
ROOT
HETATM    1  C2  UNL     1      27.190   6.933  47.942  1.00  0.00     0.103 A 
HETATM    2  C3  UNL     1      25.906   7.027  48.299  1.00  0.00     0.071 A 
HETATM    3  C4  UNL     1      25.264   5.932  49.016  1.00  0.00     0.065 A 
HETATM    4  N1  UNL     1      24.032   5.948  49.393  1.00  0.00    -0.299 NA
HETATM    5  C5  UNL     1      26.021   4.714  49.356  1.00  0.00     0.040 A 
HETATM    6  C6  UNL     1      25.581   3.657  49.993  1.00  0.00     0.135 C 
HETATM    7  C16 UNL     1      27.418   4.712  48.921  1.00  0.00     0.057 A 
HETATM    8  C17 UNL     1      27.946   5.727  48.276  1.00  0.00     0.102 A 
HETATM    9  H5  UNL     1      23.440   6.783  49.183  1.00  0.00     0.187 HD
ENDROOT
BRANCH   6  10
HETATM   10  N2  UNL     1      26.402   2.527  50.270  1.00  0.00    -0.248 NA
HETATM   11  C7  UNL     1      26.772   2.153  51.436  1.00  0.00     0.379 C 
HETATM   12 CL1  UNL     1      26.892   2.209  53.183  1.00  0.00    -0.230 Cl
ENDBRANCH   6  10
BRANCH   6  13
HETATM   13  N3  UNL     1      24.259   3.497  50.480  1.00  0.00    -0.365 N 
HETATM   14  C8  UNL     1      23.456   2.856  49.451  1.00  0.00     0.151 C 
BRANCH  13  15
HETATM   15  C9  UNL     1      23.702   3.871  51.754  1.00  0.00     0.162 C 
BRANCH  15  16
HETATM   16  C10 UNL     1      22.726   2.862  52.272  1.00  0.00    -0.040 A 
HETATM   17  C11 UNL     1      23.299   1.723  52.810  1.00  0.00     0.009 A 
HETATM   18  C12 UNL     1      22.500   0.713  53.323  1.00  0.00     0.001 A 
HETATM   19  C13 UNL     1      21.131   0.859  53.289  1.00  0.00     0.000 A 
HETATM   20  C14 UNL     1      20.575   2.000  52.750  1.00  0.00     0.001 A 
HETATM   21  C15 UNL     1      21.358   3.033  52.226  1.00  0.00     0.009 A 
ENDBRANCH  15  16
ENDBRANCH  13  15
ENDBRANCH   6  13
BRANCH   8  22
HETATM   22  O2  UNL     1      29.268   5.789  47.834  1.00  0.00    -0.353 OA
HETATM   23  C18 UNL     1      30.246   6.271  48.751  1.00  0.00     0.210 C 
ENDBRANCH   8  22
BRANCH   1  24
HETATM   24  O1  UNL     1      27.671   8.039  47.269  1.00  0.00    -0.353 OA
HETATM   25  C1  UNL     1      27.994   9.276  47.834  1.00  0.00     0.210 C 
ENDBRANCH   1  24
TORSDOF 6
ENDMDL
