MODEL 1
REMARK VINA RESULT:      -7.6      0.000      0.000
REMARK  7 active torsions:
REMARK  status: ('A' for Active; 'I' for Inactive)
REMARK    1  A    between atoms: C2_2  and  C3_3 
REMARK    2  A    between atoms: C4_4  and  C5_5 
REMARK    3  A    between atoms: C6_6  and  C7_7 
REMARK    4  A    between atoms: C7_7  and  C8_8 
REMARK    5  A    between atoms: C8_8  and  N1_10 
REMARK    6  A    between atoms: N1_10  and  C10_11 
REMARK    7  A    between atoms: C13_17  and  C14_18 
ROOT
HETATM    1  C10 UNL     1      24.418   1.426  51.984  1.00  0.00     0.105 C 
HETATM    2  N2  UNL     1      23.400   0.857  52.480  1.00  0.00    -0.229 NA
HETATM    3  C11 UNL     1      23.122  -0.169  53.325  1.00  0.00     0.230 C 
HETATM    4  N3  UNL     1      23.823  -0.822  54.227  1.00  0.00    -0.263 NA
HETATM    5  C12 UNL     1      25.199  -0.316  54.322  1.00  0.00     0.272 C 
HETATM    6  N4  UNL     1      25.854  -0.932  53.154  1.00  0.00    -0.372 N 
HETATM    7  C13 UNL     1      27.133  -0.440  52.850  1.00  0.00     0.032 C 
HETATM    8  C17 UNL     1      26.800   0.680  52.255  1.00  0.00     0.010 C 
HETATM    9  C18 UNL     1      25.875   1.660  51.751  1.00  0.00     0.107 C 
HETATM   10  H20 UNL     1      25.761  -1.644  52.399  1.00  0.00     0.161 HD
ENDROOT
BRANCH   1  11
HETATM   11  N1  UNL     1      23.713   2.434  51.189  1.00  0.00    -0.373 N 
HETATM   12  H16 UNL     1      22.838   2.948  51.575  1.00  0.00     0.161 HD
BRANCH  11  13
HETATM   13  C8  UNL     1      24.057   2.877  49.837  1.00  0.00     0.082 C 
HETATM   14  C9  UNL     1      22.952   2.620  48.864  1.00  0.00     0.032 C 
BRANCH  13  15
HETATM   15  C7  UNL     1      24.332   4.355  49.881  1.00  0.00     0.051 C 
BRANCH  15  16
HETATM   16  C6  UNL     1      25.628   4.713  49.295  1.00  0.00    -0.025 C 
HETATM   17  C5  UNL     1      26.823   4.197  49.266  1.00  0.00    -0.004 C 
BRANCH  17  18
HETATM   18  C4  UNL     1      27.913   4.871  48.547  1.00  0.00    -0.004 C 
HETATM   19  C3  UNL     1      27.801   6.162  48.291  1.00  0.00    -0.027 C 
BRANCH  19  20
HETATM   20  C2  UNL     1      28.887   6.850  47.571  1.00  0.00     0.022 C 
HETATM   21  C1  UNL     1      30.243   6.404  48.075  1.00  0.00     0.009 C 
ENDBRANCH  19  20
ENDBRANCH  17  18
ENDBRANCH  15  16
ENDBRANCH  13  15
ENDBRANCH  11  13
ENDBRANCH   1  11
BRANCH   7  22
HETATM   22  C14 UNL     1      28.383  -1.068  53.146  1.00  0.00    -0.032 A 
HETATM   23  C15 UNL     1      29.658  -1.068  53.562  1.00  0.00    -0.013 A 
HETATM   24  C16 UNL     1      29.087  -2.328  53.155  1.00  0.00     0.068 A 
ENDBRANCH   7  22
TORSDOF 7
ENDMDL
MODEL 2
REMARK VINA RESULT:      -7.4      1.618      3.075
REMARK  7 active torsions:
REMARK  status: ('A' for Active; 'I' for Inactive)
REMARK    1  A    between atoms: C2_2  and  C3_3 
REMARK    2  A    between atoms: C4_4  and  C5_5 
REMARK    3  A    between atoms: C6_6  and  C7_7 
REMARK    4  A    between atoms: C7_7  and  C8_8 
REMARK    5  A    between atoms: C8_8  and  N1_10 
REMARK    6  A    between atoms: N1_10  and  C10_11 
REMARK    7  A    between atoms: C13_17  and  C14_18 
ROOT
HETATM    1  C10 UNL     1      23.868   0.396  53.054  1.00  0.00     0.105 C 
HETATM    2  N2  UNL     1      23.228  -0.311  53.889  1.00  0.00    -0.229 NA
HETATM    3  C11 UNL     1      23.495  -1.157  54.917  1.00  0.00     0.230 C 
HETATM    4  N3  UNL     1      24.550  -1.365  55.675  1.00  0.00    -0.263 NA
HETATM    5  C12 UNL     1      25.666  -0.483  55.313  1.00  0.00     0.272 C 
HETATM    6  N4  UNL     1      26.219  -1.134  54.112  1.00  0.00    -0.372 N 
HETATM    7  C13 UNL     1      27.166  -0.381  53.399  1.00  0.00     0.032 C 
HETATM    8  C17 UNL     1      26.362   0.435  52.763  1.00  0.00     0.010 C 
HETATM    9  C18 UNL     1      25.079   0.975  52.397  1.00  0.00     0.107 C 
HETATM   10  H20 UNL     1      26.207  -1.994  53.524  1.00  0.00     0.161 HD
ENDROOT
BRANCH   1  11
HETATM   11  N1  UNL     1      22.715   0.958  52.347  1.00  0.00    -0.373 N 
HETATM   12  H16 UNL     1      22.593   2.031  52.227  1.00  0.00     0.161 HD
BRANCH  11  13
HETATM   13  C8  UNL     1      21.618   0.209  51.731  1.00  0.00     0.082 C 
HETATM   14  C9  UNL     1      20.319   0.437  52.434  1.00  0.00     0.032 C 
BRANCH  13  15
HETATM   15  C7  UNL     1      21.484   0.659  50.303  1.00  0.00     0.051 C 
BRANCH  15  16
HETATM   16  C6  UNL     1      22.413   1.740  49.954  1.00  0.00    -0.025 C 
HETATM   17  C5  UNL     1      22.640   2.487  48.913  1.00  0.00    -0.004 C 
BRANCH  17  18
HETATM   18  C4  UNL     1      23.699   3.506  48.938  1.00  0.00    -0.004 C 
HETATM   19  C3  UNL     1      24.529   3.531  49.964  1.00  0.00    -0.027 C 
BRANCH  19  20
HETATM   20  C2  UNL     1      25.596   4.547  50.001  1.00  0.00     0.022 C 
HETATM   21  C1  UNL     1      26.820   4.080  49.243  1.00  0.00     0.009 C 
ENDBRANCH  19  20
ENDBRANCH  17  18
ENDBRANCH  15  16
ENDBRANCH  13  15
ENDBRANCH  11  13
ENDBRANCH   1  11
BRANCH   7  22
HETATM   22  C14 UNL     1      28.586  -0.546  53.427  1.00  0.00    -0.032 A 
HETATM   23  C15 UNL     1      29.847  -0.092  53.490  1.00  0.00    -0.013 A 
HETATM   24  C16 UNL     1      29.653  -1.519  53.395  1.00  0.00     0.068 A 
ENDBRANCH   7  22
TORSDOF 7
ENDMDL
MODEL 3
REMARK VINA RESULT:      -7.1      1.769      6.575
REMARK  7 active torsions:
REMARK  status: ('A' for Active; 'I' for Inactive)
REMARK    1  A    between atoms: C2_2  and  C3_3 
REMARK    2  A    between atoms: C4_4  and  C5_5 
REMARK    3  A    between atoms: C6_6  and  C7_7 
REMARK    4  A    between atoms: C7_7  and  C8_8 
REMARK    5  A    between atoms: C8_8  and  N1_10 
REMARK    6  A    between atoms: N1_10  and  C10_11 
REMARK    7  A    between atoms: C13_17  and  C14_18 
ROOT
HETATM    1  C10 UNL     1      24.518   3.127  50.903  1.00  0.00     0.105 C 
HETATM    2  N2  UNL     1      23.804   3.810  51.696  1.00  0.00    -0.229 NA
HETATM    3  C11 UNL     1      23.562   5.118  51.974  1.00  0.00     0.230 C 
HETATM    4  N3  UNL     1      23.757   6.240  51.316  1.00  0.00    -0.263 NA
HETATM    5  C12 UNL     1      24.370   6.003  50.002  1.00  0.00     0.272 C 
HETATM    6  N4  UNL     1      25.788   5.784  50.339  1.00  0.00    -0.372 N 
HETATM    7  C13 UNL     1      26.588   5.299  49.292  1.00  0.00     0.032 C 
HETATM    8  C17 UNL     1      26.237   4.037  49.315  1.00  0.00     0.010 C 
HETATM    9  C18 UNL     1      25.506   2.899  49.805  1.00  0.00     0.107 C 
HETATM   10  H20 UNL     1      26.508   5.849  51.088  1.00  0.00     0.161 HD
ENDROOT
BRANCH   1  11
HETATM   11  N1  UNL     1      24.097   1.798  51.353  1.00  0.00    -0.373 N 
HETATM   12  H16 UNL     1      24.723   0.924  51.197  1.00  0.00     0.161 HD
BRANCH  11  13
HETATM   13  C8  UNL     1      22.848   1.464  52.038  1.00  0.00     0.082 C 
HETATM   14  C9  UNL     1      21.865   0.808  51.124  1.00  0.00     0.032 C 
BRANCH  13  15
HETATM   15  C7  UNL     1      23.167   0.520  53.165  1.00  0.00     0.051 C 
BRANCH  15  16
HETATM   16  C6  UNL     1      24.608   0.323  53.355  1.00  0.00    -0.025 C 
HETATM   17  C5  UNL     1      25.384  -0.653  53.731  1.00  0.00    -0.004 C 
BRANCH  17  18
HETATM   18  C4  UNL     1      26.840  -0.468  53.801  1.00  0.00    -0.004 C 
HETATM   19  C3  UNL     1      27.348   0.701  53.455  1.00  0.00    -0.027 C 
BRANCH  19  20
HETATM   20  C2  UNL     1      28.807   0.899  53.521  1.00  0.00     0.022 C 
HETATM   21  C1  UNL     1      29.535  -0.426  53.587  1.00  0.00     0.009 C 
ENDBRANCH  19  20
ENDBRANCH  17  18
ENDBRANCH  15  16
ENDBRANCH  13  15
ENDBRANCH  11  13
ENDBRANCH   1  11
BRANCH   7  22
HETATM   22  C14 UNL     1      27.501   6.057  48.493  1.00  0.00    -0.032 A 
HETATM   23  C15 UNL     1      27.831   7.082  47.693  1.00  0.00    -0.013 A 
HETATM   24  C16 UNL     1      28.864   6.130  48.023  1.00  0.00     0.068 A 
ENDBRANCH   7  22
TORSDOF 7
ENDMDL
MODEL 4
REMARK VINA RESULT:      -7.1      3.125      4.782
REMARK  7 active torsions:
REMARK  status: ('A' for Active; 'I' for Inactive)
REMARK    1  A    between atoms: C2_2  and  C3_3 
REMARK    2  A    between atoms: C4_4  and  C5_5 
REMARK    3  A    between atoms: C6_6  and  C7_7 
REMARK    4  A    between atoms: C7_7  and  C8_8 
REMARK    5  A    between atoms: C8_8  and  N1_10 
REMARK    6  A    between atoms: N1_10  and  C10_11 
REMARK    7  A    between atoms: C13_17  and  C14_18 
ROOT
HETATM    1  C10 UNL     1      23.990   0.686  53.157  1.00  0.00     0.105 C 
HETATM    2  N2  UNL     1      23.940   1.864  52.693  1.00  0.00    -0.229 NA
HETATM    3  C11 UNL     1      24.785   2.777  52.149  1.00  0.00     0.230 C 
HETATM    4  N3  UNL     1      25.977   2.701  51.598  1.00  0.00    -0.263 NA
HETATM    5  C12 UNL     1      26.483   1.322  51.580  1.00  0.00     0.272 C 
HETATM    6  N4  UNL     1      26.950   1.128  52.964  1.00  0.00    -0.372 N 
HETATM    7  C13 UNL     1      27.277  -0.192  53.310  1.00  0.00     0.032 C 
HETATM    8  C17 UNL     1      26.073  -0.676  53.495  1.00  0.00     0.010 C 
HETATM    9  C18 UNL     1      24.637  -0.606  53.540  1.00  0.00     0.107 C 
HETATM   10  H20 UNL     1      27.162   1.600  53.868  1.00  0.00     0.161 HD
ENDROOT
BRANCH   1  11
HETATM   11  N1  UNL     1      22.574   0.549  53.504  1.00  0.00    -0.373 N 
HETATM   12  H16 UNL     1      22.085   1.254  54.171  1.00  0.00     0.161 HD
BRANCH  11  13
HETATM   13  C8  UNL     1      21.657  -0.491  53.037  1.00  0.00     0.082 C 
HETATM   14  C9  UNL     1      21.138  -1.328  54.161  1.00  0.00     0.032 C 
BRANCH  13  15
HETATM   15  C7  UNL     1      20.495   0.177  52.354  1.00  0.00     0.051 C 
BRANCH  15  16
HETATM   16  C6  UNL     1      20.877   0.857  51.111  1.00  0.00    -0.025 C 
HETATM   17  C5  UNL     1      21.483   0.529  50.007  1.00  0.00    -0.004 C 
BRANCH  17  18
HETATM   18  C4  UNL     1      21.691   1.522  48.943  1.00  0.00    -0.004 C 
HETATM   19  C3  UNL     1      22.424   2.588  49.206  1.00  0.00    -0.027 C 
BRANCH  19  20
HETATM   20  C2  UNL     1      22.641   3.591  48.148  1.00  0.00     0.022 C 
HETATM   21  C1  UNL     1      21.811   3.278  46.922  1.00  0.00     0.009 C 
ENDBRANCH  19  20
ENDBRANCH  17  18
ENDBRANCH  15  16
ENDBRANCH  13  15
ENDBRANCH  11  13
ENDBRANCH   1  11
BRANCH   7  22
HETATM   22  C14 UNL     1      28.592  -0.749  53.411  1.00  0.00    -0.032 A 
HETATM   23  C15 UNL     1      29.912  -0.676  53.636  1.00  0.00    -0.013 A 
HETATM   24  C16 UNL     1      29.360  -1.965  53.296  1.00  0.00     0.068 A 
ENDBRANCH   7  22
TORSDOF 7
ENDMDL
MODEL 5
REMARK VINA RESULT:      -6.9      1.821      3.843
REMARK  7 active torsions:
REMARK  status: ('A' for Active; 'I' for Inactive)
REMARK    1  A    between atoms: C2_2  and  C3_3 
REMARK    2  A    between atoms: C4_4  and  C5_5 
REMARK    3  A    between atoms: C6_6  and  C7_7 
REMARK    4  A    between atoms: C7_7  and  C8_8 
REMARK    5  A    between atoms: C8_8  and  N1_10 
REMARK    6  A    between atoms: N1_10  and  C10_11 
REMARK    7  A    between atoms: C13_17  and  C14_18 
ROOT
HETATM    1  C10 UNL     1      26.090   2.179  51.959  1.00  0.00     0.105 C 
HETATM    2  N2  UNL     1      27.222   1.819  52.399  1.00  0.00    -0.229 NA
HETATM    3  C11 UNL     1      27.747   0.821  53.157  1.00  0.00     0.230 C 
HETATM    4  N3  UNL     1      27.323  -0.373  53.510  1.00  0.00    -0.263 NA
HETATM    5  C12 UNL     1      25.996  -0.669  52.955  1.00  0.00     0.272 C 
HETATM    6  N4  UNL     1      25.095   0.077  53.852  1.00  0.00    -0.372 N 
HETATM    7  C13 UNL     1      23.761   0.171  53.424  1.00  0.00     0.032 C 
HETATM    8  C17 UNL     1      23.885   1.118  52.526  1.00  0.00     0.010 C 
HETATM    9  C18 UNL     1      24.612   2.091  51.754  1.00  0.00     0.107 C 
HETATM   10  H20 UNL     1      25.024   0.602  54.748  1.00  0.00     0.161 HD
ENDROOT
BRANCH   1  11
HETATM   11  N1  UNL     1      26.529   3.374  51.236  1.00  0.00    -0.373 N 
HETATM   12  H16 UNL     1      27.336   3.997  51.611  1.00  0.00     0.161 HD
BRANCH  11  13
HETATM   13  C8  UNL     1      25.984   3.882  49.976  1.00  0.00     0.082 C 
HETATM   14  C9  UNL     1      25.398   5.249  50.129  1.00  0.00     0.032 C 
BRANCH  13  15
HETATM   15  C7  UNL     1      27.100   3.942  48.970  1.00  0.00     0.051 C 
BRANCH  15  16
HETATM   16  C6  UNL     1      27.470   5.315  48.608  1.00  0.00    -0.025 C 
HETATM   17  C5  UNL     1      28.542   5.922  48.191  1.00  0.00    -0.004 C 
BRANCH  17  18
HETATM   18  C4  UNL     1      28.530   7.367  47.923  1.00  0.00    -0.004 C 
HETATM   19  C3  UNL     1      29.254   8.160  48.692  1.00  0.00    -0.027 C 
BRANCH  19  20
HETATM   20  C2  UNL     1      29.252   9.611  48.434  1.00  0.00     0.022 C 
HETATM   21  C1  UNL     1      28.089  10.286  49.130  1.00  0.00     0.009 C 
ENDBRANCH  19  20
ENDBRANCH  17  18
ENDBRANCH  15  16
ENDBRANCH  13  15
ENDBRANCH  11  13
ENDBRANCH   1  11
BRANCH   7  22
HETATM   22  C14 UNL     1      22.652  -0.595  53.905  1.00  0.00    -0.032 A 
HETATM   23  C15 UNL     1      21.362  -0.957  53.923  1.00  0.00    -0.013 A 
HETATM   24  C16 UNL     1      22.255  -1.618  54.843  1.00  0.00     0.068 A 
ENDBRANCH   7  22
TORSDOF 7
ENDMDL
MODEL 6
REMARK VINA RESULT:      -6.7      2.626      6.876
REMARK  7 active torsions:
REMARK  status: ('A' for Active; 'I' for Inactive)
REMARK    1  A    between atoms: C2_2  and  C3_3 
REMARK    2  A    between atoms: C4_4  and  C5_5 
REMARK    3  A    between atoms: C6_6  and  C7_7 
REMARK    4  A    between atoms: C7_7  and  C8_8 
REMARK    5  A    between atoms: C8_8  and  N1_10 
REMARK    6  A    between atoms: N1_10  and  C10_11 
REMARK    7  A    between atoms: C13_17  and  C14_18 
ROOT
HETATM    1  C10 UNL     1      22.597   1.568  51.424  1.00  0.00     0.105 C 
HETATM    2  N2  UNL     1      22.104   1.139  50.338  1.00  0.00    -0.229 NA
HETATM    3  C11 UNL     1      21.983   1.547  49.048  1.00  0.00     0.230 C 
HETATM    4  N3  UNL     1      22.601   2.448  48.315  1.00  0.00    -0.263 NA
HETATM    5  C12 UNL     1      23.641   3.152  49.077  1.00  0.00     0.272 C 
HETATM    6  N4  UNL     1      22.863   4.120  49.872  1.00  0.00    -0.372 N 
HETATM    7  C13 UNL     1      23.578   4.783  50.881  1.00  0.00     0.032 C 
HETATM    8  C17 UNL     1      23.605   3.839  51.789  1.00  0.00     0.010 C 
HETATM    9  C18 UNL     1      23.314   2.531  52.314  1.00  0.00     0.107 C 
HETATM   10  H20 UNL     1      21.929   4.559  50.007  1.00  0.00     0.161 HD
ENDROOT
BRANCH   1  11
HETATM   11  N1  UNL     1      22.238   0.426  52.268  1.00  0.00    -0.373 N 
HETATM   12  H16 UNL     1      21.900  -0.512  51.836  1.00  0.00     0.161 HD
BRANCH  11  13
HETATM   13  C8  UNL     1      22.275   0.375  53.730  1.00  0.00     0.082 C 
HETATM   14  C9  UNL     1      20.918   0.168  54.319  1.00  0.00     0.032 C 
BRANCH  13  15
HETATM   15  C7  UNL     1      23.161  -0.770  54.139  1.00  0.00     0.051 C 
BRANCH  15  16
HETATM   16  C6  UNL     1      24.574  -0.544  53.813  1.00  0.00    -0.025 C 
HETATM   17  C5  UNL     1      25.614  -0.057  54.424  1.00  0.00    -0.004 C 
BRANCH  17  18
HETATM   18  C4  UNL     1      26.918   0.009  53.748  1.00  0.00    -0.004 C 
HETATM   19  C3  UNL     1      27.998   0.230  54.475  1.00  0.00    -0.027 C 
BRANCH  19  20
HETATM   20  C2  UNL     1      29.312   0.298  53.810  1.00  0.00     0.022 C 
HETATM   21  C1  UNL     1      29.903  -1.084  53.631  1.00  0.00     0.009 C 
ENDBRANCH  19  20
ENDBRANCH  17  18
ENDBRANCH  15  16
ENDBRANCH  13  15
ENDBRANCH  11  13
ENDBRANCH   1  11
BRANCH   7  22
HETATM   22  C14 UNL     1      24.085   6.121  50.831  1.00  0.00    -0.032 A 
HETATM   23  C15 UNL     1      23.993   7.446  51.013  1.00  0.00    -0.013 A 
HETATM   24  C16 UNL     1      25.228   6.927  50.477  1.00  0.00     0.068 A 
ENDBRANCH   7  22
TORSDOF 7
ENDMDL
MODEL 7
REMARK VINA RESULT:      -6.5      2.781      6.375
REMARK  7 active torsions:
REMARK  status: ('A' for Active; 'I' for Inactive)
REMARK    1  A    between atoms: C2_2  and  C3_3 
REMARK    2  A    between atoms: C4_4  and  C5_5 
REMARK    3  A    between atoms: C6_6  and  C7_7 
REMARK    4  A    between atoms: C7_7  and  C8_8 
REMARK    5  A    between atoms: C8_8  and  N1_10 
REMARK    6  A    between atoms: N1_10  and  C10_11 
REMARK    7  A    between atoms: C13_17  and  C14_18 
ROOT
HETATM    1  C10 UNL     1      23.448   2.713  50.787  1.00  0.00     0.105 C 
HETATM    2  N2  UNL     1      23.807   3.799  50.243  1.00  0.00    -0.229 NA
HETATM    3  C11 UNL     1      24.951   4.505  50.043  1.00  0.00     0.230 C 
HETATM    4  N3  UNL     1      26.229   4.197  50.078  1.00  0.00    -0.263 NA
HETATM    5  C12 UNL     1      26.441   2.782  50.407  1.00  0.00     0.272 C 
HETATM    6  N4  UNL     1      26.245   2.754  51.868  1.00  0.00    -0.372 N 
HETATM    7  C13 UNL     1      26.157   1.475  52.440  1.00  0.00     0.032 C 
HETATM    8  C17 UNL     1      24.920   1.178  52.123  1.00  0.00     0.010 C 
HETATM    9  C18 UNL     1      23.634   1.429  51.528  1.00  0.00     0.107 C 
HETATM   10  H20 UNL     1      26.141   3.334  52.727  1.00  0.00     0.161 HD
ENDROOT
BRANCH   1  11
HETATM   11  N1  UNL     1      22.017   2.807  50.490  1.00  0.00    -0.373 N 
HETATM   12  H16 UNL     1      21.302   3.119  51.246  1.00  0.00     0.161 HD
BRANCH  11  13
HETATM   13  C8  UNL     1      21.369   2.513  49.211  1.00  0.00     0.082 C 
HETATM   14  C9  UNL     1      22.281   1.789  48.274  1.00  0.00     0.032 C 
BRANCH  13  15
HETATM   15  C7  UNL     1      20.166   1.651  49.480  1.00  0.00     0.051 C 
BRANCH  15  16
HETATM   16  C6  UNL     1      20.241   0.950  50.766  1.00  0.00    -0.025 C 
HETATM   17  C5  UNL     1      19.409   0.325  51.547  1.00  0.00    -0.004 C 
BRANCH  17  18
HETATM   18  C4  UNL     1      19.869  -0.275  52.807  1.00  0.00    -0.004 C 
HETATM   19  C3  UNL     1      20.794   0.356  53.509  1.00  0.00    -0.027 C 
BRANCH  19  20
HETATM   20  C2  UNL     1      21.265  -0.234  54.775  1.00  0.00     0.022 C 
HETATM   21  C1  UNL     1      21.737  -1.658  54.569  1.00  0.00     0.009 C 
ENDBRANCH  19  20
ENDBRANCH  17  18
ENDBRANCH  15  16
ENDBRANCH  13  15
ENDBRANCH  11  13
ENDBRANCH   1  11
BRANCH   7  22
HETATM   22  C14 UNL     1      27.187   0.786  53.155  1.00  0.00    -0.032 A 
HETATM   23  C15 UNL     1      28.306   0.052  53.236  1.00  0.00    -0.013 A 
HETATM   24  C16 UNL     1      27.670   0.443  54.471  1.00  0.00     0.068 A 
ENDBRANCH   7  22
TORSDOF 7
ENDMDL
MODEL 8
REMARK VINA RESULT:      -6.4      1.830      3.274
REMARK  7 active torsions:
REMARK  status: ('A' for Active; 'I' for Inactive)
REMARK    1  A    between atoms: C2_2  and  C3_3 
REMARK    2  A    between atoms: C4_4  and  C5_5 
REMARK    3  A    between atoms: C6_6  and  C7_7 
REMARK    4  A    between atoms: C7_7  and  C8_8 
REMARK    5  A    between atoms: C8_8  and  N1_10 
REMARK    6  A    between atoms: N1_10  and  C10_11 
REMARK    7  A    between atoms: C13_17  and  C14_18 
ROOT
HETATM    1  C10 UNL     1      25.051   3.945  50.037  1.00  0.00     0.105 C 
HETATM    2  N2  UNL     1      23.842   4.113  50.374  1.00  0.00    -0.229 NA
HETATM    3  C11 UNL     1      22.967   3.627  51.293  1.00  0.00     0.230 C 
HETATM    4  N3  UNL     1      23.105   2.974  52.426  1.00  0.00    -0.263 NA
HETATM    5  C12 UNL     1      24.518   2.730  52.747  1.00  0.00     0.272 C 
HETATM    6  N4  UNL     1      24.856   1.587  51.879  1.00  0.00    -0.372 N 
HETATM    7  C13 UNL     1      26.222   1.275  51.798  1.00  0.00     0.032 C 
HETATM    8  C17 UNL     1      26.611   2.209  50.965  1.00  0.00     0.010 C 
HETATM    9  C18 UNL     1      26.420   3.349  50.107  1.00  0.00     0.107 C 
HETATM   10  H20 UNL     1      24.474   0.848  51.253  1.00  0.00     0.161 HD
ENDROOT
BRANCH   1  11
HETATM   11  N1  UNL     1      25.089   4.920  48.945  1.00  0.00    -0.373 N 
HETATM   12  H16 UNL     1      25.150   4.605  47.907  1.00  0.00     0.161 HD
BRANCH  11  13
HETATM   13  C8  UNL     1      25.054   6.377  49.074  1.00  0.00     0.082 C 
HETATM   14  C9  UNL     1      25.340   6.824  50.472  1.00  0.00     0.032 C 
BRANCH  13  15
HETATM   15  C7  UNL     1      26.095   6.958  48.157  1.00  0.00     0.051 C 
BRANCH  15  16
HETATM   16  C6  UNL     1      27.398   6.296  48.282  1.00  0.00    -0.025 C 
HETATM   17  C5  UNL     1      28.634   6.591  47.999  1.00  0.00    -0.004 C 
BRANCH  17  18
HETATM   18  C4  UNL     1      29.716   5.635  48.279  1.00  0.00    -0.004 C 
HETATM   19  C3  UNL     1      30.792   5.656  47.515  1.00  0.00    -0.027 C 
BRANCH  19  20
HETATM   20  C2  UNL     1      31.885   4.704  47.785  1.00  0.00     0.022 C 
HETATM   21  C1  UNL     1      31.902   3.590  46.761  1.00  0.00     0.009 C 
ENDBRANCH  19  20
ENDBRANCH  17  18
ENDBRANCH  15  16
ENDBRANCH  13  15
ENDBRANCH  11  13
ENDBRANCH   1  11
BRANCH   7  22
HETATM   22  C14 UNL     1      26.897   0.209  52.473  1.00  0.00    -0.032 A 
HETATM   23  C15 UNL     1      27.874  -0.299  53.238  1.00  0.00    -0.013 A 
HETATM   24  C16 UNL     1      26.868  -1.208  52.746  1.00  0.00     0.068 A 
ENDBRANCH   7  22
TORSDOF 7
ENDMDL
MODEL 9
REMARK VINA RESULT:      -6.3      3.836      7.984
REMARK  7 active torsions:
REMARK  status: ('A' for Active; 'I' for Inactive)
REMARK    1  A    between atoms: C2_2  and  C3_3 
REMARK    2  A    between atoms: C4_4  and  C5_5 
REMARK    3  A    between atoms: C6_6  and  C7_7 
REMARK    4  A    between atoms: C7_7  and  C8_8 
REMARK    5  A    between atoms: C8_8  and  N1_10 
REMARK    6  A    between atoms: N1_10  and  C10_11 
REMARK    7  A    between atoms: C13_17  and  C14_18 
ROOT
HETATM    1  C10 UNL     1      25.994   5.534  49.713  1.00  0.00     0.105 C 
HETATM    2  N2  UNL     1      25.673   6.699  50.095  1.00  0.00    -0.229 NA
HETATM    3  C11 UNL     1      26.156   7.965  50.007  1.00  0.00     0.230 C 
HETATM    4  N3  UNL     1      27.027   8.554  49.216  1.00  0.00    -0.263 NA
HETATM    5  C12 UNL     1      27.583   7.624  48.226  1.00  0.00     0.272 C 
HETATM    6  N4  UNL     1      28.582   6.874  49.009  1.00  0.00    -0.372 N 
HETATM    7  C13 UNL     1      29.118   5.742  48.375  1.00  0.00     0.032 C 
HETATM    8  C17 UNL     1      28.130   4.900  48.557  1.00  0.00     0.010 C 
HETATM    9  C18 UNL     1      26.833   4.501  49.035  1.00  0.00     0.107 C 
HETATM   10  H20 UNL     1      29.105   6.831  49.908  1.00  0.00     0.161 HD
ENDROOT
BRANCH   1  11
HETATM   11  N1  UNL     1      24.852   4.817  50.286  1.00  0.00    -0.373 N 
HETATM   12  H16 UNL     1      24.968   4.165  51.147  1.00  0.00     0.161 HD
BRANCH  11  13
HETATM   13  C8  UNL     1      23.466   4.865  49.817  1.00  0.00     0.082 C 
HETATM   14  C9  UNL     1      23.203   3.860  48.743  1.00  0.00     0.032 C 
BRANCH  13  15
HETATM   15  C7  UNL     1      22.563   4.576  50.984  1.00  0.00     0.051 C 
BRANCH  15  16
HETATM   16  C6  UNL     1      22.751   3.228  51.532  1.00  0.00    -0.025 C 
HETATM   17  C5  UNL     1      22.014   2.352  52.150  1.00  0.00    -0.004 C 
BRANCH  17  18
HETATM   18  C4  UNL     1      22.573   1.056  52.560  1.00  0.00    -0.004 C 
HETATM   19  C3  UNL     1      22.095   0.474  53.645  1.00  0.00    -0.027 C 
BRANCH  19  20
HETATM   20  C2  UNL     1      22.646  -0.826  54.067  1.00  0.00     0.022 C 
HETATM   21  C1  UNL     1      21.541  -1.794  54.429  1.00  0.00     0.009 C 
ENDBRANCH  19  20
ENDBRANCH  17  18
ENDBRANCH  15  16
ENDBRANCH  13  15
ENDBRANCH  11  13
ENDBRANCH   1  11
BRANCH   7  22
HETATM   22  C14 UNL     1      30.399   5.641  47.745  1.00  0.00    -0.032 A 
HETATM   23  C15 UNL     1      31.503   4.980  47.369  1.00  0.00    -0.013 A 
HETATM   24  C16 UNL     1      31.403   6.374  47.011  1.00  0.00     0.068 A 
ENDBRANCH   7  22
TORSDOF 7
ENDMDL
