MODEL 1
REMARK VINA RESULT:      -7.1      0.000      0.000
REMARK  8 active torsions:
REMARK  status: ('A' for Active; 'I' for Inactive)
REMARK    1  A    between atoms: C2_2  and  C3_3 
REMARK    2  A    between atoms: C2_2  and  C6_7 
REMARK    3  A    between atoms: C3_3  and  N1_4 
REMARK    4  A    between atoms: C6_7  and  C7_9 
REMARK    5  A    between atoms: C9_12  and  O2_13 
REMARK    6  A    between atoms: O2_13  and  C10_14 
REMARK    7  A    between atoms: C10_14  and  C11_15 
REMARK    8  A    between atoms: C17_21  and  O3_22 
ROOT
HETATM    1  C7  UNL     1      24.326   1.644  52.505  1.00  0.00     0.013 A 
HETATM    2  C8  UNL     1      23.993   2.844  52.946  1.00  0.00     0.022 A 
HETATM    3  P1  UNL     1      23.423   4.528  52.645  1.00  0.00    -0.068 P 
HETATM    4  C9  UNL     1      23.151   4.458  50.569  1.00  0.00     0.206 A 
HETATM    5  C17 UNL     1      23.679   2.808  50.503  1.00  0.00     0.077 A 
HETATM    6  C18 UNL     1      24.106   1.735  51.081  1.00  0.00     0.050 A 
HETATM    7  H12 UNL     1      24.434   5.493  52.821  1.00  0.00     0.064 HD
ENDROOT
BRANCH   1   8
HETATM    8  C6  UNL     1      24.788   0.416  53.122  1.00  0.00     0.166 C 
HETATM    9  O1  UNL     1      23.857  -0.164  53.748  1.00  0.00    -0.292 OA
BRANCH   8  10
HETATM   10  C2  UNL     1      26.106  -0.282  53.165  1.00  0.00     0.039 C 
HETATM   11  C1  UNL     1      26.525  -1.390  52.521  1.00  0.00     0.064 C 
BRANCH  10  12
HETATM   12  C3  UNL     1      27.080   0.379  54.068  1.00  0.00     0.284 C 
BRANCH  12  13
HETATM   13  N1  UNL     1      28.219   0.901  53.367  1.00  0.00     0.080 N 
HETATM   14  C4  UNL     1      29.481   0.391  53.896  1.00  0.00     0.309 C 
HETATM   15  C5  UNL     1      28.226   2.350  53.324  1.00  0.00     0.309 C 
ENDBRANCH  12  13
ENDBRANCH  10  12
ENDBRANCH   8  10
ENDBRANCH   1   8
BRANCH   5  16
HETATM   16  O3  UNL     1      23.499   2.789  49.099  1.00  0.00    -0.362 OA
HETATM   17  H21 UNL     1      23.555   3.664  48.609  1.00  0.00     0.217 HD
ENDBRANCH   5  16
BRANCH   4  18
HETATM   18  O2  UNL     1      24.295   4.955  50.263  1.00  0.00    -0.370 OA
BRANCH  18  19
HETATM   19  C10 UNL     1      24.424   6.008  49.372  1.00  0.00     0.207 C 
BRANCH  19  20
HETATM   20  C11 UNL     1      25.856   6.004  48.923  1.00  0.00    -0.035 A 
HETATM   21  C12 UNL     1      26.614   4.827  49.052  1.00  0.00     0.009 A 
HETATM   22  C13 UNL     1      27.928   4.881  48.618  1.00  0.00     0.001 A 
HETATM   23  C14 UNL     1      28.441   6.036  48.095  1.00  0.00     0.000 A 
HETATM   24  C15 UNL     1      27.730   7.179  47.962  1.00  0.00     0.001 A 
HETATM   25  C16 UNL     1      26.416   7.154  48.386  1.00  0.00     0.009 A 
ENDBRANCH  19  20
ENDBRANCH  18  19
ENDBRANCH   4  18
TORSDOF 8
ENDMDL
MODEL 2
REMARK VINA RESULT:      -6.7      4.476      7.426
REMARK  8 active torsions:
REMARK  status: ('A' for Active; 'I' for Inactive)
REMARK    1  A    between atoms: C2_2  and  C3_3 
REMARK    2  A    between atoms: C2_2  and  C6_7 
REMARK    3  A    between atoms: C3_3  and  N1_4 
REMARK    4  A    between atoms: C6_7  and  C7_9 
REMARK    5  A    between atoms: C9_12  and  O2_13 
REMARK    6  A    between atoms: O2_13  and  C10_14 
REMARK    7  A    between atoms: C10_14  and  C11_15 
REMARK    8  A    between atoms: C17_21  and  O3_22 
ROOT
HETATM    1  C7  UNL     1      23.906   0.170  53.069  1.00  0.00     0.013 A 
HETATM    2  C8  UNL     1      22.980   1.024  52.669  1.00  0.00     0.022 A 
HETATM    3  P1  UNL     1      21.281   1.627  52.694  1.00  0.00    -0.068 P 
HETATM    4  C9  UNL     1      20.437   0.291  54.070  1.00  0.00     0.206 A 
HETATM    5  C17 UNL     1      21.947  -0.540  54.268  1.00  0.00     0.077 A 
HETATM    6  C18 UNL     1      23.199  -0.687  53.990  1.00  0.00     0.050 A 
HETATM    7  H12 UNL     1      20.584   1.365  51.498  1.00  0.00     0.064 HD
ENDROOT
BRANCH   1   8
HETATM    8  C6  UNL     1      25.318  -0.014  52.796  1.00  0.00     0.166 C 
HETATM    9  O1  UNL     1      25.713  -1.155  53.164  1.00  0.00    -0.292 OA
BRANCH   8  10
HETATM   10  C2  UNL     1      26.370   0.851  52.187  1.00  0.00     0.039 C 
HETATM   11  C1  UNL     1      26.263   1.842  51.279  1.00  0.00     0.064 C 
BRANCH  10  12
HETATM   12  C3  UNL     1      27.733   0.541  52.686  1.00  0.00     0.284 C 
BRANCH  12  13
HETATM   13  N1  UNL     1      28.020   1.173  53.942  1.00  0.00     0.080 N 
HETATM   14  C4  UNL     1      28.795   2.401  53.784  1.00  0.00     0.309 C 
HETATM   15  C5  UNL     1      28.664   0.274  54.879  1.00  0.00     0.309 C 
ENDBRANCH  12  13
ENDBRANCH  10  12
ENDBRANCH   8  10
ENDBRANCH   1   8
BRANCH   5  16
HETATM   16  O3  UNL     1      21.350  -1.438  55.185  1.00  0.00    -0.362 OA
HETATM   17  H21 UNL     1      21.003  -1.061  56.049  1.00  0.00     0.217 HD
ENDBRANCH   5  16
BRANCH   4  18
HETATM   18  O2  UNL     1      19.971  -0.528  53.198  1.00  0.00    -0.370 OA
BRANCH  18  19
HETATM   19  C10 UNL     1      18.761  -1.180  53.375  1.00  0.00     0.207 C 
BRANCH  19  20
HETATM   20  C11 UNL     1      17.870  -0.720  52.259  1.00  0.00    -0.035 A 
HETATM   21  C12 UNL     1      16.478  -0.883  52.378  1.00  0.00     0.009 A 
HETATM   22  C13 UNL     1      15.705  -0.438  51.318  1.00  0.00     0.001 A 
HETATM   23  C14 UNL     1      16.291   0.128  50.219  1.00  0.00     0.000 A 
HETATM   24  C15 UNL     1      17.627   0.294  50.084  1.00  0.00     0.001 A 
HETATM   25  C16 UNL     1      18.422  -0.141  51.126  1.00  0.00     0.009 A 
ENDBRANCH  19  20
ENDBRANCH  18  19
ENDBRANCH   4  18
TORSDOF 8
ENDMDL
MODEL 3
REMARK VINA RESULT:      -6.6      1.566      1.932
REMARK  8 active torsions:
REMARK  status: ('A' for Active; 'I' for Inactive)
REMARK    1  A    between atoms: C2_2  and  C3_3 
REMARK    2  A    between atoms: C2_2  and  C6_7 
REMARK    3  A    between atoms: C3_3  and  N1_4 
REMARK    4  A    between atoms: C6_7  and  C7_9 
REMARK    5  A    between atoms: C9_12  and  O2_13 
REMARK    6  A    between atoms: O2_13  and  C10_14 
REMARK    7  A    between atoms: C10_14  and  C11_15 
REMARK    8  A    between atoms: C17_21  and  O3_22 
ROOT
HETATM    1  C7  UNL     1      22.668   2.209  51.519  1.00  0.00     0.013 A 
HETATM    2  C8  UNL     1      22.466   3.440  51.954  1.00  0.00     0.022 A 
HETATM    3  P1  UNL     1      22.334   5.213  51.652  1.00  0.00    -0.068 P 
HETATM    4  C9  UNL     1      22.624   5.255  49.578  1.00  0.00     0.206 A 
HETATM    5  C17 UNL     1      22.822   3.533  49.518  1.00  0.00     0.077 A 
HETATM    6  C18 UNL     1      22.862   2.381  50.098  1.00  0.00     0.050 A 
HETATM    7  H12 UNL     1      23.427   5.942  52.162  1.00  0.00     0.064 HD
ENDROOT
BRANCH   1   8
HETATM    8  C6  UNL     1      22.701   0.896  52.133  1.00  0.00     0.166 C 
HETATM    9  O1  UNL     1      21.774   0.159  51.693  1.00  0.00    -0.292 OA
BRANCH   8  10
HETATM   10  C2  UNL     1      23.583   0.258  53.152  1.00  0.00     0.039 C 
HETATM   11  C1  UNL     1      23.341  -0.769  53.992  1.00  0.00     0.064 C 
BRANCH  10  12
HETATM   12  C3  UNL     1      24.930   0.877  53.219  1.00  0.00     0.284 C 
BRANCH  12  13
HETATM   13  N1  UNL     1      25.773   0.491  52.123  1.00  0.00     0.080 N 
HETATM   14  C4  UNL     1      26.785  -0.486  52.515  1.00  0.00     0.309 C 
HETATM   15  C5  UNL     1      26.383   1.631  51.466  1.00  0.00     0.309 C 
ENDBRANCH  12  13
ENDBRANCH  10  12
ENDBRANCH   8  10
ENDBRANCH   1   8
BRANCH   5  16
HETATM   16  O3  UNL     1      23.027   3.590  48.118  1.00  0.00    -0.362 OA
HETATM   17  H21 UNL     1      22.314   4.023  47.558  1.00  0.00     0.217 HD
ENDBRANCH   5  16
BRANCH   4  18
HETATM   18  O2  UNL     1      23.881   5.512  49.620  1.00  0.00    -0.370 OA
BRANCH  18  19
HETATM   19  C10 UNL     1      24.439   6.569  48.919  1.00  0.00     0.207 C 
BRANCH  19  20
HETATM   20  C11 UNL     1      25.876   6.205  48.685  1.00  0.00    -0.035 A 
HETATM   21  C12 UNL     1      26.334   4.931  49.066  1.00  0.00     0.009 A 
HETATM   22  C13 UNL     1      27.668   4.650  48.823  1.00  0.00     0.001 A 
HETATM   23  C14 UNL     1      28.481   5.583  48.239  1.00  0.00     0.000 A 
HETATM   24  C15 UNL     1      28.061   6.813  47.864  1.00  0.00     0.001 A 
HETATM   25  C16 UNL     1      26.734   7.121  48.095  1.00  0.00     0.009 A 
ENDBRANCH  19  20
ENDBRANCH  18  19
ENDBRANCH   4  18
TORSDOF 8
ENDMDL
MODEL 4
REMARK VINA RESULT:      -6.6      2.625      6.964
REMARK  8 active torsions:
REMARK  status: ('A' for Active; 'I' for Inactive)
REMARK    1  A    between atoms: C2_2  and  C3_3 
REMARK    2  A    between atoms: C2_2  and  C6_7 
REMARK    3  A    between atoms: C3_3  and  N1_4 
REMARK    4  A    between atoms: C6_7  and  C7_9 
REMARK    5  A    between atoms: C9_12  and  O2_13 
REMARK    6  A    between atoms: O2_13  and  C10_14 
REMARK    7  A    between atoms: C10_14  and  C11_15 
REMARK    8  A    between atoms: C17_21  and  O3_22 
ROOT
HETATM    1  C7  UNL     1      25.358   5.890  49.164  1.00  0.00     0.013 A 
HETATM    2  C8  UNL     1      24.564   4.874  48.878  1.00  0.00     0.022 A 
HETATM    3  P1  UNL     1      23.303   3.679  49.362  1.00  0.00    -0.068 P 
HETATM    4  C9  UNL     1      22.964   4.282  51.340  1.00  0.00     0.206 A 
HETATM    5  C17 UNL     1      24.152   5.540  51.215  1.00  0.00     0.077 A 
HETATM    6  C18 UNL     1      25.036   6.194  50.539  1.00  0.00     0.050 A 
HETATM    7  H12 UNL     1      23.803   2.368  49.489  1.00  0.00     0.064 HD
ENDROOT
BRANCH   1   8
HETATM    8  C6  UNL     1      26.344   6.661  48.431  1.00  0.00     0.166 C 
HETATM    9  O1  UNL     1      25.828   7.687  47.906  1.00  0.00    -0.292 OA
BRANCH   8  10
HETATM   10  C2  UNL     1      27.803   6.489  48.177  1.00  0.00     0.039 C 
HETATM   11  C1  UNL     1      28.594   5.409  48.341  1.00  0.00     0.064 C 
BRANCH  10  12
HETATM   12  C3  UNL     1      28.449   7.722  47.663  1.00  0.00     0.284 C 
BRANCH  12  13
HETATM   13  N1  UNL     1      29.404   8.273  48.584  1.00  0.00     0.080 N 
HETATM   14  C4  UNL     1      28.818   9.293  49.450  1.00  0.00     0.309 C 
HETATM   15  C5  UNL     1      30.587   8.780  47.917  1.00  0.00     0.309 C 
ENDBRANCH  12  13
ENDBRANCH  10  12
ENDBRANCH   8  10
ENDBRANCH   1   8
BRANCH   5  16
HETATM   16  O3  UNL     1      23.914   5.920  52.557  1.00  0.00    -0.362 OA
HETATM   17  H21 UNL     1      24.080   6.879  52.808  1.00  0.00     0.217 HD
ENDBRANCH   5  16
BRANCH   4  18
HETATM   18  O2  UNL     1      23.758   3.430  51.881  1.00  0.00    -0.370 OA
BRANCH  18  19
HETATM   19  C10 UNL     1      23.290   2.353  52.615  1.00  0.00     0.207 C 
BRANCH  19  20
HETATM   20  C11 UNL     1      24.394   1.337  52.619  1.00  0.00    -0.035 A 
HETATM   21  C12 UNL     1      24.253   0.171  53.393  1.00  0.00     0.009 A 
HETATM   22  C13 UNL     1      25.303  -0.733  53.355  1.00  0.00     0.001 A 
HETATM   23  C14 UNL     1      26.412  -0.480  52.596  1.00  0.00     0.000 A 
HETATM   24  C15 UNL     1      26.567   0.634  51.844  1.00  0.00     0.001 A 
HETATM   25  C16 UNL     1      25.536   1.553  51.863  1.00  0.00     0.009 A 
ENDBRANCH  19  20
ENDBRANCH  18  19
ENDBRANCH   4  18
TORSDOF 8
ENDMDL
MODEL 5
REMARK VINA RESULT:      -6.5      2.937      7.528
REMARK  8 active torsions:
REMARK  status: ('A' for Active; 'I' for Inactive)
REMARK    1  A    between atoms: C2_2  and  C3_3 
REMARK    2  A    between atoms: C2_2  and  C6_7 
REMARK    3  A    between atoms: C3_3  and  N1_4 
REMARK    4  A    between atoms: C6_7  and  C7_9 
REMARK    5  A    between atoms: C9_12  and  O2_13 
REMARK    6  A    between atoms: O2_13  and  C10_14 
REMARK    7  A    between atoms: C10_14  and  C11_15 
REMARK    8  A    between atoms: C17_21  and  O3_22 
ROOT
HETATM    1  C7  UNL     1      25.521   4.246  50.322  1.00  0.00     0.013 A 
HETATM    2  C8  UNL     1      24.573   4.175  51.240  1.00  0.00     0.022 A 
HETATM    3  P1  UNL     1      23.848   3.392  52.694  1.00  0.00    -0.068 P 
HETATM    4  C9  UNL     1      25.276   1.904  53.061  1.00  0.00     0.206 A 
HETATM    5  C17 UNL     1      26.220   2.399  51.693  1.00  0.00     0.077 A 
HETATM    6  C18 UNL     1      26.420   3.175  50.680  1.00  0.00     0.050 A 
HETATM    7  H12 UNL     1      22.673   2.670  52.404  1.00  0.00     0.064 HD
ENDROOT
BRANCH   1   8
HETATM    8  C6  UNL     1      25.788   5.110  49.188  1.00  0.00     0.166 C 
HETATM    9  O1  UNL     1      24.729   5.384  48.558  1.00  0.00    -0.292 OA
BRANCH   8  10
HETATM   10  C2  UNL     1      27.028   5.724  48.632  1.00  0.00     0.039 C 
HETATM   11  C1  UNL     1      28.244   5.184  48.412  1.00  0.00     0.064 C 
BRANCH  10  12
HETATM   12  C3  UNL     1      26.855   7.155  48.276  1.00  0.00     0.284 C 
BRANCH  12  13
HETATM   13  N1  UNL     1      27.371   8.042  49.279  1.00  0.00     0.080 N 
HETATM   14  C4  UNL     1      26.314   8.769  49.977  1.00  0.00     0.309 C 
HETATM   15  C5  UNL     1      28.364   8.957  48.750  1.00  0.00     0.309 C 
ENDBRANCH  12  13
ENDBRANCH  10  12
ENDBRANCH   8  10
ENDBRANCH   1   8
BRANCH   5  16
HETATM   16  O3  UNL     1      27.164   1.378  51.955  1.00  0.00    -0.362 OA
HETATM   17  H21 UNL     1      26.835   0.429  51.968  1.00  0.00     0.217 HD
ENDBRANCH   5  16
BRANCH   4  18
HETATM   18  O2  UNL     1      24.659   0.965  52.438  1.00  0.00    -0.370 OA
BRANCH  18  19
HETATM   19  C10 UNL     1      24.452  -0.281  53.007  1.00  0.00     0.207 C 
BRANCH  19  20
HETATM   20  C11 UNL     1      22.973  -0.401  53.227  1.00  0.00    -0.035 A 
HETATM   21  C12 UNL     1      22.090   0.090  52.249  1.00  0.00     0.009 A 
HETATM   22  C13 UNL     1      20.736  -0.051  52.505  1.00  0.00     0.001 A 
HETATM   23  C14 UNL     1      20.304  -0.642  53.660  1.00  0.00     0.000 A 
HETATM   24  C15 UNL     1      21.135  -1.122  54.613  1.00  0.00     0.001 A 
HETATM   25  C16 UNL     1      22.491  -0.994  54.384  1.00  0.00     0.009 A 
ENDBRANCH  19  20
ENDBRANCH  18  19
ENDBRANCH   4  18
TORSDOF 8
ENDMDL
MODEL 6
REMARK VINA RESULT:      -6.5      2.959      4.152
REMARK  8 active torsions:
REMARK  status: ('A' for Active; 'I' for Inactive)
REMARK    1  A    between atoms: C2_2  and  C3_3 
REMARK    2  A    between atoms: C2_2  and  C6_7 
REMARK    3  A    between atoms: C3_3  and  N1_4 
REMARK    4  A    between atoms: C6_7  and  C7_9 
REMARK    5  A    between atoms: C9_12  and  O2_13 
REMARK    6  A    between atoms: O2_13  and  C10_14 
REMARK    7  A    between atoms: C10_14  and  C11_15 
REMARK    8  A    between atoms: C17_21  and  O3_22 
ROOT
HETATM    1  C7  UNL     1      22.815   1.828  52.232  1.00  0.00     0.013 A 
HETATM    2  C8  UNL     1      22.480   3.089  52.443  1.00  0.00     0.022 A 
HETATM    3  P1  UNL     1      22.154   4.753  51.829  1.00  0.00    -0.068 P 
HETATM    4  C9  UNL     1      22.435   4.449  49.775  1.00  0.00     0.206 A 
HETATM    5  C17 UNL     1      22.820   2.776  50.023  1.00  0.00     0.077 A 
HETATM    6  C18 UNL     1      22.987   1.759  50.801  1.00  0.00     0.050 A 
HETATM    7  H12 UNL     1      23.161   5.676  52.175  1.00  0.00     0.064 HD
ENDROOT
BRANCH   1   8
HETATM    8  C6  UNL     1      22.991   0.660  53.073  1.00  0.00     0.166 C 
HETATM    9  O1  UNL     1      24.177   0.228  53.018  1.00  0.00    -0.292 OA
BRANCH   8  10
HETATM   10  C2  UNL     1      22.080  -0.114  53.964  1.00  0.00     0.039 C 
HETATM   11  C1  UNL     1      22.335  -1.170  54.764  1.00  0.00     0.064 C 
BRANCH  10  12
HETATM   12  C3  UNL     1      20.684   0.389  53.941  1.00  0.00     0.284 C 
BRANCH  12  13
HETATM   13  N1  UNL     1      19.909  -0.177  52.874  1.00  0.00     0.080 N 
HETATM   14  C4  UNL     1      19.442   0.832  51.928  1.00  0.00     0.309 C 
HETATM   15  C5  UNL     1      18.804  -0.981  53.359  1.00  0.00     0.309 C 
ENDBRANCH  12  13
ENDBRANCH  10  12
ENDBRANCH   8  10
ENDBRANCH   1   8
BRANCH   5  16
HETATM   16  O3  UNL     1      23.016   2.599  48.632  1.00  0.00    -0.362 OA
HETATM   17  H21 UNL     1      23.139   1.661  48.293  1.00  0.00     0.217 HD
ENDBRANCH   5  16
BRANCH   4  18
HETATM   18  O2  UNL     1      23.657   4.843  49.744  1.00  0.00    -0.370 OA
BRANCH  18  19
HETATM   19  C10 UNL     1      24.040   5.997  49.080  1.00  0.00     0.207 C 
BRANCH  19  20
HETATM   20  C11 UNL     1      25.512   5.865  48.824  1.00  0.00    -0.035 A 
HETATM   21  C12 UNL     1      26.223   6.965  48.312  1.00  0.00     0.009 A 
HETATM   22  C13 UNL     1      27.580   6.786  48.098  1.00  0.00     0.001 A 
HETATM   23  C14 UNL     1      28.176   5.587  48.378  1.00  0.00     0.000 A 
HETATM   24  C15 UNL     1      27.512   4.517  48.872  1.00  0.00     0.001 A 
HETATM   25  C16 UNL     1      26.157   4.668  49.095  1.00  0.00     0.009 A 
ENDBRANCH  19  20
ENDBRANCH  18  19
ENDBRANCH   4  18
TORSDOF 8
ENDMDL
MODEL 7
REMARK VINA RESULT:      -6.2      3.047      7.105
REMARK  8 active torsions:
REMARK  status: ('A' for Active; 'I' for Inactive)
REMARK    1  A    between atoms: C2_2  and  C3_3 
REMARK    2  A    between atoms: C2_2  and  C6_7 
REMARK    3  A    between atoms: C3_3  and  N1_4 
REMARK    4  A    between atoms: C6_7  and  C7_9 
REMARK    5  A    between atoms: C9_12  and  O2_13 
REMARK    6  A    between atoms: O2_13  and  C10_14 
REMARK    7  A    between atoms: C10_14  and  C11_15 
REMARK    8  A    between atoms: C17_21  and  O3_22 
ROOT
HETATM    1  C7  UNL     1      25.964   6.921  49.030  1.00  0.00     0.013 A 
HETATM    2  C8  UNL     1      24.849   6.458  48.492  1.00  0.00     0.022 A 
HETATM    3  P1  UNL     1      23.147   5.886  48.650  1.00  0.00    -0.068 P 
HETATM    4  C9  UNL     1      22.865   6.135  50.711  1.00  0.00     0.206 A 
HETATM    5  C17 UNL     1      24.486   6.718  50.915  1.00  0.00     0.077 A 
HETATM    6  C18 UNL     1      25.641   7.034  50.432  1.00  0.00     0.050 A 
HETATM    7  H12 UNL     1      23.011   4.498  48.455  1.00  0.00     0.064 HD
ENDROOT
BRANCH   1   8
HETATM    8  C6  UNL     1      27.267   7.304  48.521  1.00  0.00     0.166 C 
HETATM    9  O1  UNL     1      27.398   8.560  48.488  1.00  0.00    -0.292 OA
BRANCH   8  10
HETATM   10  C2  UNL     1      28.451   6.535  48.041  1.00  0.00     0.039 C 
HETATM   11  C1  UNL     1      28.765   5.233  48.199  1.00  0.00     0.064 C 
BRANCH  10  12
HETATM   12  C3  UNL     1      29.409   7.367  47.272  1.00  0.00     0.284 C 
BRANCH  12  13
HETATM   13  N1  UNL     1      30.740   7.319  47.807  1.00  0.00     0.080 N 
HETATM   14  C4  UNL     1      30.939   8.274  48.893  1.00  0.00     0.309 C 
HETATM   15  C5  UNL     1      31.754   7.482  46.783  1.00  0.00     0.309 C 
ENDBRANCH  12  13
ENDBRANCH  10  12
ENDBRANCH   8  10
ENDBRANCH   1   8
BRANCH   5  16
HETATM   16  O3  UNL     1      24.275   6.866  52.307  1.00  0.00    -0.362 OA
HETATM   17  H21 UNL     1      23.839   6.105  52.797  1.00  0.00     0.217 HD
ENDBRANCH   5  16
BRANCH   4  18
HETATM   18  O2  UNL     1      23.140   4.923  51.035  1.00  0.00    -0.370 OA
BRANCH  18  19
HETATM   19  C10 UNL     1      22.285   4.158  51.811  1.00  0.00     0.207 C 
BRANCH  19  20
HETATM   20  C11 UNL     1      23.086   2.978  52.279  1.00  0.00    -0.035 A 
HETATM   21  C12 UNL     1      22.561   1.683  52.119  1.00  0.00     0.009 A 
HETATM   22  C13 UNL     1      23.345   0.633  52.567  1.00  0.00     0.001 A 
HETATM   23  C14 UNL     1      24.567   0.870  53.134  1.00  0.00     0.000 A 
HETATM   24  C15 UNL     1      25.091   2.106  53.297  1.00  0.00     0.001 A 
HETATM   25  C16 UNL     1      24.330   3.173  52.860  1.00  0.00     0.009 A 
ENDBRANCH  19  20
ENDBRANCH  18  19
ENDBRANCH   4  18
TORSDOF 8
ENDMDL
MODEL 8
REMARK VINA RESULT:      -6.2      5.168      7.585
REMARK  8 active torsions:
REMARK  status: ('A' for Active; 'I' for Inactive)
REMARK    1  A    between atoms: C2_2  and  C3_3 
REMARK    2  A    between atoms: C2_2  and  C6_7 
REMARK    3  A    between atoms: C3_3  and  N1_4 
REMARK    4  A    between atoms: C6_7  and  C7_9 
REMARK    5  A    between atoms: C9_12  and  O2_13 
REMARK    6  A    between atoms: O2_13  and  C10_14 
REMARK    7  A    between atoms: C10_14  and  C11_15 
REMARK    8  A    between atoms: C17_21  and  O3_22 
ROOT
HETATM    1  C7  UNL     1      20.429   0.378  52.088  1.00  0.00     0.013 A 
HETATM    2  C8  UNL     1      21.366  -0.245  52.782  1.00  0.00     0.022 A 
HETATM    3  P1  UNL     1      23.013  -0.287  53.515  1.00  0.00    -0.068 P 
HETATM    4  C9  UNL     1      23.695   1.625  52.997  1.00  0.00     0.206 A 
HETATM    5  C17 UNL     1      22.212   1.989  52.175  1.00  0.00     0.077 A 
HETATM    6  C18 UNL     1      21.025   1.659  51.790  1.00  0.00     0.050 A 
HETATM    7  H12 UNL     1      23.895  -1.155  52.841  1.00  0.00     0.064 HD
ENDROOT
BRANCH   1   8
HETATM    8  C6  UNL     1      19.085   0.049  51.656  1.00  0.00     0.166 C 
HETATM    9  O1  UNL     1      18.844   0.514  50.506  1.00  0.00    -0.292 OA
BRANCH   8  10
HETATM   10  C2  UNL     1      17.959  -0.705  52.278  1.00  0.00     0.039 C 
HETATM   11  C1  UNL     1      17.963  -1.598  53.289  1.00  0.00     0.064 C 
BRANCH  10  12
HETATM   12  C3  UNL     1      16.645  -0.396  51.661  1.00  0.00     0.284 C 
BRANCH  12  13
HETATM   13  N1  UNL     1      15.949   0.660  52.340  1.00  0.00     0.080 N 
HETATM   14  C4  UNL     1      14.708   0.201  52.959  1.00  0.00     0.309 C 
HETATM   15  C5  UNL     1      15.707   1.804  51.483  1.00  0.00     0.309 C 
ENDBRANCH  12  13
ENDBRANCH  10  12
ENDBRANCH   8  10
ENDBRANCH   1   8
BRANCH   5  16
HETATM   16  O3  UNL     1      22.700   3.271  51.827  1.00  0.00    -0.362 OA
HETATM   17  H21 UNL     1      23.047   3.856  52.566  1.00  0.00     0.217 HD
ENDBRANCH   5  16
BRANCH   4  18
HETATM   18  O2  UNL     1      24.326   1.264  51.937  1.00  0.00    -0.370 OA
BRANCH  18  19
HETATM   19  C10 UNL     1      25.552   1.806  51.591  1.00  0.00     0.207 C 
BRANCH  19  20
HETATM   20  C11 UNL     1      26.589   0.992  52.309  1.00  0.00    -0.035 A 
HETATM   21  C12 UNL     1      26.582  -0.407  52.168  1.00  0.00     0.009 A 
HETATM   22  C13 UNL     1      27.564  -1.107  52.851  1.00  0.00     0.001 A 
HETATM   23  C14 UNL     1      28.483  -0.446  53.619  1.00  0.00     0.000 A 
HETATM   24  C15 UNL     1      28.507   0.899  53.767  1.00  0.00     0.001 A 
HETATM   25  C16 UNL     1      27.539   1.622  53.097  1.00  0.00     0.009 A 
ENDBRANCH  19  20
ENDBRANCH  18  19
ENDBRANCH   4  18
TORSDOF 8
ENDMDL
MODEL 9
REMARK VINA RESULT:      -6.2      3.221      7.208
REMARK  8 active torsions:
REMARK  status: ('A' for Active; 'I' for Inactive)
REMARK    1  A    between atoms: C2_2  and  C3_3 
REMARK    2  A    between atoms: C2_2  and  C6_7 
REMARK    3  A    between atoms: C3_3  and  N1_4 
REMARK    4  A    between atoms: C6_7  and  C7_9 
REMARK    5  A    between atoms: C9_12  and  O2_13 
REMARK    6  A    between atoms: O2_13  and  C10_14 
REMARK    7  A    between atoms: C10_14  and  C11_15 
REMARK    8  A    between atoms: C17_21  and  O3_22 
ROOT
HETATM    1  C7  UNL     1      24.955   4.426  49.698  1.00  0.00     0.013 A 
HETATM    2  C8  UNL     1      24.064   3.576  49.218  1.00  0.00     0.022 A 
HETATM    3  P1  UNL     1      22.435   2.804  49.280  1.00  0.00    -0.068 P 
HETATM    4  C9  UNL     1      21.605   3.826  50.909  1.00  0.00     0.206 A 
HETATM    5  C17 UNL     1      23.059   4.742  51.142  1.00  0.00     0.077 A 
HETATM    6  C18 UNL     1      24.268   5.045  50.806  1.00  0.00     0.050 A 
HETATM    7  H12 UNL     1      22.476   1.462  49.707  1.00  0.00     0.064 HD
ENDROOT
BRANCH   1   8
HETATM    8  C6  UNL     1      26.307   4.807  49.337  1.00  0.00     0.166 C 
HETATM    9  O1  UNL     1      27.089   3.816  49.373  1.00  0.00    -0.292 OA
BRANCH   8  10
HETATM   10  C2  UNL     1      26.942   6.097  48.944  1.00  0.00     0.039 C 
HETATM   11  C1  UNL     1      26.538   7.366  49.155  1.00  0.00     0.064 C 
BRANCH  10  12
HETATM   12  C3  UNL     1      28.218   5.913  48.209  1.00  0.00     0.284 C 
BRANCH  12  13
HETATM   13  N1  UNL     1      28.941   7.141  48.037  1.00  0.00     0.080 N 
HETATM   14  C4  UNL     1      29.013   7.554  46.638  1.00  0.00     0.309 C 
HETATM   15  C5  UNL     1      30.263   7.092  48.630  1.00  0.00     0.309 C 
ENDBRANCH  12  13
ENDBRANCH  10  12
ENDBRANCH   8  10
ENDBRANCH   1   8
BRANCH   5  16
HETATM   16  O3  UNL     1      22.479   5.410  52.247  1.00  0.00    -0.362 OA
HETATM   17  H21 UNL     1      22.286   6.391  52.152  1.00  0.00     0.217 HD
ENDBRANCH   5  16
BRANCH   4  18
HETATM   18  O2  UNL     1      21.890   2.936  51.790  1.00  0.00    -0.370 OA
BRANCH  18  19
HETATM   19  C10 UNL     1      20.908   2.230  52.466  1.00  0.00     0.207 C 
BRANCH  19  20
HETATM   20  C11 UNL     1      21.603   1.081  53.136  1.00  0.00    -0.035 A 
HETATM   21  C12 UNL     1      22.905   0.736  52.733  1.00  0.00     0.009 A 
HETATM   22  C13 UNL     1      23.498  -0.331  53.389  1.00  0.00     0.001 A 
HETATM   23  C14 UNL     1      22.828  -1.000  54.376  1.00  0.00     0.000 A 
HETATM   24  C15 UNL     1      21.576  -0.684  54.779  1.00  0.00     0.001 A 
HETATM   25  C16 UNL     1      20.960   0.376  54.142  1.00  0.00     0.009 A 
ENDBRANCH  19  20
ENDBRANCH  18  19
ENDBRANCH   4  18
TORSDOF 8
ENDMDL
