MODEL 1
REMARK VINA RESULT:      -8.2      0.000      0.000
REMARK  4 active torsions:
REMARK  status: ('A' for Active; 'I' for Inactive)
REMARK    1  A    between atoms: C3_3  and  O1_4 
REMARK    2  A    between atoms: O1_4  and  C4_5 
REMARK    3  A    between atoms: C7_8  and  C8_9 
REMARK    4  A    between atoms: C17_21  and  O2_22 
ROOT
HETATM    1  C1  UNL     1      29.806  -1.032  53.680  1.00  0.00     0.014 C 
HETATM    2  C2  UNL     1      29.439   0.124  53.677  1.00  0.00    -0.091 C 
HETATM    3  C3  UNL     1      28.991   1.518  53.649  1.00  0.00     0.268 C 
ENDROOT
BRANCH   3   4
HETATM    4  O1  UNL     1      27.719   1.632  54.201  1.00  0.00    -0.337 OA
BRANCH   4   5
HETATM    5  C4  UNL     1      26.534   1.442  53.538  1.00  0.00     0.104 A 
HETATM    6  C5  UNL     1      26.061   2.217  52.499  1.00  0.00     0.055 A 
HETATM    7  C6  UNL     1      24.847   1.898  51.930  1.00  0.00     0.025 A 
HETATM    8  C7  UNL     1      24.478   2.745  50.911  1.00  0.00     0.081 A 
HETATM    9  C15 UNL     1      24.039   0.850  52.314  1.00  0.00     0.073 A 
HETATM   10  N1  UNL     1      23.287   2.494  50.314  1.00  0.00    -0.240 NA
HETATM   11  C14 UNL     1      22.480   1.487  50.663  1.00  0.00     0.234 A 
HETATM   12  N2  UNL     1      22.878   0.669  51.673  1.00  0.00    -0.241 NA
HETATM   13  C16 UNL     1      24.512   0.077  53.352  1.00  0.00     0.072 A 
HETATM   14  C17 UNL     1      25.736   0.369  53.950  1.00  0.00     0.103 A 
BRANCH   8  15
HETATM   15  C8  UNL     1      25.152   3.900  50.341  1.00  0.00    -0.005 A 
HETATM   16  C9  UNL     1      26.263   3.630  49.534  1.00  0.00     0.014 A 
HETATM   17  C10 UNL     1      27.053   4.569  48.914  1.00  0.00     0.003 A 
HETATM   18  C11 UNL     1      26.725   5.888  49.101  1.00  0.00     0.024 A 
HETATM   19  C12 UNL     1      25.649   6.211  49.879  1.00  0.00     0.035 A 
HETATM   20 CL1  UNL     1      25.152   7.876  50.176  1.00  0.00    -0.084 Cl
HETATM   21  C13 UNL     1      24.880   5.242  50.486  1.00  0.00     0.037 A 
ENDBRANCH   8  15
BRANCH  14  22
HETATM   22  O2  UNL     1      26.164  -0.441  54.987  1.00  0.00    -0.353 OA
HETATM   23  C18 UNL     1      25.199  -0.912  55.909  1.00  0.00     0.210 C 
ENDBRANCH  14  22
ENDBRANCH   4   5
ENDBRANCH   3   4
TORSDOF 4
ENDMDL
MODEL 2
REMARK VINA RESULT:      -8.1      2.928      5.827
REMARK  4 active torsions:
REMARK  status: ('A' for Active; 'I' for Inactive)
REMARK    1  A    between atoms: C3_3  and  O1_4 
REMARK    2  A    between atoms: O1_4  and  C4_5 
REMARK    3  A    between atoms: C7_8  and  C8_9 
REMARK    4  A    between atoms: C17_21  and  O2_22 
ROOT
HETATM    1  C1  UNL     1      27.145   5.922  48.584  1.00  0.00     0.014 C 
HETATM    2  C2  UNL     1      26.829   4.825  48.993  1.00  0.00    -0.091 C 
HETATM    3  C3  UNL     1      26.455   3.505  49.508  1.00  0.00     0.268 C 
ENDROOT
BRANCH   3   4
HETATM    4  O1  UNL     1      25.098   3.466  49.809  1.00  0.00    -0.337 OA
BRANCH   4   5
HETATM    5  C4  UNL     1      24.492   2.598  50.680  1.00  0.00     0.104 A 
HETATM    6  C5  UNL     1      25.140   1.788  51.589  1.00  0.00     0.055 A 
HETATM    7  C6  UNL     1      24.391   0.965  52.402  1.00  0.00     0.025 A 
HETATM    8  C7  UNL     1      25.147   0.201  53.260  1.00  0.00     0.081 A 
HETATM    9  C15 UNL     1      23.016   0.873  52.389  1.00  0.00     0.073 A 
HETATM   10  N1  UNL     1      24.471  -0.639  54.082  1.00  0.00    -0.240 NA
HETATM   11  C14 UNL     1      23.139  -0.752  54.093  1.00  0.00     0.234 A 
HETATM   12  N2  UNL     1      22.424   0.019  53.233  1.00  0.00    -0.241 NA
HETATM   13  C16 UNL     1      22.369   1.682  51.481  1.00  0.00     0.072 A 
HETATM   14  C17 UNL     1      23.095   2.527  50.644  1.00  0.00     0.103 A 
BRANCH   8  15
HETATM   15  C8  UNL     1      26.587   0.126  53.451  1.00  0.00    -0.005 A 
HETATM   16  C9  UNL     1      27.200  -1.067  53.055  1.00  0.00     0.014 A 
HETATM   17  C10 UNL     1      28.541  -1.355  53.162  1.00  0.00     0.003 A 
HETATM   18  C11 UNL     1      29.349  -0.388  53.705  1.00  0.00     0.024 A 
HETATM   19  C12 UNL     1      28.804   0.798  54.108  1.00  0.00     0.035 A 
HETATM   20 CL1  UNL     1      29.763   2.097  54.816  1.00  0.00    -0.084 Cl
HETATM   21  C13 UNL     1      27.455   1.052  53.986  1.00  0.00     0.037 A 
ENDBRANCH   8  15
BRANCH  14  22
HETATM   22  O2  UNL     1      22.395   3.318  49.750  1.00  0.00    -0.353 OA
HETATM   23  C18 UNL     1      21.624   4.387  50.266  1.00  0.00     0.210 C 
ENDBRANCH  14  22
ENDBRANCH   4   5
ENDBRANCH   3   4
TORSDOF 4
ENDMDL
MODEL 3
REMARK VINA RESULT:      -8.0      3.324      5.925
REMARK  4 active torsions:
REMARK  status: ('A' for Active; 'I' for Inactive)
REMARK    1  A    between atoms: C3_3  and  O1_4 
REMARK    2  A    between atoms: O1_4  and  C4_5 
REMARK    3  A    between atoms: C7_8  and  C8_9 
REMARK    4  A    between atoms: C17_21  and  O2_22 
ROOT
HETATM    1  C1  UNL     1      26.664   3.508  49.545  1.00  0.00     0.014 C 
HETATM    2  C2  UNL     1      25.459   3.370  49.533  1.00  0.00    -0.091 C 
HETATM    3  C3  UNL     1      24.007   3.178  49.521  1.00  0.00     0.268 C 
ENDROOT
BRANCH   3   4
HETATM    4  O1  UNL     1      23.471   3.436  50.779  1.00  0.00    -0.337 OA
BRANCH   4   5
HETATM    5  C4  UNL     1      23.044   2.493  51.679  1.00  0.00     0.104 A 
HETATM    6  C5  UNL     1      23.851   1.589  52.339  1.00  0.00     0.055 A 
HETATM    7  C6  UNL     1      23.273   0.700  53.219  1.00  0.00     0.025 A 
HETATM    8  C7  UNL     1      24.174  -0.155  53.809  1.00  0.00     0.081 A 
HETATM    9  C15 UNL     1      21.927   0.627  53.507  1.00  0.00     0.073 A 
HETATM   10  N1  UNL     1      23.669  -1.064  54.680  1.00  0.00    -0.240 NA
HETATM   11  C14 UNL     1      22.370  -1.160  54.979  1.00  0.00     0.234 A 
HETATM   12  N2  UNL     1      21.508  -0.298  54.378  1.00  0.00    -0.241 NA
HETATM   13  C16 UNL     1      21.123   1.530  52.847  1.00  0.00     0.072 A 
HETATM   14  C17 UNL     1      21.673   2.445  51.951  1.00  0.00     0.103 A 
BRANCH   8  15
HETATM   15  C8  UNL     1      25.616  -0.267  53.663  1.00  0.00    -0.005 A 
HETATM   16  C9  UNL     1      26.077  -1.340  52.892  1.00  0.00     0.014 A 
HETATM   17  C10 UNL     1      27.396  -1.641  52.642  1.00  0.00     0.003 A 
HETATM   18  C11 UNL     1      28.344  -0.819  53.195  1.00  0.00     0.024 A 
HETATM   19  C12 UNL     1      27.951   0.245  53.958  1.00  0.00     0.035 A 
HETATM   20 CL1  UNL     1      29.096   1.355  54.709  1.00  0.00    -0.084 Cl
HETATM   21  C13 UNL     1      26.620   0.517  54.189  1.00  0.00     0.037 A 
ENDBRANCH   8  15
BRANCH  14  22
HETATM   22  O2  UNL     1      20.819   3.329  51.316  1.00  0.00    -0.353 OA
HETATM   23  C18 UNL     1      19.452   3.319  51.682  1.00  0.00     0.210 C 
ENDBRANCH  14  22
ENDBRANCH   4   5
ENDBRANCH   3   4
TORSDOF 4
ENDMDL
MODEL 4
REMARK VINA RESULT:      -8.0      2.768      4.971
REMARK  4 active torsions:
REMARK  status: ('A' for Active; 'I' for Inactive)
REMARK    1  A    between atoms: C3_3  and  O1_4 
REMARK    2  A    between atoms: O1_4  and  C4_5 
REMARK    3  A    between atoms: C7_8  and  C8_9 
REMARK    4  A    between atoms: C17_21  and  O2_22 
ROOT
HETATM    1  C1  UNL     1      21.912  -1.404  54.773  1.00  0.00     0.014 C 
HETATM    2  C2  UNL     1      23.040  -1.263  55.195  1.00  0.00    -0.091 C 
HETATM    3  C3  UNL     1      24.403  -1.115  55.713  1.00  0.00     0.268 C 
ENDROOT
BRANCH   3   4
HETATM    4  O1  UNL     1      25.332  -1.250  54.686  1.00  0.00    -0.337 OA
BRANCH   4   5
HETATM    5  C4  UNL     1      25.687  -0.274  53.791  1.00  0.00     0.104 A 
HETATM    6  C5  UNL     1      24.816   0.568  53.131  1.00  0.00     0.055 A 
HETATM    7  C6  UNL     1      25.326   1.503  52.258  1.00  0.00     0.025 A 
HETATM    8  C7  UNL     1      24.362   2.278  51.655  1.00  0.00     0.081 A 
HETATM    9  C15 UNL     1      26.663   1.680  51.974  1.00  0.00     0.073 A 
HETATM   10  N1  UNL     1      24.797   3.213  50.775  1.00  0.00    -0.240 NA
HETATM   11  C14 UNL     1      26.086   3.409  50.478  1.00  0.00     0.234 A 
HETATM   12  N2  UNL     1      27.011   2.627  51.093  1.00  0.00    -0.241 NA
HETATM   13  C16 UNL     1      27.533   0.840  52.634  1.00  0.00     0.072 A 
HETATM   14  C17 UNL     1      27.052  -0.117  53.525  1.00  0.00     0.103 A 
BRANCH   8  15
HETATM   15  C8  UNL     1      22.915   2.274  51.792  1.00  0.00    -0.005 A 
HETATM   16  C9  UNL     1      22.324   3.497  52.128  1.00  0.00     0.014 A 
HETATM   17  C10 UNL     1      20.980   3.712  52.324  1.00  0.00     0.003 A 
HETATM   18  C11 UNL     1      20.143   2.635  52.177  1.00  0.00     0.024 A 
HETATM   19  C12 UNL     1      20.666   1.416  51.848  1.00  0.00     0.035 A 
HETATM   20 CL1  UNL     1      19.669  -0.023  51.637  1.00  0.00    -0.084 Cl
HETATM   21  C13 UNL     1      22.019   1.237  51.660  1.00  0.00     0.037 A 
ENDBRANCH   8  15
BRANCH  14  22
HETATM   22  O2  UNL     1      27.969  -0.935  54.160  1.00  0.00    -0.353 OA
HETATM   23  C18 UNL     1      29.325  -0.853  53.764  1.00  0.00     0.210 C 
ENDBRANCH  14  22
ENDBRANCH   4   5
ENDBRANCH   3   4
TORSDOF 4
ENDMDL
MODEL 5
REMARK VINA RESULT:      -7.9      2.568      5.372
REMARK  4 active torsions:
REMARK  status: ('A' for Active; 'I' for Inactive)
REMARK    1  A    between atoms: C3_3  and  O1_4 
REMARK    2  A    between atoms: O1_4  and  C4_5 
REMARK    3  A    between atoms: C7_8  and  C8_9 
REMARK    4  A    between atoms: C17_21  and  O2_22 
ROOT
HETATM    1  C1  UNL     1      27.125   5.009  48.883  1.00  0.00     0.014 C 
HETATM    2  C2  UNL     1      26.797   3.950  49.374  1.00  0.00    -0.091 C 
HETATM    3  C3  UNL     1      26.418   2.659  49.954  1.00  0.00     0.268 C 
ENDROOT
BRANCH   3   4
HETATM    4  O1  UNL     1      26.911   2.545  51.250  1.00  0.00    -0.337 OA
BRANCH   4   5
HETATM    5  C4  UNL     1      26.453   1.680  52.211  1.00  0.00     0.104 A 
HETATM    6  C5  UNL     1      25.145   1.268  52.364  1.00  0.00     0.055 A 
HETATM    7  C6  UNL     1      24.838   0.391  53.382  1.00  0.00     0.025 A 
HETATM    8  C7  UNL     1      23.504   0.059  53.439  1.00  0.00     0.081 A 
HETATM    9  C15 UNL     1      25.741  -0.126  54.286  1.00  0.00     0.073 A 
HETATM   10  N1  UNL     1      23.132  -0.794  54.425  1.00  0.00    -0.240 NA
HETATM   11  C14 UNL     1      23.983  -1.311  55.318  1.00  0.00     0.234 A 
HETATM   12  N2  UNL     1      25.293  -0.962  55.230  1.00  0.00    -0.241 NA
HETATM   13  C16 UNL     1      27.046   0.287  54.132  1.00  0.00     0.072 A 
HETATM   14  C17 UNL     1      27.393   1.172  53.114  1.00  0.00     0.103 A 
BRANCH   8  15
HETATM   15  C8  UNL     1      22.384   0.472  52.610  1.00  0.00    -0.005 A 
HETATM   16  C9  UNL     1      21.207   0.813  53.286  1.00  0.00     0.014 A 
HETATM   17  C10 UNL     1      20.030   1.211  52.698  1.00  0.00     0.003 A 
HETATM   18  C11 UNL     1      20.003   1.281  51.329  1.00  0.00     0.024 A 
HETATM   19  C12 UNL     1      21.124   0.961  50.616  1.00  0.00     0.035 A 
HETATM   20 CL1  UNL     1      21.185   1.022  48.855  1.00  0.00    -0.084 Cl
HETATM   21  C13 UNL     1      22.288   0.564  51.239  1.00  0.00     0.037 A 
ENDBRANCH   8  15
BRANCH  14  22
HETATM   22  O2  UNL     1      28.719   1.553  53.005  1.00  0.00    -0.353 OA
HETATM   23  C18 UNL     1      29.698   0.753  53.640  1.00  0.00     0.210 C 
ENDBRANCH  14  22
ENDBRANCH   4   5
ENDBRANCH   3   4
TORSDOF 4
ENDMDL
MODEL 6
REMARK VINA RESULT:      -7.7      3.593      6.084
REMARK  4 active torsions:
REMARK  status: ('A' for Active; 'I' for Inactive)
REMARK    1  A    between atoms: C3_3  and  O1_4 
REMARK    2  A    between atoms: O1_4  and  C4_5 
REMARK    3  A    between atoms: C7_8  and  C8_9 
REMARK    4  A    between atoms: C17_21  and  O2_22 
ROOT
HETATM    1  C1  UNL     1      21.257  -1.973  54.214  1.00  0.00     0.014 C 
HETATM    2  C2  UNL     1      21.502  -0.796  54.053  1.00  0.00    -0.091 C 
HETATM    3  C3  UNL     1      21.821   0.621  53.858  1.00  0.00     0.268 C 
ENDROOT
BRANCH   3   4
HETATM    4  O1  UNL     1      21.675   0.974  52.520  1.00  0.00    -0.337 OA
BRANCH   4   5
HETATM    5  C4  UNL     1      22.558   1.721  51.785  1.00  0.00     0.104 A 
HETATM    6  C5  UNL     1      23.933   1.619  51.833  1.00  0.00     0.055 A 
HETATM    7  C6  UNL     1      24.691   2.443  51.029  1.00  0.00     0.025 A 
HETATM    8  C7  UNL     1      26.046   2.254  51.170  1.00  0.00     0.081 A 
HETATM    9  C15 UNL     1      24.188   3.386  50.159  1.00  0.00     0.073 A 
HETATM   10  N1  UNL     1      26.850   3.041  50.413  1.00  0.00    -0.240 NA
HETATM   11  C14 UNL     1      26.395   3.965  49.562  1.00  0.00     0.234 A 
HETATM   12  N2  UNL     1      25.050   4.123  49.447  1.00  0.00    -0.241 NA
HETATM   13  C16 UNL     1      22.815   3.487  50.112  1.00  0.00     0.072 A 
HETATM   14  C17 UNL     1      22.018   2.670  50.909  1.00  0.00     0.103 A 
BRANCH   8  15
HETATM   15  C8  UNL     1      26.797   1.337  52.011  1.00  0.00    -0.005 A 
HETATM   16  C9  UNL     1      27.650   1.922  52.953  1.00  0.00     0.014 A 
HETATM   17  C10 UNL     1      28.461   1.243  53.833  1.00  0.00     0.003 A 
HETATM   18  C11 UNL     1      28.434  -0.127  53.783  1.00  0.00     0.024 A 
HETATM   19  C12 UNL     1      27.619  -0.753  52.882  1.00  0.00     0.035 A 
HETATM   20 CL1  UNL     1      27.516  -2.507  52.746  1.00  0.00    -0.084 Cl
HETATM   21  C13 UNL     1      26.819  -0.040  52.015  1.00  0.00     0.037 A 
ENDBRANCH   8  15
BRANCH  14  22
HETATM   22  O2  UNL     1      20.644   2.814  50.822  1.00  0.00    -0.353 OA
HETATM   23  C18 UNL     1      20.054   3.961  51.404  1.00  0.00     0.210 C 
ENDBRANCH  14  22
ENDBRANCH   4   5
ENDBRANCH   3   4
TORSDOF 4
ENDMDL
MODEL 7
REMARK VINA RESULT:      -7.4      2.479      4.700
REMARK  4 active torsions:
REMARK  status: ('A' for Active; 'I' for Inactive)
REMARK    1  A    between atoms: C3_3  and  O1_4 
REMARK    2  A    between atoms: O1_4  and  C4_5 
REMARK    3  A    between atoms: C7_8  and  C8_9 
REMARK    4  A    between atoms: C17_21  and  O2_22 
ROOT
HETATM    1  C1  UNL     1      20.661   0.188  54.449  1.00  0.00     0.014 C 
HETATM    2  C2  UNL     1      21.668  -0.374  54.076  1.00  0.00    -0.091 C 
HETATM    3  C3  UNL     1      22.881  -1.046  53.602  1.00  0.00     0.268 C 
ENDROOT
BRANCH   3   4
HETATM    4  O1  UNL     1      24.010  -0.304  53.935  1.00  0.00    -0.337 OA
BRANCH   4   5
HETATM    5  C4  UNL     1      24.683   0.552  53.103  1.00  0.00     0.104 A 
HETATM    6  C5  UNL     1      24.120   1.291  52.082  1.00  0.00     0.055 A 
HETATM    7  C6  UNL     1      24.930   2.112  51.329  1.00  0.00     0.025 A 
HETATM    8  C7  UNL     1      24.258   2.791  50.339  1.00  0.00     0.081 A 
HETATM    9  C15 UNL     1      26.289   2.266  51.503  1.00  0.00     0.073 A 
HETATM   10  N1  UNL     1      25.000   3.610  49.553  1.00  0.00    -0.240 NA
HETATM   11  C14 UNL     1      26.318   3.780  49.696  1.00  0.00     0.234 A 
HETATM   12  N2  UNL     1      26.949   3.095  50.685  1.00  0.00    -0.241 NA
HETATM   13  C16 UNL     1      26.850   1.528  52.522  1.00  0.00     0.072 A 
HETATM   14  C17 UNL     1      26.061   0.688  53.305  1.00  0.00     0.103 A 
BRANCH   8  15
HETATM   15  C8  UNL     1      22.853   2.788  49.968  1.00  0.00    -0.005 A 
HETATM   16  C9  UNL     1      22.489   1.920  48.932  1.00  0.00     0.014 A 
HETATM   17  C10 UNL     1      21.223   1.773  48.415  1.00  0.00     0.003 A 
HETATM   18  C11 UNL     1      20.228   2.543  48.961  1.00  0.00     0.024 A 
HETATM   19  C12 UNL     1      20.526   3.408  49.976  1.00  0.00     0.035 A 
HETATM   20 CL1  UNL     1      19.314   4.437  50.739  1.00  0.00    -0.084 Cl
HETATM   21  C13 UNL     1      21.806   3.530  50.470  1.00  0.00     0.037 A 
ENDBRANCH   8  15
BRANCH  14  22
HETATM   22  O2  UNL     1      26.677  -0.030  54.315  1.00  0.00    -0.353 OA
HETATM   23  C18 UNL     1      28.045   0.221  54.575  1.00  0.00     0.210 C 
ENDBRANCH  14  22
ENDBRANCH   4   5
ENDBRANCH   3   4
TORSDOF 4
ENDMDL
MODEL 8
REMARK VINA RESULT:      -7.2      3.622      7.073
REMARK  4 active torsions:
REMARK  status: ('A' for Active; 'I' for Inactive)
REMARK    1  A    between atoms: C3_3  and  O1_4 
REMARK    2  A    between atoms: O1_4  and  C4_5 
REMARK    3  A    between atoms: C7_8  and  C8_9 
REMARK    4  A    between atoms: C17_21  and  O2_22 
ROOT
HETATM    1  C1  UNL     1      21.103   7.106  50.235  1.00  0.00     0.014 C 
HETATM    2  C2  UNL     1      21.509   6.018  50.584  1.00  0.00    -0.091 C 
HETATM    3  C3  UNL     1      21.983   4.692  50.990  1.00  0.00     0.268 C 
ENDROOT
BRANCH   3   4
HETATM    4  O1  UNL     1      23.189   4.394  50.364  1.00  0.00    -0.337 OA
BRANCH   4   5
HETATM    5  C4  UNL     1      24.111   3.473  50.792  1.00  0.00     0.104 A 
HETATM    6  C5  UNL     1      23.832   2.335  51.520  1.00  0.00     0.055 A 
HETATM    7  C6  UNL     1      24.871   1.503  51.878  1.00  0.00     0.025 A 
HETATM    8  C7  UNL     1      24.471   0.406  52.607  1.00  0.00     0.081 A 
HETATM    9  C15 UNL     1      26.198   1.709  51.570  1.00  0.00     0.073 A 
HETATM   10  N1  UNL     1      25.447  -0.450  53.000  1.00  0.00    -0.240 NA
HETATM   11  C14 UNL     1      26.742  -0.277  52.718  1.00  0.00     0.234 A 
HETATM   12  N2  UNL     1      27.100   0.816  51.996  1.00  0.00    -0.241 NA
HETATM   13  C16 UNL     1      26.475   2.846  50.843  1.00  0.00     0.072 A 
HETATM   14  C17 UNL     1      25.450   3.710  50.463  1.00  0.00     0.103 A 
BRANCH   8  15
HETATM   15  C8  UNL     1      23.151  -0.015  53.048  1.00  0.00    -0.005 A 
HETATM   16  C9  UNL     1      23.096  -0.688  54.273  1.00  0.00     0.014 A 
HETATM   17  C10 UNL     1      21.958  -1.186  54.864  1.00  0.00     0.003 A 
HETATM   18  C11 UNL     1      20.773  -1.008  54.197  1.00  0.00     0.024 A 
HETATM   19  C12 UNL     1      20.768  -0.356  52.996  1.00  0.00     0.035 A 
HETATM   20 CL1  UNL     1      19.295  -0.081  52.066  1.00  0.00    -0.084 Cl
HETATM   21  C13 UNL     1      21.928   0.129  52.432  1.00  0.00     0.037 A 
ENDBRANCH   8  15
BRANCH  14  22
HETATM   22  O2  UNL     1      25.785   4.837  49.734  1.00  0.00    -0.353 OA
HETATM   23  C18 UNL     1      26.976   4.810  48.971  1.00  0.00     0.210 C 
ENDBRANCH  14  22
ENDBRANCH   4   5
ENDBRANCH   3   4
TORSDOF 4
ENDMDL
MODEL 9
REMARK VINA RESULT:      -7.1      2.728      4.778
REMARK  4 active torsions:
REMARK  status: ('A' for Active; 'I' for Inactive)
REMARK    1  A    between atoms: C3_3  and  O1_4 
REMARK    2  A    between atoms: O1_4  and  C4_5 
REMARK    3  A    between atoms: C7_8  and  C8_9 
REMARK    4  A    between atoms: C17_21  and  O2_22 
ROOT
HETATM    1  C1  UNL     1      20.740   1.063  49.670  1.00  0.00     0.014 C 
HETATM    2  C2  UNL     1      20.366   1.172  50.819  1.00  0.00    -0.091 C 
HETATM    3  C3  UNL     1      19.915   1.280  52.209  1.00  0.00     0.268 C 
ENDROOT
BRANCH   3   4
HETATM    4  O1  UNL     1      20.962   1.684  53.030  1.00  0.00    -0.337 OA
BRANCH   4   5
HETATM    5  C4  UNL     1      22.220   1.139  53.057  1.00  0.00     0.104 A 
HETATM    6  C5  UNL     1      23.309   1.595  52.342  1.00  0.00     0.055 A 
HETATM    7  C6  UNL     1      24.514   0.939  52.474  1.00  0.00     0.025 A 
HETATM    8  C7  UNL     1      25.521   1.479  51.709  1.00  0.00     0.081 A 
HETATM    9  C15 UNL     1      24.738  -0.160  53.275  1.00  0.00     0.073 A 
HETATM   10  N1  UNL     1      26.732   0.875  51.785  1.00  0.00    -0.240 NA
HETATM   11  C14 UNL     1      26.981  -0.193  52.550  1.00  0.00     0.234 A 
HETATM   12  N2  UNL     1      25.963  -0.698  53.294  1.00  0.00    -0.241 NA
HETATM   13  C16 UNL     1      23.650  -0.614  53.987  1.00  0.00     0.072 A 
HETATM   14  C17 UNL     1      22.416   0.024  53.879  1.00  0.00     0.103 A 
BRANCH   8  15
HETATM   15  C8  UNL     1      25.523   2.616  50.802  1.00  0.00    -0.005 A 
HETATM   16  C9  UNL     1      24.270   3.149  50.478  1.00  0.00     0.014 A 
HETATM   17  C10 UNL     1      24.043   4.207  49.629  1.00  0.00     0.003 A 
HETATM   18  C11 UNL     1      25.139   4.793  49.048  1.00  0.00     0.024 A 
HETATM   19  C12 UNL     1      26.387   4.314  49.329  1.00  0.00     0.035 A 
HETATM   20 CL1  UNL     1      27.853   5.002  48.631  1.00  0.00    -0.084 Cl
HETATM   21  C13 UNL     1      26.578   3.250  50.184  1.00  0.00     0.037 A 
ENDBRANCH   8  15
BRANCH  14  22
HETATM   22  O2  UNL     1      21.358  -0.473  54.618  1.00  0.00    -0.353 OA
HETATM   23  C18 UNL     1      20.853  -1.753  54.284  1.00  0.00     0.210 C 
ENDBRANCH  14  22
ENDBRANCH   4   5
ENDBRANCH   3   4
TORSDOF 4
ENDMDL
