MODEL 1
REMARK VINA RESULT:      -8.5      0.000      0.000
REMARK  7 active torsions:
REMARK  status: ('A' for Active; 'I' for Inactive)
REMARK    1  A    between atoms: O1_2  and  C2_3 
REMARK    2  A    between atoms: C6_9  and  N3_10 
REMARK    3  A    between atoms: N3_10  and  C7_11 
REMARK    4  A    between atoms: C14_20  and  C15_21 
REMARK    5  A    between atoms: C15_21  and  C16_22 
REMARK    6  A    between atoms: C16_22  and  C17_23 
REMARK    7  A    between atoms: C17_23  and  N4_24 
ROOT
HETATM    1  C2  UNL     1      21.603   1.024  52.735  1.00  0.00     0.075 C 
HETATM    2  C3  UNL     1      20.486   1.652  52.324  1.00  0.00     0.056 C 
HETATM    3  C4  UNL     1      20.287   3.047  51.876  1.00  0.00     0.121 C 
HETATM    4  N1  UNL     1      20.969   4.166  51.858  1.00  0.00    -0.241 NA
HETATM    5  C5  UNL     1      22.288   4.493  52.307  1.00  0.00     0.179 A 
HETATM    6  N2  UNL     1      23.427   4.899  52.788  1.00  0.00    -0.226 NA
HETATM    7  C6  UNL     1      23.538   3.753  51.937  1.00  0.00     0.210 A 
HETATM    8  C13 UNL     1      23.651   2.440  52.571  1.00  0.00     0.046 C 
HETATM    9  C14 UNL     1      23.043   1.335  52.938  1.00  0.00    -0.024 C 
ENDROOT
BRANCH   7  10
HETATM   10  N3  UNL     1      23.843   3.883  50.528  1.00  0.00    -0.352 N 
HETATM   11  H6  UNL     1      23.063   3.517  49.914  1.00  0.00     0.163 HD
BRANCH  10  12
HETATM   12  C7  UNL     1      24.969   4.402  49.871  1.00  0.00     0.032 A 
HETATM   13  C8  UNL     1      26.170   3.755  49.677  1.00  0.00     0.032 A 
HETATM   14  C9  UNL     1      27.261   4.285  49.028  1.00  0.00     0.046 A 
HETATM   15  C10 UNL     1      27.163   5.550  48.531  1.00  0.00     0.138 A 
HETATM   16  F1  UNL     1      28.194   6.120  47.888  1.00  0.00    -0.204 F 
HETATM   17  C11 UNL     1      25.996   6.233  48.696  1.00  0.00     0.074 A 
HETATM   18 CL1  UNL     1      25.873   7.859  48.056  1.00  0.00    -0.081 Cl
HETATM   19  C12 UNL     1      24.946   5.670  49.343  1.00  0.00     0.056 A 
ENDBRANCH  10  12
ENDBRANCH   7  10
BRANCH   9  20
HETATM   20  C15 UNL     1      23.606   0.213  53.648  1.00  0.00     0.043 C 
BRANCH  20  21
HETATM   21  C16 UNL     1      24.809  -0.484  53.151  1.00  0.00     0.035 C 
BRANCH  21  22
HETATM   22  C17 UNL     1      26.049  -0.056  53.827  1.00  0.00     0.273 C 
BRANCH  22  23
HETATM   23  N4  UNL     1      27.165   0.236  52.985  1.00  0.00     0.092 N 
HETATM   24  C18 UNL     1      27.318   1.660  52.754  1.00  0.00     0.298 C 
HETATM   25  C19 UNL     1      28.480   2.173  53.579  1.00  0.00     0.198 C 
HETATM   26  O2  UNL     1      28.554   1.524  54.814  1.00  0.00    -0.388 OA
HETATM   27  C20 UNL     1      28.904   0.184  54.668  1.00  0.00     0.198 C 
HETATM   28  C21 UNL     1      28.403  -0.338  53.331  1.00  0.00     0.298 C 
ENDBRANCH  22  23
ENDBRANCH  21  22
ENDBRANCH  20  21
ENDBRANCH   9  20
BRANCH   1  29
HETATM   29  O1  UNL     1      21.230  -0.297  53.045  1.00  0.00    -0.355 OA
HETATM   30  C1  UNL     1      19.946  -0.635  53.505  1.00  0.00     0.210 C 
ENDBRANCH   1  29
TORSDOF 7
ENDMDL
MODEL 2
REMARK VINA RESULT:      -8.2      4.579      7.492
REMARK  7 active torsions:
REMARK  status: ('A' for Active; 'I' for Inactive)
REMARK    1  A    between atoms: O1_2  and  C2_3 
REMARK    2  A    between atoms: C6_9  and  N3_10 
REMARK    3  A    between atoms: N3_10  and  C7_11 
REMARK    4  A    between atoms: C14_20  and  C15_21 
REMARK    5  A    between atoms: C15_21  and  C16_22 
REMARK    6  A    between atoms: C16_22  and  C17_23 
REMARK    7  A    between atoms: C17_23  and  N4_24 
ROOT
HETATM    1  C2  UNL     1      26.005   6.942  49.718  1.00  0.00     0.075 C 
HETATM    2  C3  UNL     1      24.966   7.382  50.453  1.00  0.00     0.056 C 
HETATM    3  C4  UNL     1      23.888   6.627  51.127  1.00  0.00     0.121 C 
HETATM    4  N1  UNL     1      23.433   5.398  51.149  1.00  0.00    -0.241 NA
HETATM    5  C5  UNL     1      23.845   4.209  50.466  1.00  0.00     0.179 A 
HETATM    6  N2  UNL     1      24.083   3.115  49.804  1.00  0.00    -0.226 NA
HETATM    7  C6  UNL     1      25.242   3.667  50.438  1.00  0.00     0.210 A 
HETATM    8  C13 UNL     1      26.161   4.453  49.616  1.00  0.00     0.046 C 
HETATM    9  C14 UNL     1      26.562   5.648  49.243  1.00  0.00    -0.024 C 
ENDROOT
BRANCH   7  10
HETATM   10  N3  UNL     1      25.673   3.222  51.746  1.00  0.00    -0.352 N 
HETATM   11  H6  UNL     1      25.423   3.914  52.507  1.00  0.00     0.163 HD
BRANCH  10  12
HETATM   12  C7  UNL     1      26.345   2.059  52.152  1.00  0.00     0.032 A 
HETATM   13  C8  UNL     1      26.049   0.770  51.768  1.00  0.00     0.032 A 
HETATM   14  C9  UNL     1      26.724  -0.356  52.179  1.00  0.00     0.046 A 
HETATM   15  C10 UNL     1      27.771  -0.201  53.037  1.00  0.00     0.138 A 
HETATM   16  F1  UNL     1      28.468  -1.262  53.473  1.00  0.00    -0.204 F 
HETATM   17  C11 UNL     1      28.105   1.054  53.448  1.00  0.00     0.074 A 
HETATM   18 CL1  UNL     1      29.453   1.250  54.550  1.00  0.00    -0.081 Cl
HETATM   19  C12 UNL     1      27.411   2.135  53.015  1.00  0.00     0.056 A 
ENDBRANCH  10  12
ENDBRANCH   7  10
BRANCH   9  20
HETATM   20  C15 UNL     1      27.579   5.973  48.273  1.00  0.00     0.043 C 
BRANCH  20  21
HETATM   21  C16 UNL     1      28.905   5.327  48.307  1.00  0.00     0.035 C 
BRANCH  21  22
HETATM   22  C17 UNL     1      30.022   6.289  48.216  1.00  0.00     0.273 C 
BRANCH  22  23
HETATM   23  N4  UNL     1      31.170   6.008  49.016  1.00  0.00     0.092 N 
HETATM   24  C18 UNL     1      32.116   5.146  48.332  1.00  0.00     0.298 C 
HETATM   25  C19 UNL     1      33.295   5.975  47.869  1.00  0.00     0.198 C 
HETATM   26  O2  UNL     1      32.894   7.248  47.460  1.00  0.00    -0.388 OA
HETATM   27  C20 UNL     1      32.440   8.011  48.533  1.00  0.00     0.198 C 
HETATM   28  C21 UNL     1      31.839   7.104  49.594  1.00  0.00     0.298 C 
ENDBRANCH  22  23
ENDBRANCH  21  22
ENDBRANCH  20  21
ENDBRANCH   9  20
BRANCH   1  29
HETATM   29  O1  UNL     1      26.724   8.083  49.316  1.00  0.00    -0.355 OA
HETATM   30  C1  UNL     1      27.156   9.066  50.223  1.00  0.00     0.210 C 
ENDBRANCH   1  29
TORSDOF 7
ENDMDL
MODEL 3
REMARK VINA RESULT:      -8.0      4.642      7.557
REMARK  7 active torsions:
REMARK  status: ('A' for Active; 'I' for Inactive)
REMARK    1  A    between atoms: O1_2  and  C2_3 
REMARK    2  A    between atoms: C6_9  and  N3_10 
REMARK    3  A    between atoms: N3_10  and  C7_11 
REMARK    4  A    between atoms: C14_20  and  C15_21 
REMARK    5  A    between atoms: C15_21  and  C16_22 
REMARK    6  A    between atoms: C16_22  and  C17_23 
REMARK    7  A    between atoms: C17_23  and  N4_24 
ROOT
HETATM    1  C2  UNL     1      26.195   7.260  49.644  1.00  0.00     0.075 C 
HETATM    2  C3  UNL     1      25.233   7.867  50.363  1.00  0.00     0.056 C 
HETATM    3  C4  UNL     1      24.003   7.312  50.969  1.00  0.00     0.121 C 
HETATM    4  N1  UNL     1      23.319   6.194  50.923  1.00  0.00    -0.241 NA
HETATM    5  C5  UNL     1      23.522   4.974  50.204  1.00  0.00     0.179 A 
HETATM    6  N2  UNL     1      23.571   3.879  49.504  1.00  0.00    -0.226 NA
HETATM    7  C6  UNL     1      24.788   4.172  50.198  1.00  0.00     0.210 A 
HETATM    8  C13 UNL     1      25.873   4.794  49.441  1.00  0.00     0.046 C 
HETATM    9  C14 UNL     1      26.511   5.901  49.133  1.00  0.00    -0.024 C 
ENDROOT
BRANCH   7  10
HETATM   10  N3  UNL     1      25.071   3.606  51.499  1.00  0.00    -0.352 N 
HETATM   11  H6  UNL     1      25.014   4.327  52.272  1.00  0.00     0.163 HD
BRANCH  10  12
HETATM   12  C7  UNL     1      25.398   2.296  51.887  1.00  0.00     0.032 A 
HETATM   13  C8  UNL     1      26.584   1.643  51.634  1.00  0.00     0.032 A 
HETATM   14  C9  UNL     1      26.881   0.358  52.026  1.00  0.00     0.046 A 
HETATM   15  C10 UNL     1      25.937  -0.339  52.718  1.00  0.00     0.138 A 
HETATM   16  F1  UNL     1      26.169  -1.596  53.126  1.00  0.00    -0.204 F 
HETATM   17  C11 UNL     1      24.746   0.262  52.993  1.00  0.00     0.074 A 
HETATM   18 CL1  UNL     1      23.534  -0.636  53.884  1.00  0.00    -0.081 Cl
HETATM   19  C12 UNL     1      24.497   1.532  52.588  1.00  0.00     0.056 A 
ENDBRANCH  10  12
ENDBRANCH   7  10
BRANCH   9  20
HETATM   20  C15 UNL     1      27.610   6.056  48.212  1.00  0.00     0.043 C 
BRANCH  20  21
HETATM   21  C16 UNL     1      28.866   5.299  48.380  1.00  0.00     0.035 C 
BRANCH  21  22
HETATM   22  C17 UNL     1      30.046   6.003  47.841  1.00  0.00     0.273 C 
BRANCH  22  23
HETATM   23  N4  UNL     1      31.315   5.610  48.362  1.00  0.00     0.092 N 
HETATM   24  C18 UNL     1      32.384   5.793  47.398  1.00  0.00     0.298 C 
HETATM   25  C19 UNL     1      33.194   7.013  47.784  1.00  0.00     0.198 C 
HETATM   26  O2  UNL     1      32.383   8.016  48.317  1.00  0.00    -0.388 OA
HETATM   27  C20 UNL     1      31.857   7.646  49.553  1.00  0.00     0.198 C 
HETATM   28  C21 UNL     1      31.691   6.137  49.612  1.00  0.00     0.298 C 
ENDBRANCH  22  23
ENDBRANCH  21  22
ENDBRANCH  20  21
ENDBRANCH   9  20
BRANCH   1  29
HETATM   29  O1  UNL     1      27.136   8.254  49.315  1.00  0.00    -0.355 OA
HETATM   30  C1  UNL     1      27.444   9.322  50.175  1.00  0.00     0.210 C 
ENDBRANCH   1  29
TORSDOF 7
ENDMDL
MODEL 4
REMARK VINA RESULT:      -7.8      3.823      6.743
REMARK  7 active torsions:
REMARK  status: ('A' for Active; 'I' for Inactive)
REMARK    1  A    between atoms: O1_2  and  C2_3 
REMARK    2  A    between atoms: C6_9  and  N3_10 
REMARK    3  A    between atoms: N3_10  and  C7_11 
REMARK    4  A    between atoms: C14_20  and  C15_21 
REMARK    5  A    between atoms: C15_21  and  C16_22 
REMARK    6  A    between atoms: C16_22  and  C17_23 
REMARK    7  A    between atoms: C17_23  and  N4_24 
ROOT
HETATM    1  C2  UNL     1      23.059   4.402  49.156  1.00  0.00     0.075 C 
HETATM    2  C3  UNL     1      23.193   5.579  49.796  1.00  0.00     0.056 C 
HETATM    3  C4  UNL     1      23.623   5.866  51.181  1.00  0.00     0.121 C 
HETATM    4  N1  UNL     1      23.851   5.196  52.285  1.00  0.00    -0.241 NA
HETATM    5  C5  UNL     1      23.764   3.802  52.596  1.00  0.00     0.179 A 
HETATM    6  N2  UNL     1      23.602   2.573  52.991  1.00  0.00    -0.226 NA
HETATM    7  C6  UNL     1      24.414   2.698  51.818  1.00  0.00     0.210 A 
HETATM    8  C13 UNL     1      23.785   2.444  50.523  1.00  0.00     0.046 C 
HETATM    9  C14 UNL     1      23.238   2.954  49.442  1.00  0.00    -0.024 C 
ENDROOT
BRANCH   7  10
HETATM   10  N3  UNL     1      25.857   2.759  51.901  1.00  0.00    -0.352 N 
HETATM   11  H6  UNL     1      26.245   3.648  51.476  1.00  0.00     0.163 HD
BRANCH  10  12
HETATM   12  C7  UNL     1      26.792   1.859  52.436  1.00  0.00     0.032 A 
HETATM   13  C8  UNL     1      27.951   2.188  53.102  1.00  0.00     0.032 A 
HETATM   14  C9  UNL     1      28.852   1.286  53.619  1.00  0.00     0.046 A 
HETATM   15  C10 UNL     1      28.592  -0.042  53.468  1.00  0.00     0.138 A 
HETATM   16  F1  UNL     1      29.434  -0.970  53.951  1.00  0.00    -0.204 F 
HETATM   17  C11 UNL     1      27.458  -0.421  52.817  1.00  0.00     0.074 A 
HETATM   18 CL1  UNL     1      27.125  -2.130  52.624  1.00  0.00    -0.081 Cl
HETATM   19  C12 UNL     1      26.597   0.504  52.324  1.00  0.00     0.056 A 
ENDBRANCH  10  12
ENDBRANCH   7  10
BRANCH   9  20
HETATM   20  C15 UNL     1      22.657   2.244  48.329  1.00  0.00     0.043 C 
BRANCH  20  21
HETATM   21  C16 UNL     1      21.566   1.269  48.527  1.00  0.00     0.035 C 
BRANCH  21  22
HETATM   22  C17 UNL     1      20.327   1.883  49.047  1.00  0.00     0.273 C 
BRANCH  22  23
HETATM   23  N4  UNL     1      19.611   1.135  50.029  1.00  0.00     0.092 N 
HETATM   24  C18 UNL     1      20.493   0.550  51.023  1.00  0.00     0.298 C 
HETATM   25  C19 UNL     1      20.382   1.342  52.309  1.00  0.00     0.198 C 
HETATM   26  O2  UNL     1      20.212   2.704  52.056  1.00  0.00    -0.388 OA
HETATM   27  C20 UNL     1      18.973   2.967  51.477  1.00  0.00     0.198 C 
HETATM   28  C21 UNL     1      18.522   1.769  50.657  1.00  0.00     0.298 C 
ENDBRANCH  22  23
ENDBRANCH  21  22
ENDBRANCH  20  21
ENDBRANCH   9  20
BRANCH   1  29
HETATM   29  O1  UNL     1      22.619   4.702  47.853  1.00  0.00    -0.355 OA
HETATM   30  C1  UNL     1      22.674   5.998  47.314  1.00  0.00     0.210 C 
ENDBRANCH   1  29
TORSDOF 7
ENDMDL
MODEL 5
REMARK VINA RESULT:      -7.6      2.198      3.043
REMARK  7 active torsions:
REMARK  status: ('A' for Active; 'I' for Inactive)
REMARK    1  A    between atoms: O1_2  and  C2_3 
REMARK    2  A    between atoms: C6_9  and  N3_10 
REMARK    3  A    between atoms: N3_10  and  C7_11 
REMARK    4  A    between atoms: C14_20  and  C15_21 
REMARK    5  A    between atoms: C15_21  and  C16_22 
REMARK    6  A    between atoms: C16_22  and  C17_23 
REMARK    7  A    between atoms: C17_23  and  N4_24 
ROOT
HETATM    1  C2  UNL     1      19.427  -0.484  53.084  1.00  0.00     0.075 C 
HETATM    2  C3  UNL     1      18.343  -0.291  52.309  1.00  0.00     0.056 C 
HETATM    3  C4  UNL     1      17.956   0.876  51.487  1.00  0.00     0.121 C 
HETATM    4  N1  UNL     1      18.345   2.117  51.322  1.00  0.00    -0.241 NA
HETATM    5  C5  UNL     1      19.388   2.885  51.929  1.00  0.00     0.179 A 
HETATM    6  N2  UNL     1      20.237   3.682  52.510  1.00  0.00    -0.226 NA
HETATM    7  C6  UNL     1      20.826   2.472  52.022  1.00  0.00     0.210 A 
HETATM    8  C13 UNL     1      21.066   1.394  52.981  1.00  0.00     0.046 C 
HETATM    9  C14 UNL     1      20.652   0.255  53.488  1.00  0.00    -0.024 C 
ENDROOT
BRANCH   7  10
HETATM   10  N3  UNL     1      21.452   2.408  50.719  1.00  0.00    -0.352 N 
HETATM   11  H6  UNL     1      21.059   1.627  50.123  1.00  0.00     0.163 HD
BRANCH  10  12
HETATM   12  C7  UNL     1      22.464   3.190  50.140  1.00  0.00     0.032 A 
HETATM   13  C8  UNL     1      22.286   4.350  49.421  1.00  0.00     0.032 A 
HETATM   14  C9  UNL     1      23.295   5.101  48.863  1.00  0.00     0.046 A 
HETATM   15  C10 UNL     1      24.579   4.675  49.024  1.00  0.00     0.138 A 
HETATM   16  F1  UNL     1      25.606   5.365  48.503  1.00  0.00    -0.204 F 
HETATM   17  C11 UNL     1      24.809   3.532  49.728  1.00  0.00     0.074 A 
HETATM   18 CL1  UNL     1      26.461   2.987  49.935  1.00  0.00    -0.081 Cl
HETATM   19  C12 UNL     1      23.783   2.825  50.262  1.00  0.00     0.056 A 
ENDBRANCH  10  12
ENDBRANCH   7  10
BRANCH   9  20
HETATM   20  C15 UNL     1      21.250  -0.501  54.560  1.00  0.00     0.043 C 
BRANCH  20  21
HETATM   21  C16 UNL     1      22.463  -1.313  54.343  1.00  0.00     0.035 C 
BRANCH  21  22
HETATM   22  C17 UNL     1      23.712  -0.576  54.625  1.00  0.00     0.273 C 
BRANCH  22  23
HETATM   23  N4  UNL     1      24.570  -0.331  53.511  1.00  0.00     0.092 N 
HETATM   24  C18 UNL     1      24.554   1.063  53.105  1.00  0.00     0.298 C 
HETATM   25  C19 UNL     1      25.835   1.726  53.565  1.00  0.00     0.198 C 
HETATM   26  O2  UNL     1      26.249   1.232  54.804  1.00  0.00    -0.388 OA
HETATM   27  C20 UNL     1      26.657  -0.097  54.714  1.00  0.00     0.198 C 
HETATM   28  C21 UNL     1      25.895  -0.797  53.601  1.00  0.00     0.298 C 
ENDBRANCH  22  23
ENDBRANCH  21  22
ENDBRANCH  20  21
ENDBRANCH   9  20
BRANCH   1  29
HETATM   29  O1  UNL     1      19.297  -1.771  53.640  1.00  0.00    -0.355 OA
HETATM   30  C1  UNL     1      18.069  -2.453  53.697  1.00  0.00     0.210 C 
ENDBRANCH   1  29
TORSDOF 7
ENDMDL
MODEL 6
REMARK VINA RESULT:      -7.4      4.982      8.153
REMARK  7 active torsions:
REMARK  status: ('A' for Active; 'I' for Inactive)
REMARK    1  A    between atoms: O1_2  and  C2_3 
REMARK    2  A    between atoms: C6_9  and  N3_10 
REMARK    3  A    between atoms: N3_10  and  C7_11 
REMARK    4  A    between atoms: C14_20  and  C15_21 
REMARK    5  A    between atoms: C15_21  and  C16_22 
REMARK    6  A    between atoms: C16_22  and  C17_23 
REMARK    7  A    between atoms: C17_23  and  N4_24 
ROOT
HETATM    1  C2  UNL     1      27.424   7.066  48.960  1.00  0.00     0.075 C 
HETATM    2  C3  UNL     1      26.366   7.700  49.500  1.00  0.00     0.056 C 
HETATM    3  C4  UNL     1      25.096   7.155  50.026  1.00  0.00     0.121 C 
HETATM    4  N1  UNL     1      24.461   6.008  50.028  1.00  0.00    -0.241 NA
HETATM    5  C5  UNL     1      24.786   4.729  49.473  1.00  0.00     0.179 A 
HETATM    6  N2  UNL     1      24.951   3.570  48.906  1.00  0.00    -0.226 NA
HETATM    7  C6  UNL     1      26.071   3.991  49.692  1.00  0.00     0.210 A 
HETATM    8  C13 UNL     1      27.212   4.580  48.993  1.00  0.00     0.046 C 
HETATM    9  C14 UNL     1      27.843   5.677  48.637  1.00  0.00    -0.024 C 
ENDROOT
BRANCH   7  10
HETATM   10  N3  UNL     1      26.226   3.577  51.070  1.00  0.00    -0.352 N 
HETATM   11  H6  UNL     1      26.813   4.258  51.629  1.00  0.00     0.163 HD
BRANCH  10  12
HETATM   12  C7  UNL     1      25.738   2.456  51.759  1.00  0.00     0.032 A 
HETATM   13  C8  UNL     1      24.518   2.354  52.390  1.00  0.00     0.032 A 
HETATM   14  C9  UNL     1      24.062   1.243  53.060  1.00  0.00     0.046 A 
HETATM   15  C10 UNL     1      24.868   0.147  53.113  1.00  0.00     0.138 A 
HETATM   16  F1  UNL     1      24.478  -0.967  53.752  1.00  0.00    -0.204 F 
HETATM   17  C11 UNL     1      26.086   0.196  52.505  1.00  0.00     0.074 A 
HETATM   18 CL1  UNL     1      27.122  -1.216  52.575  1.00  0.00    -0.081 Cl
HETATM   19  C12 UNL     1      26.495   1.314  51.855  1.00  0.00     0.056 A 
ENDBRANCH  10  12
ENDBRANCH   7  10
BRANCH   9  20
HETATM   20  C15 UNL     1      29.032   5.786  47.828  1.00  0.00     0.043 C 
BRANCH  20  21
HETATM   21  C16 UNL     1      30.376   5.602  48.412  1.00  0.00     0.035 C 
BRANCH  21  22
HETATM   22  C17 UNL     1      31.376   5.140  47.430  1.00  0.00     0.273 C 
BRANCH  22  23
HETATM   23  N4  UNL     1      32.282   6.125  46.932  1.00  0.00     0.092 N 
HETATM   24  C18 UNL     1      32.514   7.188  47.892  1.00  0.00     0.298 C 
HETATM   25  C19 UNL     1      33.883   7.004  48.513  1.00  0.00     0.198 C 
HETATM   26  O2  UNL     1      34.185   5.653  48.690  1.00  0.00    -0.388 OA
HETATM   27  C20 UNL     1      34.358   5.003  47.471  1.00  0.00     0.198 C 
HETATM   28  C21 UNL     1      33.505   5.670  46.404  1.00  0.00     0.298 C 
ENDBRANCH  22  23
ENDBRANCH  21  22
ENDBRANCH  20  21
ENDBRANCH   9  20
BRANCH   1  29
HETATM   29  O1  UNL     1      28.361   8.063  48.628  1.00  0.00    -0.355 OA
HETATM   30  C1  UNL     1      28.516   9.239  49.381  1.00  0.00     0.210 C 
ENDBRANCH   1  29
TORSDOF 7
ENDMDL
MODEL 7
REMARK VINA RESULT:      -7.3      2.175      2.611
REMARK  7 active torsions:
REMARK  status: ('A' for Active; 'I' for Inactive)
REMARK    1  A    between atoms: O1_2  and  C2_3 
REMARK    2  A    between atoms: C6_9  and  N3_10 
REMARK    3  A    between atoms: N3_10  and  C7_11 
REMARK    4  A    between atoms: C14_20  and  C15_21 
REMARK    5  A    between atoms: C15_21  and  C16_22 
REMARK    6  A    between atoms: C16_22  and  C17_23 
REMARK    7  A    between atoms: C17_23  and  N4_24 
ROOT
HETATM    1  C2  UNL     1      22.278   0.623  53.067  1.00  0.00     0.075 C 
HETATM    2  C3  UNL     1      20.935   0.722  53.077  1.00  0.00     0.056 C 
HETATM    3  C4  UNL     1      20.060   1.857  52.715  1.00  0.00     0.121 C 
HETATM    4  N1  UNL     1      20.191   3.133  52.441  1.00  0.00    -0.241 NA
HETATM    5  C5  UNL     1      21.336   3.990  52.384  1.00  0.00     0.179 A 
HETATM    6  N2  UNL     1      22.305   4.856  52.420  1.00  0.00    -0.226 NA
HETATM    7  C6  UNL     1      22.583   3.717  51.598  1.00  0.00     0.210 A 
HETATM    8  C13 UNL     1      23.412   2.654  52.163  1.00  0.00     0.046 C 
HETATM    9  C14 UNL     1      23.453   1.472  52.737  1.00  0.00    -0.024 C 
ENDROOT
BRANCH   7  10
HETATM   10  N3  UNL     1      22.335   3.734  50.172  1.00  0.00    -0.352 N 
HETATM   11  H6  UNL     1      21.817   2.872  49.845  1.00  0.00     0.163 HD
BRANCH  10  12
HETATM   12  C7  UNL     1      22.662   4.681  49.189  1.00  0.00     0.032 A 
HETATM   13  C8  UNL     1      23.865   5.337  49.056  1.00  0.00     0.032 A 
HETATM   14  C9  UNL     1      24.160   6.262  48.081  1.00  0.00     0.046 A 
HETATM   15  C10 UNL     1      23.197   6.566  47.167  1.00  0.00     0.138 A 
HETATM   16  F1  UNL     1      23.426   7.460  46.193  1.00  0.00    -0.204 F 
HETATM   17  C11 UNL     1      21.988   5.944  47.255  1.00  0.00     0.074 A 
HETATM   18 CL1  UNL     1      20.751   6.336  46.078  1.00  0.00    -0.081 Cl
HETATM   19  C12 UNL     1      21.741   5.038  48.233  1.00  0.00     0.056 A 
ENDBRANCH  10  12
ENDBRANCH   7  10
BRANCH   9  20
HETATM   20  C15 UNL     1      24.615   0.761  53.210  1.00  0.00     0.043 C 
BRANCH  20  21
HETATM   21  C16 UNL     1      25.974   1.310  53.032  1.00  0.00     0.035 C 
BRANCH  21  22
HETATM   22  C17 UNL     1      26.966   0.287  52.643  1.00  0.00     0.273 C 
BRANCH  22  23
HETATM   23  N4  UNL     1      27.520  -0.495  53.701  1.00  0.00     0.092 N 
HETATM   24  C18 UNL     1      28.505  -1.447  53.219  1.00  0.00     0.298 C 
HETATM   25  C19 UNL     1      29.890  -0.947  53.572  1.00  0.00     0.198 C 
HETATM   26  O2  UNL     1      29.970   0.444  53.475  1.00  0.00    -0.388 OA
HETATM   27  C20 UNL     1      29.205   1.071  54.456  1.00  0.00     0.198 C 
HETATM   28  C21 UNL     1      28.018   0.195  54.822  1.00  0.00     0.298 C 
ENDBRANCH  22  23
ENDBRANCH  21  22
ENDBRANCH  20  21
ENDBRANCH   9  20
BRANCH   1  29
HETATM   29  O1  UNL     1      22.587  -0.678  53.505  1.00  0.00    -0.355 OA
HETATM   30  C1  UNL     1      21.657  -1.499  54.164  1.00  0.00     0.210 C 
ENDBRANCH   1  29
TORSDOF 7
ENDMDL
MODEL 8
REMARK VINA RESULT:      -7.2      4.040      6.408
REMARK  7 active torsions:
REMARK  status: ('A' for Active; 'I' for Inactive)
REMARK    1  A    between atoms: O1_2  and  C2_3 
REMARK    2  A    between atoms: C6_9  and  N3_10 
REMARK    3  A    between atoms: N3_10  and  C7_11 
REMARK    4  A    between atoms: C14_20  and  C15_21 
REMARK    5  A    between atoms: C15_21  and  C16_22 
REMARK    6  A    between atoms: C16_22  and  C17_23 
REMARK    7  A    between atoms: C17_23  and  N4_24 
ROOT
HETATM    1  C2  UNL     1      24.320   4.722  49.849  1.00  0.00     0.075 C 
HETATM    2  C3  UNL     1      23.609   5.506  49.017  1.00  0.00     0.056 C 
HETATM    3  C4  UNL     1      22.440   5.183  48.171  1.00  0.00     0.121 C 
HETATM    4  N1  UNL     1      21.795   4.112  47.777  1.00  0.00    -0.241 NA
HETATM    5  C5  UNL     1      21.994   2.720  48.042  1.00  0.00     0.179 A 
HETATM    6  N2  UNL     1      22.172   1.435  48.140  1.00  0.00    -0.226 NA
HETATM    7  C6  UNL     1      22.131   2.108  49.403  1.00  0.00     0.210 A 
HETATM    8  C13 UNL     1      23.403   2.411  50.057  1.00  0.00     0.046 C 
HETATM    9  C14 UNL     1      24.329   3.309  50.310  1.00  0.00    -0.024 C 
ENDROOT
BRANCH   7  10
HETATM   10  N3  UNL     1      20.905   2.212  50.165  1.00  0.00    -0.352 N 
HETATM   11  H6  UNL     1      20.427   3.146  50.030  1.00  0.00     0.163 HD
BRANCH  10  12
HETATM   12  C7  UNL     1      20.271   1.302  51.025  1.00  0.00     0.032 A 
HETATM   13  C8  UNL     1      19.031   0.733  50.840  1.00  0.00     0.032 A 
HETATM   14  C9  UNL     1      18.431  -0.158  51.699  1.00  0.00     0.046 A 
HETATM   15  C10 UNL     1      19.103  -0.517  52.828  1.00  0.00     0.138 A 
HETATM   16  F1  UNL     1      18.569  -1.383  53.704  1.00  0.00    -0.204 F 
HETATM   17  C11 UNL     1      20.334   0.017  53.059  1.00  0.00     0.074 A 
HETATM   18 CL1  UNL     1      21.197  -0.446  54.512  1.00  0.00    -0.081 Cl
HETATM   19  C12 UNL     1      20.888   0.893  52.183  1.00  0.00     0.056 A 
ENDBRANCH  10  12
ENDBRANCH   7  10
BRANCH   9  20
HETATM   20  C15 UNL     1      25.560   3.124  51.037  1.00  0.00     0.043 C 
BRANCH  20  21
HETATM   21  C16 UNL     1      26.125   1.779  51.259  1.00  0.00     0.035 C 
BRANCH  21  22
HETATM   22  C17 UNL     1      25.547   1.093  52.432  1.00  0.00     0.273 C 
BRANCH  22  23
HETATM   23  N4  UNL     1      26.125  -0.166  52.781  1.00  0.00     0.092 N 
HETATM   24  C18 UNL     1      27.575  -0.132  52.740  1.00  0.00     0.298 C 
HETATM   25  C19 UNL     1      28.109  -0.090  54.156  1.00  0.00     0.198 C 
HETATM   26  O2  UNL     1      27.290   0.676  54.988  1.00  0.00    -0.388 OA
HETATM   27  C20 UNL     1      26.054   0.067  55.190  1.00  0.00     0.198 C 
HETATM   28  C21 UNL     1      25.685  -0.769  53.975  1.00  0.00     0.298 C 
ENDBRANCH  22  23
ENDBRANCH  21  22
ENDBRANCH  20  21
ENDBRANCH   9  20
BRANCH   1  29
HETATM   29  O1  UNL     1      25.325   5.536  50.405  1.00  0.00    -0.355 OA
HETATM   30  C1  UNL     1      25.286   6.939  50.344  1.00  0.00     0.210 C 
ENDBRANCH   1  29
TORSDOF 7
ENDMDL
MODEL 9
REMARK VINA RESULT:      -7.2      4.207      7.866
REMARK  7 active torsions:
REMARK  status: ('A' for Active; 'I' for Inactive)
REMARK    1  A    between atoms: O1_2  and  C2_3 
REMARK    2  A    between atoms: C6_9  and  N3_10 
REMARK    3  A    between atoms: N3_10  and  C7_11 
REMARK    4  A    between atoms: C14_20  and  C15_21 
REMARK    5  A    between atoms: C15_21  and  C16_22 
REMARK    6  A    between atoms: C16_22  and  C17_23 
REMARK    7  A    between atoms: C17_23  and  N4_24 
ROOT
HETATM    1  C2  UNL     1      24.622   4.269  50.584  1.00  0.00     0.075 C 
HETATM    2  C3  UNL     1      25.722   3.788  49.975  1.00  0.00     0.056 C 
HETATM    3  C4  UNL     1      26.714   2.796  50.443  1.00  0.00     0.121 C 
HETATM    4  N1  UNL     1      27.014   2.178  51.560  1.00  0.00    -0.241 NA
HETATM    5  C5  UNL     1      26.443   2.234  52.871  1.00  0.00     0.179 A 
HETATM    6  N2  UNL     1      26.058   2.310  54.111  1.00  0.00    -0.226 NA
HETATM    7  C6  UNL     1      24.990   2.058  53.192  1.00  0.00     0.210 A 
HETATM    8  C13 UNL     1      24.158   3.189  52.785  1.00  0.00     0.046 C 
HETATM    9  C14 UNL     1      23.899   4.098  51.872  1.00  0.00    -0.024 C 
ENDROOT
BRANCH   7  10
HETATM   10  N3  UNL     1      24.536   0.713  52.909  1.00  0.00    -0.352 N 
HETATM   11  H6  UNL     1      25.223   0.176  52.309  1.00  0.00     0.163 HD
BRANCH  10  12
HETATM   12  C7  UNL     1      23.370   0.031  53.292  1.00  0.00     0.032 A 
HETATM   13  C8  UNL     1      23.257  -0.875  54.323  1.00  0.00     0.032 A 
HETATM   14  C9  UNL     1      22.102  -1.531  54.679  1.00  0.00     0.046 A 
HETATM   15  C10 UNL     1      20.970  -1.277  53.965  1.00  0.00     0.138 A 
HETATM   16  F1  UNL     1      19.813  -1.886  54.266  1.00  0.00    -0.204 F 
HETATM   17  C11 UNL     1      21.028  -0.388  52.934  1.00  0.00     0.074 A 
HETATM   18 CL1  UNL     1      19.571  -0.062  52.018  1.00  0.00    -0.081 Cl
HETATM   19  C12 UNL     1      22.190   0.236  52.619  1.00  0.00     0.056 A 
ENDBRANCH  10  12
ENDBRANCH   7  10
BRANCH   9  20
HETATM   20  C15 UNL     1      22.909   5.146  51.926  1.00  0.00     0.043 C 
BRANCH  20  21
HETATM   21  C16 UNL     1      21.466   4.838  51.909  1.00  0.00     0.035 C 
BRANCH  21  22
HETATM   22  C17 UNL     1      21.127   3.690  51.045  1.00  0.00     0.273 C 
BRANCH  22  23
HETATM   23  N4  UNL     1      19.755   3.558  50.672  1.00  0.00     0.092 N 
HETATM   24  C18 UNL     1      19.144   4.839  50.374  1.00  0.00     0.298 C 
HETATM   25  C19 UNL     1      18.992   4.978  48.873  1.00  0.00     0.198 C 
HETATM   26  O2  UNL     1      20.067   4.400  48.196  1.00  0.00    -0.388 OA
HETATM   27  C20 UNL     1      20.073   3.013  48.335  1.00  0.00     0.198 C 
HETATM   28  C21 UNL     1      19.447   2.624  49.664  1.00  0.00     0.298 C 
ENDBRANCH  22  23
ENDBRANCH  21  22
ENDBRANCH  20  21
ENDBRANCH   9  20
BRANCH   1  29
HETATM   29  O1  UNL     1      24.041   5.190  49.693  1.00  0.00    -0.355 OA
HETATM   30  C1  UNL     1      23.499   4.809  48.453  1.00  0.00     0.210 C 
ENDBRANCH   1  29
TORSDOF 7
ENDMDL
