MODEL 1
REMARK VINA RESULT:      -8.6      0.000      0.000
REMARK  2 active torsions:
REMARK  status: ('A' for Active; 'I' for Inactive)
REMARK    1  A    between atoms: O1_2  and  C2_3 
REMARK    2  A    between atoms: C11_15  and  N3_16 
ROOT
HETATM    1  C2  UNL     1      27.759   0.159  53.778  1.00  0.00     0.070 A 
HETATM    2  C3  UNL     1      28.070   1.302  53.038  1.00  0.00     0.037 A 
HETATM    3  C4  UNL     1      27.094   1.971  52.301  1.00  0.00     0.014 A 
HETATM    4  C5  UNL     1      25.766   1.521  52.276  1.00  0.00    -0.006 A 
HETATM    5  C6  UNL     1      25.522   0.388  53.028  1.00  0.00     0.088 A 
HETATM    6  C7  UNL     1      26.458  -0.282  53.755  1.00  0.00     0.074 A 
HETATM    7  O2  UNL     1      24.257  -0.187  53.110  1.00  0.00    -0.289 OA
HETATM    8  C8  UNL     1      23.002   0.448  53.044  1.00  0.00     0.209 C 
HETATM    9  N1  UNL     1      21.966   0.120  53.766  1.00  0.00    -0.146 NA
HETATM   10  C9  UNL     1      22.152  -0.944  54.655  1.00  0.00     0.208 C 
HETATM   11  N2  UNL     1      22.301  -1.847  55.389  1.00  0.00    -0.170 NA
HETATM   12  C10 UNL     1      22.695   1.570  52.153  1.00  0.00     0.098 C 
HETATM   13  C11 UNL     1      21.468   1.853  51.820  1.00  0.00     0.119 C 
HETATM   14  N4  UNL     1      23.617   2.470  51.546  1.00  0.00    -0.381 N 
HETATM   15  C18 UNL     1      25.051   2.452  51.419  1.00  0.00     0.161 C 
HETATM   16  H15 UNL     1      23.217   3.330  51.089  1.00  0.00     0.160 HD
ENDROOT
BRANCH  13  17
HETATM   17  N3  UNL     1      21.032   2.910  50.965  1.00  0.00    -0.381 N 
HETATM   18  C12 UNL     1      20.544   4.125  51.628  1.00  0.00     0.153 C 
HETATM   19  C13 UNL     1      21.571   5.204  51.597  1.00  0.00     0.035 C 
HETATM   20  C14 UNL     1      22.124   5.817  50.541  1.00  0.00     0.119 C 
HETATM   21  F1  UNL     1      23.007   6.727  51.023  1.00  0.00    -0.206 F 
HETATM   22  P1  UNL     1      22.026   5.773  48.710  1.00  0.00    -0.018 P 
HETATM   23  C15 UNL     1      20.582   4.692  48.298  1.00  0.00     0.040 C 
HETATM   24  H11 UNL     1      23.233   5.075  48.243  1.00  0.00     0.070 HD
HETATM   25 CL1  UNL     1      19.236   5.199  47.280  1.00  0.00    -0.084 Cl
HETATM   26  C16 UNL     1      20.378   3.434  48.703  1.00  0.00     0.017 C 
HETATM   27  C17 UNL     1      21.179   2.523  49.565  1.00  0.00     0.151 C 
ENDBRANCH  13  17
BRANCH   1  28
HETATM   28  O1  UNL     1      28.695  -0.525  54.516  1.00  0.00    -0.356 OA
HETATM   29  C1  UNL     1      29.822  -1.167  53.947  1.00  0.00     0.210 C 
ENDBRANCH   1  28
TORSDOF 2
ENDMDL
MODEL 2
REMARK VINA RESULT:      -8.4      1.894      2.392
REMARK  2 active torsions:
REMARK  status: ('A' for Active; 'I' for Inactive)
REMARK    1  A    between atoms: O1_2  and  C2_3 
REMARK    2  A    between atoms: C11_15  and  N3_16 
ROOT
HETATM    1  C2  UNL     1      27.857   0.186  53.724  1.00  0.00     0.070 A 
HETATM    2  C3  UNL     1      28.127   1.310  52.940  1.00  0.00     0.037 A 
HETATM    3  C4  UNL     1      27.120   1.930  52.201  1.00  0.00     0.014 A 
HETATM    4  C5  UNL     1      25.803   1.448  52.217  1.00  0.00    -0.006 A 
HETATM    5  C6  UNL     1      25.602   0.335  53.010  1.00  0.00     0.088 A 
HETATM    6  C7  UNL     1      26.568  -0.287  53.741  1.00  0.00     0.074 A 
HETATM    7  O2  UNL     1      24.354  -0.267  53.137  1.00  0.00    -0.289 OA
HETATM    8  C8  UNL     1      23.082   0.335  53.075  1.00  0.00     0.209 C 
HETATM    9  N1  UNL     1      22.069   0.006  53.827  1.00  0.00    -0.146 NA
HETATM   10  C9  UNL     1      22.298  -1.022  54.748  1.00  0.00     0.208 C 
HETATM   11  N2  UNL     1      22.483  -1.896  55.508  1.00  0.00    -0.170 NA
HETATM   12  C10 UNL     1      22.731   1.418  52.153  1.00  0.00     0.098 C 
HETATM   13  C11 UNL     1      21.490   1.660  51.836  1.00  0.00     0.119 C 
HETATM   14  N4  UNL     1      23.618   2.318  51.498  1.00  0.00    -0.381 N 
HETATM   15  C18 UNL     1      25.050   2.332  51.343  1.00  0.00     0.161 C 
HETATM   16  H15 UNL     1      23.188   3.153  51.021  1.00  0.00     0.160 HD
ENDROOT
BRANCH  13  17
HETATM   17  N3  UNL     1      21.012   2.676  50.954  1.00  0.00    -0.381 N 
HETATM   18  C12 UNL     1      20.971   2.336  49.528  1.00  0.00     0.153 C 
HETATM   19  C13 UNL     1      19.584   2.013  49.091  1.00  0.00     0.035 C 
HETATM   20  C14 UNL     1      18.493   2.791  49.095  1.00  0.00     0.119 C 
HETATM   21  F1  UNL     1      17.469   2.049  48.605  1.00  0.00    -0.206 F 
HETATM   22  P1  UNL     1      18.017   4.503  49.554  1.00  0.00    -0.018 P 
HETATM   23  C15 UNL     1      19.597   5.397  49.913  1.00  0.00     0.040 C 
HETATM   24  H11 UNL     1      17.279   4.406  50.822  1.00  0.00     0.070 HD
HETATM   25 CL1  UNL     1      20.076   6.897  49.122  1.00  0.00    -0.084 Cl
HETATM   26  C16 UNL     1      20.544   5.037  50.785  1.00  0.00     0.017 C 
HETATM   27  C17 UNL     1      20.658   3.875  51.708  1.00  0.00     0.151 C 
ENDBRANCH  13  17
BRANCH   1  28
HETATM   28  O1  UNL     1      28.824  -0.450  54.465  1.00  0.00    -0.356 OA
HETATM   29  C1  UNL     1      29.884  -1.196  53.894  1.00  0.00     0.210 C 
ENDBRANCH   1  28
TORSDOF 2
ENDMDL
MODEL 3
REMARK VINA RESULT:      -8.3      3.495      6.117
REMARK  2 active torsions:
REMARK  status: ('A' for Active; 'I' for Inactive)
REMARK    1  A    between atoms: O1_2  and  C2_3 
REMARK    2  A    between atoms: C11_15  and  N3_16 
ROOT
HETATM    1  C2  UNL     1      17.461  -1.328  52.532  1.00  0.00     0.070 A 
HETATM    2  C3  UNL     1      17.194  -0.501  51.439  1.00  0.00     0.037 A 
HETATM    3  C4  UNL     1      18.052   0.544  51.099  1.00  0.00     0.014 A 
HETATM    4  C5  UNL     1      19.212   0.803  51.843  1.00  0.00    -0.006 A 
HETATM    5  C6  UNL     1      19.420  -0.048  52.911  1.00  0.00     0.088 A 
HETATM    6  C7  UNL     1      18.597  -1.074  53.262  1.00  0.00     0.074 A 
HETATM    7  O2  UNL     1      20.524   0.073  53.750  1.00  0.00    -0.289 OA
HETATM    8  C8  UNL     1      21.816   0.535  53.433  1.00  0.00     0.209 C 
HETATM    9  N1  UNL     1      22.921   0.031  53.909  1.00  0.00    -0.146 NA
HETATM   10  C9  UNL     1      22.772  -1.041  54.796  1.00  0.00     0.208 C 
HETATM   11  N2  UNL     1      22.649  -1.929  55.553  1.00  0.00    -0.170 NA
HETATM   12  C10 UNL     1      22.089   1.646  52.519  1.00  0.00     0.098 C 
HETATM   13  C11 UNL     1      23.216   2.299  52.566  1.00  0.00     0.119 C 
HETATM   14  N4  UNL     1      21.234   2.162  51.504  1.00  0.00    -0.381 N 
HETATM   15  C18 UNL     1      19.842   1.946  51.204  1.00  0.00     0.161 C 
HETATM   16  H15 UNL     1      21.659   2.836  50.816  1.00  0.00     0.160 HD
ENDROOT
BRANCH  13  17
HETATM   17  N3  UNL     1      23.608   3.396  51.740  1.00  0.00    -0.381 N 
HETATM   18  C12 UNL     1      24.511   3.083  50.626  1.00  0.00     0.153 C 
HETATM   19  C13 UNL     1      23.772   3.029  49.333  1.00  0.00     0.035 C 
HETATM   20  C14 UNL     1      23.088   3.997  48.709  1.00  0.00     0.119 C 
HETATM   21  F1  UNL     1      22.593   3.463  47.564  1.00  0.00    -0.206 F 
HETATM   22  P1  UNL     1      22.653   5.763  48.954  1.00  0.00    -0.018 P 
HETATM   23  C15 UNL     1      23.657   6.343  50.397  1.00  0.00     0.040 C 
HETATM   24  H11 UNL     1      21.243   5.792  49.371  1.00  0.00     0.070 HD
HETATM   25 CL1  UNL     1      24.736   7.735  50.344  1.00  0.00    -0.084 Cl
HETATM   26  C16 UNL     1      23.693   5.804  51.619  1.00  0.00     0.017 C 
HETATM   27  C17 UNL     1      22.993   4.632  52.213  1.00  0.00     0.151 C 
ENDBRANCH  13  17
BRANCH   1  28
HETATM   28  O1  UNL     1      16.638  -2.366  52.896  1.00  0.00    -0.356 OA
HETATM   29  C1  UNL     1      17.101  -3.551  53.520  1.00  0.00     0.210 C 
ENDBRANCH   1  28
TORSDOF 2
ENDMDL
MODEL 4
REMARK VINA RESULT:      -8.1      2.880      4.353
REMARK  2 active torsions:
REMARK  status: ('A' for Active; 'I' for Inactive)
REMARK    1  A    between atoms: O1_2  and  C2_3 
REMARK    2  A    between atoms: C11_15  and  N3_16 
ROOT
HETATM    1  C2  UNL     1      26.360  -0.099  53.982  1.00  0.00     0.070 A 
HETATM    2  C3  UNL     1      25.176  -0.744  54.348  1.00  0.00     0.037 A 
HETATM    3  C4  UNL     1      23.940  -0.303  53.878  1.00  0.00     0.014 A 
HETATM    4  C5  UNL     1      23.841   0.804  53.023  1.00  0.00    -0.006 A 
HETATM    5  C6  UNL     1      25.045   1.398  52.699  1.00  0.00     0.088 A 
HETATM    6  C7  UNL     1      26.263   0.985  53.145  1.00  0.00     0.074 A 
HETATM    7  O2  UNL     1      25.122   2.506  51.860  1.00  0.00    -0.289 OA
HETATM    8  C8  UNL     1      24.279   2.850  50.786  1.00  0.00     0.209 C 
HETATM    9  N1  UNL     1      24.684   3.380  49.665  1.00  0.00    -0.146 NA
HETATM   10  C9  UNL     1      26.060   3.612  49.561  1.00  0.00     0.208 C 
HETATM   11  N2  UNL     1      27.211   3.823  49.478  1.00  0.00    -0.170 NA
HETATM   12  C10 UNL     1      22.827   2.652  50.785  1.00  0.00     0.098 C 
HETATM   13  C11 UNL     1      22.052   3.332  49.989  1.00  0.00     0.119 C 
HETATM   14  N4  UNL     1      22.077   1.751  51.594  1.00  0.00    -0.381 N 
HETATM   15  C18 UNL     1      22.422   0.964  52.749  1.00  0.00     0.161 C 
HETATM   16  H15 UNL     1      21.068   1.600  51.334  1.00  0.00     0.160 HD
ENDROOT
BRANCH  13  17
HETATM   17  N3  UNL     1      20.631   3.239  49.889  1.00  0.00    -0.381 N 
HETATM   18  C12 UNL     1      20.108   2.217  48.975  1.00  0.00     0.153 C 
HETATM   19  C13 UNL     1      19.627   1.022  49.722  1.00  0.00     0.035 C 
HETATM   20  C14 UNL     1      18.647   0.930  50.632  1.00  0.00     0.119 C 
HETATM   21  F1  UNL     1      18.587  -0.366  51.027  1.00  0.00    -0.206 F 
HETATM   22  P1  UNL     1      17.418   2.016  51.454  1.00  0.00    -0.018 P 
HETATM   23  C15 UNL     1      17.488   3.637  50.566  1.00  0.00     0.040 C 
HETATM   24  H11 UNL     1      17.914   2.250  52.819  1.00  0.00     0.070 HD
HETATM   25 CL1  UNL     1      16.086   4.419  49.840  1.00  0.00    -0.084 Cl
HETATM   26  C16 UNL     1      18.570   4.398  50.367  1.00  0.00     0.017 C 
HETATM   27  C17 UNL     1      19.995   4.225  50.757  1.00  0.00     0.151 C 
ENDBRANCH  13  17
BRANCH   1  28
HETATM   28  O1  UNL     1      27.595  -0.507  54.426  1.00  0.00    -0.356 OA
HETATM   29  C1  UNL     1      28.692   0.372  54.606  1.00  0.00     0.210 C 
ENDBRANCH   1  28
TORSDOF 2
ENDMDL
MODEL 5
REMARK VINA RESULT:      -8.1      2.643      3.997
REMARK  2 active torsions:
REMARK  status: ('A' for Active; 'I' for Inactive)
REMARK    1  A    between atoms: O1_2  and  C2_3 
REMARK    2  A    between atoms: C11_15  and  N3_16 
ROOT
HETATM    1  C2  UNL     1      28.139   0.530  53.644  1.00  0.00     0.070 A 
HETATM    2  C3  UNL     1      27.176  -0.309  54.208  1.00  0.00     0.037 A 
HETATM    3  C4  UNL     1      25.819  -0.126  53.946  1.00  0.00     0.014 A 
HETATM    4  C5  UNL     1      25.373   0.907  53.109  1.00  0.00    -0.006 A 
HETATM    5  C6  UNL     1      26.373   1.702  52.583  1.00  0.00     0.088 A 
HETATM    6  C7  UNL     1      27.703   1.542  52.824  1.00  0.00     0.074 A 
HETATM    7  O2  UNL     1      26.100   2.770  51.733  1.00  0.00    -0.289 OA
HETATM    8  C8  UNL     1      25.044   2.905  50.811  1.00  0.00     0.209 C 
HETATM    9  N1  UNL     1      25.154   3.456  49.634  1.00  0.00    -0.146 NA
HETATM   10  C9  UNL     1      26.425   3.937  49.299  1.00  0.00     0.208 C 
HETATM   11  N2  UNL     1      27.485   4.355  49.024  1.00  0.00    -0.170 NA
HETATM   12  C10 UNL     1      23.677   2.440  51.055  1.00  0.00     0.098 C 
HETATM   13  C11 UNL     1      22.667   2.931  50.393  1.00  0.00     0.119 C 
HETATM   14  N4  UNL     1      23.253   1.449  51.985  1.00  0.00    -0.381 N 
HETATM   15  C18 UNL     1      23.925   0.788  53.074  1.00  0.00     0.161 C 
HETATM   16  H15 UNL     1      22.262   1.102  51.898  1.00  0.00     0.160 HD
ENDROOT
BRANCH  13  17
HETATM   17  N3  UNL     1      21.293   2.570  50.531  1.00  0.00    -0.381 N 
HETATM   18  C12 UNL     1      20.511   3.341  51.505  1.00  0.00     0.153 C 
HETATM   19  C13 UNL     1      19.653   4.353  50.826  1.00  0.00     0.035 C 
HETATM   20  C14 UNL     1      18.661   4.167  49.946  1.00  0.00     0.119 C 
HETATM   21  F1  UNL     1      18.185   5.393  49.614  1.00  0.00    -0.206 F 
HETATM   22  P1  UNL     1      17.802   2.783  49.102  1.00  0.00    -0.018 P 
HETATM   23  C15 UNL     1      18.409   1.233  49.910  1.00  0.00     0.040 C 
HETATM   24  H11 UNL     1      18.295   2.767  47.716  1.00  0.00     0.070 HD
HETATM   25 CL1  UNL     1      17.349   0.023  50.631  1.00  0.00    -0.084 Cl
HETATM   26  C16 UNL     1      19.680   0.842  50.047  1.00  0.00     0.017 C 
HETATM   27  C17 UNL     1      20.964   1.468  49.632  1.00  0.00     0.151 C 
ENDBRANCH  13  17
BRANCH   1  28
HETATM   28  O1  UNL     1      29.485   0.378  53.879  1.00  0.00    -0.356 OA
HETATM   29  C1  UNL     1      30.163  -0.861  53.777  1.00  0.00     0.210 C 
ENDBRANCH   1  28
TORSDOF 2
ENDMDL
MODEL 6
REMARK VINA RESULT:      -7.9      3.693      6.256
REMARK  2 active torsions:
REMARK  status: ('A' for Active; 'I' for Inactive)
REMARK    1  A    between atoms: O1_2  and  C2_3 
REMARK    2  A    between atoms: C11_15  and  N3_16 
ROOT
HETATM    1  C2  UNL     1      16.723  -2.255  52.770  1.00  0.00     0.070 A 
HETATM    2  C3  UNL     1      16.251  -1.581  51.642  1.00  0.00     0.037 A 
HETATM    3  C4  UNL     1      16.926  -0.473  51.130  1.00  0.00     0.014 A 
HETATM    4  C5  UNL     1      18.100   0.004  51.731  1.00  0.00    -0.006 A 
HETATM    5  C6  UNL     1      18.514  -0.704  52.842  1.00  0.00     0.088 A 
HETATM    6  C7  UNL     1      17.873  -1.788  53.359  1.00  0.00     0.074 A 
HETATM    7  O2  UNL     1      19.660  -0.362  53.553  1.00  0.00    -0.289 OA
HETATM    8  C8  UNL     1      20.845   0.228  53.070  1.00  0.00     0.209 C 
HETATM    9  N1  UNL     1      22.045  -0.081  53.476  1.00  0.00    -0.146 NA
HETATM   10  C9  UNL     1      22.123  -1.072  54.461  1.00  0.00     0.208 C 
HETATM   11  N2  UNL     1      22.188  -1.889  55.300  1.00  0.00    -0.170 NA
HETATM   12  C10 UNL     1      20.883   1.270  52.042  1.00  0.00     0.098 C 
HETATM   13  C11 UNL     1      21.910   2.063  51.921  1.00  0.00     0.119 C 
HETATM   14  N4  UNL     1      19.880   1.571  51.077  1.00  0.00    -0.381 N 
HETATM   15  C18 UNL     1      18.510   1.150  50.936  1.00  0.00     0.161 C 
HETATM   16  H15 UNL     1      20.148   2.223  50.295  1.00  0.00     0.160 HD
ENDROOT
BRANCH  13  17
HETATM   17  N3  UNL     1      22.075   3.115  50.969  1.00  0.00    -0.381 N 
HETATM   18  C12 UNL     1      21.521   4.422  51.339  1.00  0.00     0.153 C 
HETATM   19  C13 UNL     1      22.592   5.351  51.796  1.00  0.00     0.035 C 
HETATM   20  C14 UNL     1      23.651   5.820  51.120  1.00  0.00     0.119 C 
HETATM   21  F1  UNL     1      24.336   6.632  51.962  1.00  0.00    -0.206 F 
HETATM   22  P1  UNL     1      24.399   5.678  49.451  1.00  0.00    -0.018 P 
HETATM   23  C15 UNL     1      23.164   4.775  48.410  1.00  0.00     0.040 C 
HETATM   24  H11 UNL     1      25.569   4.799  49.591  1.00  0.00     0.070 HD
HETATM   25 CL1  UNL     1      22.526   5.392  46.888  1.00  0.00    -0.084 Cl
HETATM   26  C16 UNL     1      22.617   3.582  48.665  1.00  0.00     0.017 C 
HETATM   27  C17 UNL     1      22.790   2.628  49.793  1.00  0.00     0.151 C 
ENDBRANCH  13  17
BRANCH   1  28
HETATM   28  O1  UNL     1      16.084  -3.350  53.301  1.00  0.00    -0.356 OA
HETATM   29  C1  UNL     1      16.765  -4.455  53.869  1.00  0.00     0.210 C 
ENDBRANCH   1  28
TORSDOF 2
ENDMDL
MODEL 7
REMARK VINA RESULT:      -7.8      3.384      4.553
REMARK  2 active torsions:
REMARK  status: ('A' for Active; 'I' for Inactive)
REMARK    1  A    between atoms: O1_2  and  C2_3 
REMARK    2  A    between atoms: C11_15  and  N3_16 
ROOT
HETATM    1  C2  UNL     1      25.563   0.415  52.603  1.00  0.00     0.070 A 
HETATM    2  C3  UNL     1      26.747   0.994  52.141  1.00  0.00     0.037 A 
HETATM    3  C4  UNL     1      26.727   2.145  51.356  1.00  0.00     0.014 A 
HETATM    4  C5  UNL     1      25.518   2.762  51.000  1.00  0.00    -0.006 A 
HETATM    5  C6  UNL     1      24.384   2.141  51.487  1.00  0.00     0.088 A 
HETATM    6  C7  UNL     1      24.379   1.018  52.256  1.00  0.00     0.074 A 
HETATM    7  O2  UNL     1      23.106   2.626  51.226  1.00  0.00    -0.289 OA
HETATM    8  C8  UNL     1      22.700   3.961  51.030  1.00  0.00     0.209 C 
HETATM    9  N1  UNL     1      21.584   4.469  51.472  1.00  0.00    -0.146 NA
HETATM   10  C9  UNL     1      20.755   3.597  52.187  1.00  0.00     0.208 C 
HETATM   11  N2  UNL     1      20.052   2.863  52.771  1.00  0.00    -0.170 NA
HETATM   12  C10 UNL     1      23.486   4.959  50.300  1.00  0.00     0.098 C 
HETATM   13  C11 UNL     1      22.927   6.020  49.791  1.00  0.00     0.119 C 
HETATM   14  N4  UNL     1      24.887   4.938  50.043  1.00  0.00    -0.381 N 
HETATM   15  C18 UNL     1      25.887   3.913  50.193  1.00  0.00     0.161 C 
HETATM   16  H15 UNL     1      25.319   5.823  49.671  1.00  0.00     0.160 HD
ENDROOT
BRANCH  13  17
HETATM   17  N3  UNL     1      23.571   7.063  49.060  1.00  0.00    -0.381 N 
HETATM   18  C12 UNL     1      23.744   8.340  49.763  1.00  0.00     0.153 C 
HETATM   19  C13 UNL     1      25.143   8.504  50.247  1.00  0.00     0.035 C 
HETATM   20  C14 UNL     1      26.281   8.562  49.542  1.00  0.00     0.119 C 
HETATM   21  F1  UNL     1      27.295   8.716  50.429  1.00  0.00    -0.206 F 
HETATM   22  P1  UNL     1      26.828   8.496  47.791  1.00  0.00    -0.018 P 
HETATM   23  C15 UNL     1      25.289   8.576  46.768  1.00  0.00     0.040 C 
HETATM   24  H11 UNL     1      27.414   7.163  47.586  1.00  0.00     0.070 HD
HETATM   25 CL1  UNL     1      25.010   9.775  45.508  1.00  0.00    -0.084 Cl
HETATM   26  C16 UNL     1      24.228   7.766  46.848  1.00  0.00     0.017 C 
HETATM   27  C17 UNL     1      23.928   6.601  47.723  1.00  0.00     0.151 C 
ENDBRANCH  13  17
BRANCH   1  28
HETATM   28  O1  UNL     1      25.545  -0.719  53.379  1.00  0.00    -0.356 OA
HETATM   29  C1  UNL     1      24.906  -0.795  54.641  1.00  0.00     0.210 C 
ENDBRANCH   1  28
TORSDOF 2
ENDMDL
MODEL 8
REMARK VINA RESULT:      -7.8      2.926      5.431
REMARK  2 active torsions:
REMARK  status: ('A' for Active; 'I' for Inactive)
REMARK    1  A    between atoms: O1_2  and  C2_3 
REMARK    2  A    between atoms: C11_15  and  N3_16 
ROOT
HETATM    1  C2  UNL     1      19.093  -1.026  53.246  1.00  0.00     0.070 A 
HETATM    2  C3  UNL     1      18.314  -0.303  52.340  1.00  0.00     0.037 A 
HETATM    3  C4  UNL     1      18.795   0.865  51.750  1.00  0.00     0.014 A 
HETATM    4  C5  UNL     1      20.076   1.356  52.044  1.00  0.00    -0.006 A 
HETATM    5  C6  UNL     1      20.795   0.596  52.946  1.00  0.00     0.088 A 
HETATM    6  C7  UNL     1      20.348  -0.546  53.535  1.00  0.00     0.074 A 
HETATM    7  O2  UNL     1      22.082   0.944  53.345  1.00  0.00    -0.289 OA
HETATM    8  C8  UNL     1      23.075   1.617  52.605  1.00  0.00     0.209 C 
HETATM    9  N1  UNL     1      24.348   1.337  52.647  1.00  0.00    -0.146 NA
HETATM   10  C9  UNL     1      24.717   0.289  53.499  1.00  0.00     0.208 C 
HETATM   11  N2  UNL     1      25.029  -0.577  54.225  1.00  0.00    -0.170 NA
HETATM   12  C10 UNL     1      22.804   2.724  51.685  1.00  0.00     0.098 C 
HETATM   13  C11 UNL     1      23.738   3.568  51.350  1.00  0.00     0.119 C 
HETATM   14  N4  UNL     1      21.568   3.040  51.052  1.00  0.00    -0.381 N 
HETATM   15  C18 UNL     1      20.223   2.568  51.255  1.00  0.00     0.161 C 
HETATM   16  H15 UNL     1      21.595   3.753  50.277  1.00  0.00     0.160 HD
ENDROOT
BRANCH  13  17
HETATM   17  N3  UNL     1      23.610   4.685  50.470  1.00  0.00    -0.381 N 
HETATM   18  C12 UNL     1      23.388   5.991  51.102  1.00  0.00     0.153 C 
HETATM   19  C13 UNL     1      24.640   6.798  51.125  1.00  0.00     0.035 C 
HETATM   20  C14 UNL     1      25.377   7.247  50.100  1.00  0.00     0.119 C 
HETATM   21  F1  UNL     1      26.422   7.931  50.627  1.00  0.00    -0.206 F 
HETATM   22  P1  UNL     1      25.368   7.200  48.266  1.00  0.00    -0.018 P 
HETATM   23  C15 UNL     1      23.734   6.482  47.778  1.00  0.00     0.040 C 
HETATM   24  H11 UNL     1      26.400   6.231  47.867  1.00  0.00     0.070 HD
HETATM   25 CL1  UNL     1      22.601   7.276  46.686  1.00  0.00    -0.084 Cl
HETATM   26  C16 UNL     1      23.218   5.314  48.174  1.00  0.00     0.017 C 
HETATM   27  C17 UNL     1      23.735   4.254  49.081  1.00  0.00     0.151 C 
ENDBRANCH  13  17
BRANCH   1  28
HETATM   28  O1  UNL     1      18.652  -2.180  53.847  1.00  0.00    -0.356 OA
HETATM   29  C1  UNL     1      17.447  -2.836  53.494  1.00  0.00     0.210 C 
ENDBRANCH   1  28
TORSDOF 2
ENDMDL
MODEL 9
REMARK VINA RESULT:      -7.7      3.720      5.410
REMARK  2 active torsions:
REMARK  status: ('A' for Active; 'I' for Inactive)
REMARK    1  A    between atoms: O1_2  and  C2_3 
REMARK    2  A    between atoms: C11_15  and  N3_16 
ROOT
HETATM    1  C2  UNL     1      23.512  -0.279  53.156  1.00  0.00     0.070 A 
HETATM    2  C3  UNL     1      24.890  -0.058  53.093  1.00  0.00     0.037 A 
HETATM    3  C4  UNL     1      25.412   1.044  52.417  1.00  0.00     0.014 A 
HETATM    4  C5  UNL     1      24.574   1.968  51.775  1.00  0.00    -0.006 A 
HETATM    5  C6  UNL     1      23.224   1.693  51.873  1.00  0.00     0.088 A 
HETATM    6  C7  UNL     1      22.691   0.625  52.528  1.00  0.00     0.074 A 
HETATM    7  O2  UNL     1      22.259   2.511  51.294  1.00  0.00    -0.289 OA
HETATM    8  C8  UNL     1      22.304   3.903  51.084  1.00  0.00     0.209 C 
HETATM    9  N1  UNL     1      21.287   4.707  51.224  1.00  0.00    -0.146 NA
HETATM   10  C9  UNL     1      20.082   4.109  51.609  1.00  0.00     0.208 C 
HETATM   11  N2  UNL     1      19.067   3.606  51.915  1.00  0.00    -0.170 NA
HETATM   12  C10 UNL     1      23.507   4.634  50.681  1.00  0.00     0.098 C 
HETATM   13  C11 UNL     1      23.429   5.802  50.109  1.00  0.00     0.119 C 
HETATM   14  N4  UNL     1      24.862   4.222  50.833  1.00  0.00    -0.381 N 
HETATM   15  C18 UNL     1      25.459   2.961  51.190  1.00  0.00     0.161 C 
HETATM   16  H15 UNL     1      25.606   4.947  50.663  1.00  0.00     0.160 HD
ENDROOT
BRANCH  13  17
HETATM   17  N3  UNL     1      24.516   6.616  49.668  1.00  0.00    -0.381 N 
HETATM   18  C12 UNL     1      25.028   6.346  48.319  1.00  0.00     0.153 C 
HETATM   19  C13 UNL     1      24.535   7.359  47.344  1.00  0.00     0.035 C 
HETATM   20  C14 UNL     1      24.740   8.684  47.323  1.00  0.00     0.119 C 
HETATM   21  F1  UNL     1      24.087   9.173  46.240  1.00  0.00    -0.206 F 
HETATM   22  P1  UNL     1      25.617   9.963  48.303  1.00  0.00    -0.018 P 
HETATM   23  C15 UNL     1      26.653   9.047  49.533  1.00  0.00     0.040 C 
HETATM   24  H11 UNL     1      24.588  10.688  49.062  1.00  0.00     0.070 HD
HETATM   25 CL1  UNL     1      28.393   9.265  49.705  1.00  0.00    -0.084 Cl
HETATM   26  C16 UNL     1      26.234   8.136  50.417  1.00  0.00     0.017 C 
HETATM   27  C17 UNL     1      24.886   7.574  50.705  1.00  0.00     0.151 C 
ENDBRANCH  13  17
BRANCH   1  28
HETATM   28  O1  UNL     1      22.963  -1.354  53.813  1.00  0.00    -0.356 OA
HETATM   29  C1  UNL     1      22.133  -1.233  54.955  1.00  0.00     0.210 C 
ENDBRANCH   1  28
TORSDOF 2
ENDMDL
