MODEL 1
REMARK VINA RESULT:      -7.8      0.000      0.000
REMARK  5 active torsions:
REMARK  status: ('A' for Active; 'I' for Inactive)
REMARK    1  A    between atoms: C2_2  and  N1_3 
REMARK    2  A    between atoms: N1_3  and  O1_4 
REMARK    3  A    between atoms: N1_3  and  C3_5 
REMARK    4  A    between atoms: C8_11  and  N3_12 
REMARK    5  A    between atoms: C10_14  and  N4_15 
ROOT
HETATM    1  C3  UNL     1      26.954   1.142  53.380  1.00  0.00     0.063 A 
HETATM    2  C4  UNL     1      26.293   0.177  54.144  1.00  0.00     0.034 A 
HETATM    3  C5  UNL     1      24.976  -0.053  53.812  1.00  0.00     0.035 A 
HETATM    4  C6  UNL     1      24.397   0.657  52.777  1.00  0.00     0.069 A 
HETATM    5  N2  UNL     1      23.103   0.431  52.446  1.00  0.00    -0.258 NA
HETATM    6  C7  UNL     1      22.554   1.128  51.441  1.00  0.00     0.148 A 
HETATM    7  C8  UNL     1      23.184   2.083  50.676  1.00  0.00     0.073 A 
HETATM    8  C10 UNL     1      24.499   2.315  51.008  1.00  0.00     0.075 A 
HETATM    9  C16 UNL     1      25.076   1.604  52.042  1.00  0.00     0.024 A 
HETATM   10  C17 UNL     1      26.411   1.866  52.345  1.00  0.00     0.048 A 
ENDROOT
BRANCH   8  11
HETATM   11  N4  UNL     1      25.280   3.247  50.325  1.00  0.00    -0.349 N 
HETATM   12  C11 UNL     1      24.731   4.553  50.627  1.00  0.00     0.110 A 
HETATM   13  C12 UNL     1      25.122   5.757  50.182  1.00  0.00     0.026 A 
HETATM   14 BR1  UNL     1      24.403   7.486  50.575  1.00  0.00    -0.050 Br
HETATM   15  C13 UNL     1      26.279   5.799  49.261  1.00  0.00     0.018 A 
HETATM   16  C14 UNL     1      26.788   4.597  49.001  1.00  0.00    -0.005 A 
HETATM   17  C15 UNL     1      26.436   3.232  49.442  1.00  0.00     0.156 A 
ENDBRANCH   8  11
BRANCH   7  18
HETATM   18  N3  UNL     1      22.532   2.764  49.642  1.00  0.00    -0.391 N 
HETATM   19  C9  UNL     1      22.468   2.438  48.222  1.00  0.00     0.146 C 
HETATM   20  H8  UNL     1      21.988   3.639  49.790  1.00  0.00     0.159 HD
ENDBRANCH   7  18
BRANCH   1  21
HETATM   21  N1  UNL     1      28.327   1.492  53.644  1.00  0.00    -0.237 N 
BRANCH  21  22
HETATM   22  C2  UNL     1      29.094   0.472  54.269  1.00  0.00     0.113 C 
HETATM   23  C1  UNL     1      29.838  -0.349  53.566  1.00  0.00     0.032 C 
ENDBRANCH  21  22
BRANCH  21  24
HETATM   24  O1  UNL     1      29.228   2.513  53.497  1.00  0.00    -0.283 OA
HETATM   25  H4  UNL     1      29.261   3.038  54.351  1.00  0.00     0.245 HD
ENDBRANCH  21  24
ENDBRANCH   1  21
TORSDOF 5
ENDMDL
MODEL 2
REMARK VINA RESULT:      -7.6      3.710      5.981
REMARK  5 active torsions:
REMARK  status: ('A' for Active; 'I' for Inactive)
REMARK    1  A    between atoms: C2_2  and  N1_3 
REMARK    2  A    between atoms: N1_3  and  O1_4 
REMARK    3  A    between atoms: N1_3  and  C3_5 
REMARK    4  A    between atoms: C8_11  and  N3_12 
REMARK    5  A    between atoms: C10_14  and  N4_15 
ROOT
HETATM    1  C3  UNL     1      20.757  -0.566  53.660  1.00  0.00     0.063 A 
HETATM    2  C4  UNL     1      21.315  -1.594  54.426  1.00  0.00     0.034 A 
HETATM    3  C5  UNL     1      22.678  -1.532  54.612  1.00  0.00     0.035 A 
HETATM    4  C6  UNL     1      23.399  -0.494  54.052  1.00  0.00     0.069 A 
HETATM    5  N2  UNL     1      24.739  -0.428  54.237  1.00  0.00    -0.258 NA
HETATM    6  C7  UNL     1      25.426   0.584  53.688  1.00  0.00     0.148 A 
HETATM    7  C8  UNL     1      24.900   1.605  52.929  1.00  0.00     0.073 A 
HETATM    8  C10 UNL     1      23.538   1.544  52.741  1.00  0.00     0.075 A 
HETATM    9  C16 UNL     1      22.819   0.506  53.301  1.00  0.00     0.024 A 
HETATM   10  C17 UNL     1      21.442   0.481  53.090  1.00  0.00     0.048 A 
ENDROOT
BRANCH   8  11
HETATM   11  N4  UNL     1      22.850   2.507  52.003  1.00  0.00    -0.349 N 
HETATM   12  C11 UNL     1      22.862   2.063  50.624  1.00  0.00     0.110 A 
HETATM   13  C12 UNL     1      22.355   2.666  49.538  1.00  0.00     0.026 A 
HETATM   14 BR1  UNL     1      22.367   2.088  47.715  1.00  0.00    -0.050 Br
HETATM   15  C13 UNL     1      21.668   3.961  49.738  1.00  0.00     0.018 A 
HETATM   16  C14 UNL     1      21.647   4.355  51.009  1.00  0.00    -0.005 A 
HETATM   17  C15 UNL     1      22.166   3.764  52.260  1.00  0.00     0.156 A 
ENDBRANCH   8  11
BRANCH   7  18
HETATM   18  N3  UNL     1      25.694   2.626  52.394  1.00  0.00    -0.391 N 
HETATM   19  C9  UNL     1      26.497   2.624  51.177  1.00  0.00     0.146 C 
HETATM   20  H8  UNL     1      25.803   3.558  52.843  1.00  0.00     0.159 HD
ENDBRANCH   7  18
BRANCH   1  21
HETATM   21  N1  UNL     1      19.345  -0.531  53.372  1.00  0.00    -0.237 N 
BRANCH  21  22
HETATM   22  C2  UNL     1      18.997   0.148  52.173  1.00  0.00     0.113 C 
HETATM   23  C1  UNL     1      18.015  -0.274  51.412  1.00  0.00     0.032 C 
ENDBRANCH  21  22
BRANCH  21  24
HETATM   24  O1  UNL     1      18.134  -0.944  53.858  1.00  0.00    -0.283 OA
HETATM   25  H4  UNL     1      18.283  -1.430  54.723  1.00  0.00     0.245 HD
ENDBRANCH  21  24
ENDBRANCH   1  21
TORSDOF 5
ENDMDL
MODEL 3
REMARK VINA RESULT:      -7.5      2.934      4.982
REMARK  5 active torsions:
REMARK  status: ('A' for Active; 'I' for Inactive)
REMARK    1  A    between atoms: C2_2  and  N1_3 
REMARK    2  A    between atoms: N1_3  and  O1_4 
REMARK    3  A    between atoms: N1_3  and  C3_5 
REMARK    4  A    between atoms: C8_11  and  N3_12 
REMARK    5  A    between atoms: C10_14  and  N4_15 
ROOT
HETATM    1  C3  UNL     1      23.182  -0.216  53.947  1.00  0.00     0.063 A 
HETATM    2  C4  UNL     1      24.203  -1.030  54.444  1.00  0.00     0.034 A 
HETATM    3  C5  UNL     1      25.484  -0.675  54.082  1.00  0.00     0.035 A 
HETATM    4  C6  UNL     1      25.686   0.428  53.275  1.00  0.00     0.069 A 
HETATM    5  N2  UNL     1      26.944   0.783  52.920  1.00  0.00    -0.258 NA
HETATM    6  C7  UNL     1      27.126   1.854  52.136  1.00  0.00     0.148 A 
HETATM    7  C8  UNL     1      26.137   2.669  51.633  1.00  0.00     0.073 A 
HETATM    8  C10 UNL     1      24.856   2.315  51.992  1.00  0.00     0.075 A 
HETATM    9  C16 UNL     1      24.656   1.212  52.799  1.00  0.00     0.024 A 
HETATM   10  C17 UNL     1      23.346   0.888  53.143  1.00  0.00     0.048 A 
ENDROOT
BRANCH   8  11
HETATM   11  N4  UNL     1      23.743   3.041  51.572  1.00  0.00    -0.349 N 
HETATM   12  C11 UNL     1      23.341   2.489  50.295  1.00  0.00     0.110 A 
HETATM   13  C12 UNL     1      22.342   2.872  49.485  1.00  0.00     0.026 A 
HETATM   14 BR1  UNL     1      21.806   2.148  47.797  1.00  0.00    -0.050 Br
HETATM   15  C13 UNL     1      21.504   4.007  49.929  1.00  0.00     0.018 A 
HETATM   16  C14 UNL     1      21.869   4.499  51.110  1.00  0.00    -0.005 A 
HETATM   17  C15 UNL     1      22.936   4.146  52.068  1.00  0.00     0.156 A 
ENDBRANCH   8  11
BRANCH   7  18
HETATM   18  N3  UNL     1      26.417   3.772  50.819  1.00  0.00    -0.391 N 
HETATM   19  C9  UNL     1      26.719   3.811  49.393  1.00  0.00     0.146 C 
HETATM   20  H8  UNL     1      26.445   4.750  51.174  1.00  0.00     0.159 HD
ENDBRANCH   7  18
BRANCH   1  21
HETATM   21  N1  UNL     1      21.797  -0.496  54.233  1.00  0.00    -0.237 N 
BRANCH  21  22
HETATM   22  C2  UNL     1      20.866   0.296  53.509  1.00  0.00     0.113 C 
HETATM   23  C1  UNL     1      19.741  -0.211  53.064  1.00  0.00     0.032 C 
ENDBRANCH  21  22
BRANCH  21  24
HETATM   24  O1  UNL     1      20.994  -1.305  54.992  1.00  0.00    -0.283 OA
HETATM   25  H4  UNL     1      20.089  -0.878  55.071  1.00  0.00     0.245 HD
ENDBRANCH  21  24
ENDBRANCH   1  21
TORSDOF 5
ENDMDL
MODEL 4
REMARK VINA RESULT:      -7.5      2.708      3.466
REMARK  5 active torsions:
REMARK  status: ('A' for Active; 'I' for Inactive)
REMARK    1  A    between atoms: C2_2  and  N1_3 
REMARK    2  A    between atoms: N1_3  and  O1_4 
REMARK    3  A    between atoms: N1_3  and  C3_5 
REMARK    4  A    between atoms: C8_11  and  N3_12 
REMARK    5  A    between atoms: C10_14  and  N4_15 
ROOT
HETATM    1  C3  UNL     1      25.930   1.048  52.961  1.00  0.00     0.063 A 
HETATM    2  C4  UNL     1      26.179  -0.099  53.719  1.00  0.00     0.034 A 
HETATM    3  C5  UNL     1      25.067  -0.804  54.123  1.00  0.00     0.035 A 
HETATM    4  C6  UNL     1      23.807  -0.356  53.772  1.00  0.00     0.069 A 
HETATM    5  N2  UNL     1      22.712  -1.049  54.165  1.00  0.00    -0.258 NA
HETATM    6  C7  UNL     1      21.496  -0.602  53.818  1.00  0.00     0.148 A 
HETATM    7  C8  UNL     1      21.227   0.525  53.075  1.00  0.00     0.073 A 
HETATM    8  C10 UNL     1      22.337   1.231  52.671  1.00  0.00     0.075 A 
HETATM    9  C16 UNL     1      23.595   0.782  53.023  1.00  0.00     0.024 A 
HETATM   10  C17 UNL     1      24.693   1.523  52.593  1.00  0.00     0.048 A 
ENDROOT
BRANCH   8  11
HETATM   11  N4  UNL     1      22.236   2.392  51.905  1.00  0.00    -0.349 N 
HETATM   12  C11 UNL     1      22.311   1.984  50.517  1.00  0.00     0.110 A 
HETATM   13  C12 UNL     1      22.287   2.744  49.411  1.00  0.00     0.026 A 
HETATM   14 BR1  UNL     1      22.386   2.214  47.576  1.00  0.00    -0.050 Br
HETATM   15  C13 UNL     1      22.156   4.206  49.593  1.00  0.00     0.018 A 
HETATM   16  C14 UNL     1      22.071   4.572  50.870  1.00  0.00    -0.005 A 
HETATM   17  C15 UNL     1      22.081   3.819  52.141  1.00  0.00     0.156 A 
ENDBRANCH   8  11
BRANCH   7  18
HETATM   18  N3  UNL     1      19.922   0.918  52.757  1.00  0.00    -0.391 N 
HETATM   19  C9  UNL     1      18.944   0.257  51.901  1.00  0.00     0.146 C 
HETATM   20  H8  UNL     1      19.484   1.788  53.124  1.00  0.00     0.159 HD
ENDBRANCH   7  18
BRANCH   1  21
HETATM   21  N1  UNL     1      27.008   1.886  52.498  1.00  0.00    -0.237 N 
BRANCH  21  22
HETATM   22  C2  UNL     1      28.277   1.597  53.069  1.00  0.00     0.113 C 
HETATM   23  C1  UNL     1      28.909   2.479  53.805  1.00  0.00     0.032 C 
ENDBRANCH  21  22
BRANCH  21  24
HETATM   24  O1  UNL     1      27.279   2.925  51.647  1.00  0.00    -0.283 OA
HETATM   25  H4  UNL     1      26.476   3.083  51.067  1.00  0.00     0.245 HD
ENDBRANCH  21  24
ENDBRANCH   1  21
TORSDOF 5
ENDMDL
MODEL 5
REMARK VINA RESULT:      -7.3      2.839      5.666
REMARK  5 active torsions:
REMARK  status: ('A' for Active; 'I' for Inactive)
REMARK    1  A    between atoms: C2_2  and  N1_3 
REMARK    2  A    between atoms: N1_3  and  O1_4 
REMARK    3  A    between atoms: N1_3  and  C3_5 
REMARK    4  A    between atoms: C8_11  and  N3_12 
REMARK    5  A    between atoms: C10_14  and  N4_15 
ROOT
HETATM    1  C3  UNL     1      24.922   3.449  49.886  1.00  0.00     0.063 A 
HETATM    2  C4  UNL     1      23.791   3.598  49.079  1.00  0.00     0.034 A 
HETATM    3  C5  UNL     1      22.704   2.825  49.423  1.00  0.00     0.035 A 
HETATM    4  C6  UNL     1      22.785   1.973  50.507  1.00  0.00     0.069 A 
HETATM    5  N2  UNL     1      21.716   1.214  50.850  1.00  0.00    -0.258 NA
HETATM    6  C7  UNL     1      21.809   0.391  51.904  1.00  0.00     0.148 A 
HETATM    7  C8  UNL     1      22.912   0.226  52.710  1.00  0.00     0.073 A 
HETATM    8  C10 UNL     1      24.000   0.997  52.368  1.00  0.00     0.075 A 
HETATM    9  C16 UNL     1      23.917   1.848  51.283  1.00  0.00     0.024 A 
HETATM   10  C17 UNL     1      25.039   2.613  50.971  1.00  0.00     0.048 A 
ENDROOT
BRANCH   8  11
HETATM   11  N4  UNL     1      25.192   0.953  53.089  1.00  0.00    -0.349 N 
HETATM   12  C11 UNL     1      25.843  -0.295  52.745  1.00  0.00     0.110 A 
HETATM   13  C12 UNL     1      26.999  -0.800  53.204  1.00  0.00     0.026 A 
HETATM   14 BR1  UNL     1      27.863  -2.446  52.756  1.00  0.00    -0.050 Br
HETATM   15  C13 UNL     1      27.749   0.007  54.191  1.00  0.00     0.018 A 
HETATM   16  C14 UNL     1      27.154   1.159  54.490  1.00  0.00    -0.005 A 
HETATM   17  C15 UNL     1      25.900   1.798  54.039  1.00  0.00     0.156 A 
ENDBRANCH   8  11
BRANCH   7  18
HETATM   18  N3  UNL     1      22.921  -0.658  53.795  1.00  0.00    -0.391 N 
HETATM   19  C9  UNL     1      21.878  -1.571  54.247  1.00  0.00     0.146 C 
HETATM   20  H8  UNL     1      23.732  -0.761  54.439  1.00  0.00     0.159 HD
ENDBRANCH   7  18
BRANCH   1  21
HETATM   21  N1  UNL     1      26.134   4.184  49.617  1.00  0.00    -0.237 N 
BRANCH  21  22
HETATM   22  C2  UNL     1      25.940   5.449  48.999  1.00  0.00     0.113 C 
HETATM   23  C1  UNL     1      26.952   6.136  48.524  1.00  0.00     0.032 C 
ENDBRANCH  21  22
BRANCH  21  24
HETATM   24  O1  UNL     1      27.494   4.108  49.753  1.00  0.00    -0.283 OA
HETATM   25  H4  UNL     1      27.818   4.935  50.221  1.00  0.00     0.245 HD
ENDBRANCH  21  24
ENDBRANCH   1  21
TORSDOF 5
ENDMDL
MODEL 6
REMARK VINA RESULT:      -7.3      1.781      2.318
REMARK  5 active torsions:
REMARK  status: ('A' for Active; 'I' for Inactive)
REMARK    1  A    between atoms: C2_2  and  N1_3 
REMARK    2  A    between atoms: N1_3  and  O1_4 
REMARK    3  A    between atoms: N1_3  and  C3_5 
REMARK    4  A    between atoms: C8_11  and  N3_12 
REMARK    5  A    between atoms: C10_14  and  N4_15 
ROOT
HETATM    1  C3  UNL     1      26.118   0.956  53.813  1.00  0.00     0.063 A 
HETATM    2  C4  UNL     1      25.887  -0.372  54.178  1.00  0.00     0.034 A 
HETATM    3  C5  UNL     1      24.640  -0.870  53.872  1.00  0.00     0.035 A 
HETATM    4  C6  UNL     1      23.714  -0.060  53.242  1.00  0.00     0.069 A 
HETATM    5  N2  UNL     1      22.488  -0.548  52.937  1.00  0.00    -0.258 NA
HETATM    6  C7  UNL     1      21.600   0.250  52.327  1.00  0.00     0.148 A 
HETATM    7  C8  UNL     1      21.804   1.560  51.959  1.00  0.00     0.073 A 
HETATM    8  C10 UNL     1      23.050   2.060  52.266  1.00  0.00     0.075 A 
HETATM    9  C16 UNL     1      23.973   1.248  52.895  1.00  0.00     0.024 A 
HETATM   10  C17 UNL     1      25.223   1.791  53.186  1.00  0.00     0.048 A 
ENDROOT
BRANCH   8  11
HETATM   11  N4  UNL     1      23.417   3.368  51.954  1.00  0.00    -0.349 N 
HETATM   12  C11 UNL     1      24.505   3.280  51.001  1.00  0.00     0.110 A 
HETATM   13  C12 UNL     1      25.210   4.269  50.430  1.00  0.00     0.026 A 
HETATM   14 BR1  UNL     1      26.648   4.161  49.172  1.00  0.00    -0.050 Br
HETATM   15  C13 UNL     1      24.848   5.658  50.788  1.00  0.00     0.018 A 
HETATM   16  C14 UNL     1      23.837   5.731  51.651  1.00  0.00    -0.005 A 
HETATM   17  C15 UNL     1      23.004   4.713  52.323  1.00  0.00     0.156 A 
ENDBRANCH   8  11
BRANCH   7  18
HETATM   18  N3  UNL     1      20.818   2.322  51.323  1.00  0.00    -0.391 N 
HETATM   19  C9  UNL     1      19.551   2.814  51.852  1.00  0.00     0.146 C 
HETATM   20  H8  UNL     1      20.890   2.636  50.334  1.00  0.00     0.159 HD
ENDBRANCH   7  18
BRANCH   1  21
HETATM   21  N1  UNL     1      27.374   1.602  54.100  1.00  0.00    -0.237 N 
BRANCH  21  22
HETATM   22  C2  UNL     1      28.429   0.722  54.464  1.00  0.00     0.113 C 
HETATM   23  C1  UNL     1      29.406   0.450  53.632  1.00  0.00     0.032 C 
ENDBRANCH  21  22
BRANCH  21  24
HETATM   24  O1  UNL     1      27.968   2.836  54.148  1.00  0.00    -0.283 OA
HETATM   25  H4  UNL     1      28.377   3.031  53.253  1.00  0.00     0.245 HD
ENDBRANCH  21  24
ENDBRANCH   1  21
TORSDOF 5
ENDMDL
MODEL 7
REMARK VINA RESULT:      -7.1      2.475      5.182
REMARK  5 active torsions:
REMARK  status: ('A' for Active; 'I' for Inactive)
REMARK    1  A    between atoms: C2_2  and  N1_3 
REMARK    2  A    between atoms: N1_3  and  O1_4 
REMARK    3  A    between atoms: N1_3  and  C3_5 
REMARK    4  A    between atoms: C8_11  and  N3_12 
REMARK    5  A    between atoms: C10_14  and  N4_15 
ROOT
HETATM    1  C3  UNL     1      21.968   1.621  50.086  1.00  0.00     0.063 A 
HETATM    2  C4  UNL     1      21.375   0.665  50.914  1.00  0.00     0.034 A 
HETATM    3  C5  UNL     1      22.105   0.295  52.021  1.00  0.00     0.035 A 
HETATM    4  C6  UNL     1      23.342   0.868  52.249  1.00  0.00     0.069 A 
HETATM    5  N2  UNL     1      24.061   0.508  53.339  1.00  0.00    -0.258 NA
HETATM    6  C7  UNL     1      25.259   1.071  53.547  1.00  0.00     0.148 A 
HETATM    7  C8  UNL     1      25.864   2.013  52.745  1.00  0.00     0.073 A 
HETATM    8  C10 UNL     1      25.136   2.383  51.637  1.00  0.00     0.075 A 
HETATM    9  C16 UNL     1      23.900   1.809  51.412  1.00  0.00     0.024 A 
HETATM   10  C17 UNL     1      23.194   2.212  50.280  1.00  0.00     0.048 A 
ENDROOT
BRANCH   8  11
HETATM   11  N4  UNL     1      25.605   3.331  50.729  1.00  0.00    -0.349 N 
HETATM   12  C11 UNL     1      24.893   4.562  51.005  1.00  0.00     0.110 A 
HETATM   13  C12 UNL     1      24.977   5.746  50.378  1.00  0.00     0.026 A 
HETATM   14 BR1  UNL     1      24.041   7.375  50.736  1.00  0.00    -0.050 Br
HETATM   15  C13 UNL     1      25.929   5.852  49.251  1.00  0.00     0.018 A 
HETATM   16  C14 UNL     1      26.591   4.722  49.013  1.00  0.00    -0.005 A 
HETATM   17  C15 UNL     1      26.572   3.386  49.643  1.00  0.00     0.156 A 
ENDBRANCH   8  11
BRANCH   7  18
HETATM   18  N3  UNL     1      27.122   2.550  53.039  1.00  0.00    -0.391 N 
HETATM   19  C9  UNL     1      28.368   1.858  53.350  1.00  0.00     0.146 C 
HETATM   20  H8  UNL     1      27.312   3.572  53.072  1.00  0.00     0.159 HD
ENDBRANCH   7  18
BRANCH   1  21
HETATM   21  N1  UNL     1      21.316   2.074  48.882  1.00  0.00    -0.237 N 
BRANCH  21  22
HETATM   22  C2  UNL     1      22.036   3.054  48.146  1.00  0.00     0.113 C 
HETATM   23  C1  UNL     1      21.959   3.117  46.838  1.00  0.00     0.032 C 
ENDBRANCH  21  22
BRANCH  21  24
HETATM   24  O1  UNL     1      20.185   1.890  48.132  1.00  0.00    -0.283 OA
HETATM   25  H4  UNL     1      20.414   2.030  47.164  1.00  0.00     0.245 HD
ENDBRANCH  21  24
ENDBRANCH   1  21
TORSDOF 5
ENDMDL
MODEL 8
REMARK VINA RESULT:      -6.9      2.583      4.577
REMARK  5 active torsions:
REMARK  status: ('A' for Active; 'I' for Inactive)
REMARK    1  A    between atoms: C2_2  and  N1_3 
REMARK    2  A    between atoms: N1_3  and  O1_4 
REMARK    3  A    between atoms: N1_3  and  C3_5 
REMARK    4  A    between atoms: C8_11  and  N3_12 
REMARK    5  A    between atoms: C10_14  and  N4_15 
ROOT
HETATM    1  C3  UNL     1      25.928   2.532  51.125  1.00  0.00     0.063 A 
HETATM    2  C4  UNL     1      26.775   1.516  51.575  1.00  0.00     0.034 A 
HETATM    3  C5  UNL     1      26.181   0.528  52.328  1.00  0.00     0.035 A 
HETATM    4  C6  UNL     1      24.826   0.589  52.591  1.00  0.00     0.069 A 
HETATM    5  N2  UNL     1      24.238  -0.383  53.329  1.00  0.00    -0.258 NA
HETATM    6  C7  UNL     1      22.922  -0.310  53.578  1.00  0.00     0.148 A 
HETATM    7  C8  UNL     1      22.068   0.681  53.148  1.00  0.00     0.073 A 
HETATM    8  C10 UNL     1      22.661   1.670  52.396  1.00  0.00     0.075 A 
HETATM    9  C16 UNL     1      24.016   1.606  52.134  1.00  0.00     0.024 A 
HETATM   10  C17 UNL     1      24.577   2.625  51.367  1.00  0.00     0.048 A 
ENDROOT
BRANCH   8  11
HETATM   11  N4  UNL     1      21.933   2.740  51.878  1.00  0.00    -0.349 N 
HETATM   12  C11 UNL     1      21.570   2.382  50.523  1.00  0.00     0.110 A 
HETATM   13  C12 UNL     1      20.892   3.098  49.612  1.00  0.00     0.026 A 
HETATM   14 BR1  UNL     1      20.409   2.633  47.820  1.00  0.00    -0.050 Br
HETATM   15  C13 UNL     1      20.424   4.442  50.015  1.00  0.00     0.018 A 
HETATM   16  C14 UNL     1      20.747   4.758  51.267  1.00  0.00    -0.005 A 
HETATM   17  C15 UNL     1      21.476   4.044  52.335  1.00  0.00     0.156 A 
ENDBRANCH   8  11
BRANCH   7  18
HETATM   18  N3  UNL     1      20.703   0.677  53.454  1.00  0.00    -0.391 N 
HETATM   19  C9  UNL     1      19.637  -0.148  52.898  1.00  0.00     0.146 C 
HETATM   20  H8  UNL     1      20.277   1.312  54.160  1.00  0.00     0.159 HD
ENDBRANCH   7  18
BRANCH   1  21
HETATM   21  N1  UNL     1      26.432   3.636  50.348  1.00  0.00    -0.237 N 
BRANCH  21  22
HETATM   22  C2  UNL     1      25.489   4.669  50.096  1.00  0.00     0.113 C 
HETATM   23  C1  UNL     1      25.575   5.424  49.027  1.00  0.00     0.032 C 
ENDBRANCH  21  22
BRANCH  21  24
HETATM   24  O1  UNL     1      27.564   4.091  49.727  1.00  0.00    -0.283 OA
HETATM   25  H4  UNL     1      27.800   3.459  48.984  1.00  0.00     0.245 HD
ENDBRANCH  21  24
ENDBRANCH   1  21
TORSDOF 5
ENDMDL
MODEL 9
REMARK VINA RESULT:      -6.8      2.037      3.784
REMARK  5 active torsions:
REMARK  status: ('A' for Active; 'I' for Inactive)
REMARK    1  A    between atoms: C2_2  and  N1_3 
REMARK    2  A    between atoms: N1_3  and  O1_4 
REMARK    3  A    between atoms: N1_3  and  C3_5 
REMARK    4  A    between atoms: C8_11  and  N3_12 
REMARK    5  A    between atoms: C10_14  and  N4_15 
ROOT
HETATM    1  C3  UNL     1      25.526   1.479  52.274  1.00  0.00     0.063 A 
HETATM    2  C4  UNL     1      25.864   0.714  53.394  1.00  0.00     0.034 A 
HETATM    3  C5  UNL     1      24.845  -0.037  53.936  1.00  0.00     0.035 A 
HETATM    4  C6  UNL     1      23.587   0.001  53.366  1.00  0.00     0.069 A 
HETATM    5  N2  UNL     1      22.584  -0.740  53.894  1.00  0.00    -0.258 NA
HETATM    6  C7  UNL     1      21.368  -0.691  53.331  1.00  0.00     0.148 A 
HETATM    7  C8  UNL     1      21.012   0.054  52.231  1.00  0.00     0.073 A 
HETATM    8  C10 UNL     1      22.029   0.808  51.688  1.00  0.00     0.075 A 
HETATM    9  C16 UNL     1      23.285   0.767  52.260  1.00  0.00     0.024 A 
HETATM   10  C17 UNL     1      24.288   1.542  51.680  1.00  0.00     0.048 A 
ENDROOT
BRANCH   8  11
HETATM   11  N4  UNL     1      21.834   1.612  50.567  1.00  0.00    -0.349 N 
HETATM   12  C11 UNL     1      21.769   2.980  51.040  1.00  0.00     0.110 A 
HETATM   13  C12 UNL     1      21.565   4.107  50.341  1.00  0.00     0.026 A 
HETATM   14 BR1  UNL     1      21.477   5.916  50.958  1.00  0.00    -0.050 Br
HETATM   15  C13 UNL     1      21.389   3.978  48.878  1.00  0.00     0.018 A 
HETATM   16  C14 UNL     1      21.466   2.721  48.448  1.00  0.00    -0.005 A 
HETATM   17  C15 UNL     1      21.692   1.430  49.130  1.00  0.00     0.156 A 
ENDBRANCH   8  11
BRANCH   7  18
HETATM   18  N3  UNL     1      19.715   0.044  51.707  1.00  0.00    -0.391 N 
HETATM   19  C9  UNL     1      18.469  -0.371  52.342  1.00  0.00     0.146 C 
HETATM   20  H8  UNL     1      19.489   0.352  50.739  1.00  0.00     0.159 HD
ENDBRANCH   7  18
BRANCH   1  21
HETATM   21  N1  UNL     1      26.497   2.328  51.629  1.00  0.00    -0.237 N 
BRANCH  21  22
HETATM   22  C2  UNL     1      26.084   2.864  50.380  1.00  0.00     0.113 C 
HETATM   23  C1  UNL     1      26.803   3.767  49.756  1.00  0.00     0.032 C 
ENDBRANCH  21  22
BRANCH  21  24
HETATM   24  O1  UNL     1      27.753   2.848  51.792  1.00  0.00    -0.283 OA
HETATM   25  H4  UNL     1      28.427   2.130  51.600  1.00  0.00     0.245 HD
ENDBRANCH  21  24
ENDBRANCH   1  21
TORSDOF 5
ENDMDL
