MODEL 1
REMARK VINA RESULT:      -8.3      0.000      0.000
REMARK  5 active torsions:
REMARK  status: ('A' for Active; 'I' for Inactive)
REMARK    1  A    between atoms: P1_2  and  C2_3 
REMARK    2  A    between atoms: C6_9  and  N3_10 
REMARK    3  A    between atoms: N3_10  and  C7_11 
REMARK    4  A    between atoms: C9_13  and  C10_14 
REMARK    5  A    between atoms: C18_22  and  O1_23 
ROOT
HETATM    1  C2  UNL     1      27.046   0.681  54.084  1.00  0.00     0.001 A 
HETATM    2  C3  UNL     1      26.030  -0.243  53.946  1.00  0.00     0.047 A 
HETATM    3  C4  UNL     1      24.810   0.184  53.481  1.00  0.00     0.073 A 
HETATM    4  N1  UNL     1      23.828  -0.719  53.360  1.00  0.00    -0.241 NA
HETATM    5  C5  UNL     1      22.618  -0.372  52.924  1.00  0.00     0.235 A 
HETATM    6  N2  UNL     1      22.336   0.870  52.594  1.00  0.00    -0.224 NA
HETATM    7  C6  UNL     1      23.254   1.877  52.675  1.00  0.00     0.138 A 
HETATM    8  C16 UNL     1      24.484   1.479  53.128  1.00  0.00     0.041 A 
HETATM    9  C17 UNL     1      25.531   2.345  53.288  1.00  0.00     0.055 A 
HETATM   10  C18 UNL     1      26.783   1.995  53.747  1.00  0.00     0.077 A 
ENDROOT
BRANCH   7  11
HETATM   11  N3  UNL     1      22.984   3.241  52.333  1.00  0.00    -0.369 N 
HETATM   12  H7  UNL     1      23.399   3.841  53.108  1.00  0.00     0.161 HD
BRANCH  11  13
HETATM   13  C7  UNL     1      22.378   4.107  51.389  1.00  0.00     0.092 A 
HETATM   14  C8  UNL     1      22.735   5.586  51.447  1.00  0.00     0.037 A 
HETATM   15  C9  UNL     1      23.010   4.757  50.248  1.00  0.00     0.043 A 
BRANCH  15  16
HETATM   16  C10 UNL     1      24.420   4.555  49.847  1.00  0.00    -0.052 A 
HETATM   17  C11 UNL     1      25.117   3.368  49.851  1.00  0.00     0.007 A 
HETATM   18  C12 UNL     1      26.432   3.238  49.463  1.00  0.00     0.001 A 
HETATM   19  C13 UNL     1      27.130   4.343  49.036  1.00  0.00     0.000 A 
HETATM   20  C14 UNL     1      26.515   5.576  48.998  1.00  0.00     0.001 A 
HETATM   21  C15 UNL     1      25.198   5.635  49.401  1.00  0.00     0.007 A 
ENDBRANCH  15  16
ENDBRANCH  11  13
ENDBRANCH   7  11
BRANCH  10  22
HETATM   22  O1  UNL     1      27.828   2.887  53.902  1.00  0.00    -0.360 OA
HETATM   23  H18 UNL     1      28.629   2.720  54.506  1.00  0.00     0.217 HD
ENDBRANCH  10  22
BRANCH   1  24
HETATM   24  P1  UNL     1      28.648   0.119  54.694  1.00  0.00    -0.096 P 
HETATM   25  C1  UNL     1      29.465  -1.088  53.561  1.00  0.00     0.046 C 
HETATM   26  H4  UNL     1      29.512   1.162  55.157  1.00  0.00     0.062 HD
ENDBRANCH   1  24
TORSDOF 5
ENDMDL
MODEL 2
REMARK VINA RESULT:      -7.9      2.155      4.941
REMARK  5 active torsions:
REMARK  status: ('A' for Active; 'I' for Inactive)
REMARK    1  A    between atoms: P1_2  and  C2_3 
REMARK    2  A    between atoms: C6_9  and  N3_10 
REMARK    3  A    between atoms: N3_10  and  C7_11 
REMARK    4  A    between atoms: C9_13  and  C10_14 
REMARK    5  A    between atoms: C18_22  and  O1_23 
ROOT
HETATM    1  C2  UNL     1      27.044   0.974  53.382  1.00  0.00     0.001 A 
HETATM    2  C3  UNL     1      27.478   1.773  52.344  1.00  0.00     0.047 A 
HETATM    3  C4  UNL     1      26.541   2.397  51.557  1.00  0.00     0.073 A 
HETATM    4  N1  UNL     1      26.973   3.164  50.547  1.00  0.00    -0.241 NA
HETATM    5  C5  UNL     1      26.118   3.790  49.740  1.00  0.00     0.235 A 
HETATM    6  N2  UNL     1      24.817   3.685  49.900  1.00  0.00    -0.224 NA
HETATM    7  C6  UNL     1      24.258   2.934  50.894  1.00  0.00     0.138 A 
HETATM    8  C16 UNL     1      25.170   2.306  51.700  1.00  0.00     0.041 A 
HETATM    9  C17 UNL     1      24.805   1.500  52.744  1.00  0.00     0.055 A 
HETATM   10  C18 UNL     1      25.682   0.840  53.578  1.00  0.00     0.077 A 
ENDROOT
BRANCH   7  11
HETATM   11  N3  UNL     1      22.849   2.788  51.097  1.00  0.00    -0.369 N 
HETATM   12  H7  UNL     1      22.622   3.254  52.026  1.00  0.00     0.161 HD
BRANCH  11  13
HETATM   13  C7  UNL     1      21.643   2.263  50.566  1.00  0.00     0.092 A 
HETATM   14  C8  UNL     1      21.698   0.898  49.893  1.00  0.00     0.037 A 
HETATM   15  C9  UNL     1      20.856   1.153  51.087  1.00  0.00     0.043 A 
BRANCH  15  16
HETATM   16  C10 UNL     1      21.169   0.418  52.332  1.00  0.00    -0.052 A 
HETATM   17  C11 UNL     1      21.962  -0.701  52.452  1.00  0.00     0.007 A 
HETATM   18  C12 UNL     1      22.223  -1.346  53.641  1.00  0.00     0.001 A 
HETATM   19  C13 UNL     1      21.673  -0.871  54.808  1.00  0.00     0.000 A 
HETATM   20  C14 UNL     1      20.863   0.245  54.787  1.00  0.00     0.001 A 
HETATM   21  C15 UNL     1      20.644   0.840  53.563  1.00  0.00     0.007 A 
ENDBRANCH  15  16
ENDBRANCH  11  13
ENDBRANCH   7  11
BRANCH  10  22
HETATM   22  O1  UNL     1      25.292   0.029  54.628  1.00  0.00    -0.360 OA
HETATM   23  H18 UNL     1      24.665   0.329  55.371  1.00  0.00     0.217 HD
ENDBRANCH  10  22
BRANCH   1  24
HETATM   24  P1  UNL     1      28.275   0.155  54.416  1.00  0.00    -0.096 P 
HETATM   25  C1  UNL     1      29.335  -1.026  53.472  1.00  0.00     0.046 C 
HETATM   26  H4  UNL     1      29.004   1.027  55.285  1.00  0.00     0.062 HD
ENDBRANCH   1  24
TORSDOF 5
ENDMDL
MODEL 3
REMARK VINA RESULT:      -7.8      1.882      2.899
REMARK  5 active torsions:
REMARK  status: ('A' for Active; 'I' for Inactive)
REMARK    1  A    between atoms: P1_2  and  C2_3 
REMARK    2  A    between atoms: C6_9  and  N3_10 
REMARK    3  A    between atoms: N3_10  and  C7_11 
REMARK    4  A    between atoms: C9_13  and  C10_14 
REMARK    5  A    between atoms: C18_22  and  O1_23 
ROOT
HETATM    1  C2  UNL     1      27.088   0.543  53.627  1.00  0.00     0.001 A 
HETATM    2  C3  UNL     1      26.559  -0.145  54.700  1.00  0.00     0.047 A 
HETATM    3  C4  UNL     1      25.241  -0.529  54.652  1.00  0.00     0.073 A 
HETATM    4  N1  UNL     1      24.735  -1.187  55.702  1.00  0.00    -0.241 NA
HETATM    5  C5  UNL     1      23.463  -1.581  55.725  1.00  0.00     0.235 A 
HETATM    6  N2  UNL     1      22.650  -1.342  54.718  1.00  0.00    -0.224 NA
HETATM    7  C6  UNL     1      23.051  -0.679  53.594  1.00  0.00     0.138 A 
HETATM    8  C16 UNL     1      24.365  -0.291  53.611  1.00  0.00     0.041 A 
HETATM    9  C17 UNL     1      24.949   0.393  52.579  1.00  0.00     0.055 A 
HETATM   10  C18 UNL     1      26.262   0.813  52.553  1.00  0.00     0.077 A 
ENDROOT
BRANCH   7  11
HETATM   11  N3  UNL     1      22.197  -0.393  52.481  1.00  0.00    -0.369 N 
HETATM   12  H7  UNL     1      22.568  -0.954  51.656  1.00  0.00     0.161 HD
BRANCH  11  13
HETATM   13  C7  UNL     1      21.070   0.344  52.037  1.00  0.00     0.092 A 
HETATM   14  C8  UNL     1      20.635   1.545  52.865  1.00  0.00     0.037 A 
HETATM   15  C9  UNL     1      21.060   1.677  51.450  1.00  0.00     0.043 A 
BRANCH  15  16
HETATM   16  C10 UNL     1      22.273   2.471  51.156  1.00  0.00    -0.052 A 
HETATM   17  C11 UNL     1      23.015   2.447  49.997  1.00  0.00     0.007 A 
HETATM   18  C12 UNL     1      24.138   3.213  49.776  1.00  0.00     0.001 A 
HETATM   19  C13 UNL     1      24.580   4.072  50.754  1.00  0.00     0.000 A 
HETATM   20  C14 UNL     1      23.902   4.165  51.950  1.00  0.00     0.001 A 
HETATM   21  C15 UNL     1      22.787   3.370  52.105  1.00  0.00     0.007 A 
ENDBRANCH  15  16
ENDBRANCH  11  13
ENDBRANCH   7  11
BRANCH  10  22
HETATM   22  O1  UNL     1      26.832   1.504  51.500  1.00  0.00    -0.360 OA
HETATM   23  H18 UNL     1      27.068   1.080  50.606  1.00  0.00     0.217 HD
ENDBRANCH  10  22
BRANCH   1  24
HETATM   24  P1  UNL     1      28.820   1.046  53.691  1.00  0.00    -0.096 P 
HETATM   25  C1  UNL     1      29.987  -0.374  53.529  1.00  0.00     0.046 C 
HETATM   26  H4  UNL     1      29.148   2.170  52.868  1.00  0.00     0.062 HD
ENDBRANCH   1  24
TORSDOF 5
ENDMDL
MODEL 4
REMARK VINA RESULT:      -7.7      3.537      5.519
REMARK  5 active torsions:
REMARK  status: ('A' for Active; 'I' for Inactive)
REMARK    1  A    between atoms: P1_2  and  C2_3 
REMARK    2  A    between atoms: C6_9  and  N3_10 
REMARK    3  A    between atoms: N3_10  and  C7_11 
REMARK    4  A    between atoms: C9_13  and  C10_14 
REMARK    5  A    between atoms: C18_22  and  O1_23 
ROOT
HETATM    1  C2  UNL     1      20.140  -0.229  52.591  1.00  0.00     0.001 A 
HETATM    2  C3  UNL     1      20.487  -0.808  53.794  1.00  0.00     0.047 A 
HETATM    3  C4  UNL     1      21.815  -0.860  54.142  1.00  0.00     0.073 A 
HETATM    4  N1  UNL     1      22.142  -1.433  55.307  1.00  0.00    -0.241 NA
HETATM    5  C5  UNL     1      23.411  -1.525  55.701  1.00  0.00     0.235 A 
HETATM    6  N2  UNL     1      24.396  -1.058  54.965  1.00  0.00    -0.224 NA
HETATM    7  C6  UNL     1      24.187  -0.453  53.759  1.00  0.00     0.138 A 
HETATM    8  C16 UNL     1      22.870  -0.380  53.390  1.00  0.00     0.041 A 
HETATM    9  C17 UNL     1      22.460   0.181  52.211  1.00  0.00     0.055 A 
HETATM   10  C18 UNL     1      21.150   0.271  51.791  1.00  0.00     0.077 A 
ENDROOT
BRANCH   7  11
HETATM   11  N3  UNL     1      25.231   0.061  52.925  1.00  0.00    -0.369 N 
HETATM   12  H7  UNL     1      25.299  -0.586  52.082  1.00  0.00     0.161 HD
BRANCH  11  13
HETATM   13  C7  UNL     1      26.214   1.072  52.780  1.00  0.00     0.092 A 
HETATM   14  C8  UNL     1      26.664   1.429  51.370  1.00  0.00     0.037 A 
HETATM   15  C9  UNL     1      26.027   2.423  52.268  1.00  0.00     0.043 A 
BRANCH  15  16
HETATM   16  C10 UNL     1      24.721   2.991  51.866  1.00  0.00    -0.052 A 
HETATM   17  C11 UNL     1      23.809   3.620  52.683  1.00  0.00     0.007 A 
HETATM   18  C12 UNL     1      22.606   4.135  52.253  1.00  0.00     0.001 A 
HETATM   19  C13 UNL     1      22.256   4.034  50.927  1.00  0.00     0.000 A 
HETATM   20  C14 UNL     1      23.107   3.420  50.033  1.00  0.00     0.001 A 
HETATM   21  C15 UNL     1      24.294   2.927  50.531  1.00  0.00     0.007 A 
ENDBRANCH  15  16
ENDBRANCH  11  13
ENDBRANCH   7  11
BRANCH  10  22
HETATM   22  O1  UNL     1      20.758   0.842  50.594  1.00  0.00    -0.360 OA
HETATM   23  H18 UNL     1      20.782   1.842  50.411  1.00  0.00     0.217 HD
ENDBRANCH  10  22
BRANCH   1  24
HETATM   24  P1  UNL     1      18.395  -0.160  52.136  1.00  0.00    -0.096 P 
HETATM   25  C1  UNL     1      17.347  -1.305  53.135  1.00  0.00     0.046 C 
HETATM   26  H4  UNL     1      17.861   1.161  52.009  1.00  0.00     0.062 HD
ENDBRANCH   1  24
TORSDOF 5
ENDMDL
MODEL 5
REMARK VINA RESULT:      -7.5      2.880      5.604
REMARK  5 active torsions:
REMARK  status: ('A' for Active; 'I' for Inactive)
REMARK    1  A    between atoms: P1_2  and  C2_3 
REMARK    2  A    between atoms: C6_9  and  N3_10 
REMARK    3  A    between atoms: N3_10  and  C7_11 
REMARK    4  A    between atoms: C9_13  and  C10_14 
REMARK    5  A    between atoms: C18_22  and  O1_23 
ROOT
HETATM    1  C2  UNL     1      25.241   3.657  50.597  1.00  0.00     0.001 A 
HETATM    2  C3  UNL     1      26.310   2.805  50.778  1.00  0.00     0.047 A 
HETATM    3  C4  UNL     1      26.159   1.725  51.614  1.00  0.00     0.073 A 
HETATM    4  N1  UNL     1      27.206   0.910  51.790  1.00  0.00    -0.241 NA
HETATM    5  C5  UNL     1      27.131  -0.150  52.594  1.00  0.00     0.235 A 
HETATM    6  N2  UNL     1      26.026  -0.441  53.247  1.00  0.00    -0.224 NA
HETATM    7  C6  UNL     1      24.894   0.316  53.147  1.00  0.00     0.138 A 
HETATM    8  C16 UNL     1      25.014   1.395  52.313  1.00  0.00     0.041 A 
HETATM    9  C17 UNL     1      23.992   2.278  52.091  1.00  0.00     0.055 A 
HETATM   10  C18 UNL     1      24.065   3.382  51.269  1.00  0.00     0.077 A 
ENDROOT
BRANCH   7  11
HETATM   11  N3  UNL     1      23.676   0.037  53.847  1.00  0.00    -0.369 N 
HETATM   12  H7  UNL     1      23.562   0.799  54.581  1.00  0.00     0.161 HD
BRANCH  11  13
HETATM   13  C7  UNL     1      22.576  -0.850  53.962  1.00  0.00     0.092 A 
HETATM   14  C8  UNL     1      21.378  -0.393  54.784  1.00  0.00     0.037 A 
HETATM   15  C9  UNL     1      21.264  -0.719  53.341  1.00  0.00     0.043 A 
BRANCH  15  16
HETATM   16  C10 UNL     1      20.885   0.365  52.408  1.00  0.00    -0.052 A 
HETATM   17  C11 UNL     1      20.303   1.568  52.736  1.00  0.00     0.007 A 
HETATM   18  C12 UNL     1      19.973   2.546  51.823  1.00  0.00     0.001 A 
HETATM   19  C13 UNL     1      20.226   2.344  50.487  1.00  0.00     0.000 A 
HETATM   20  C14 UNL     1      20.807   1.168  50.063  1.00  0.00     0.001 A 
HETATM   21  C15 UNL     1      21.111   0.233  51.029  1.00  0.00     0.007 A 
ENDBRANCH  15  16
ENDBRANCH  11  13
ENDBRANCH   7  11
BRANCH  10  22
HETATM   22  O1  UNL     1      23.019   4.262  51.059  1.00  0.00    -0.360 OA
HETATM   23  H18 UNL     1      22.265   4.412  51.725  1.00  0.00     0.217 HD
ENDBRANCH  10  22
BRANCH   1  24
HETATM   24  P1  UNL     1      25.440   5.074  49.498  1.00  0.00    -0.096 P 
HETATM   25  C1  UNL     1      25.342   6.690  50.384  1.00  0.00     0.046 C 
HETATM   26  H4  UNL     1      26.538   4.974  48.585  1.00  0.00     0.062 HD
ENDBRANCH   1  24
TORSDOF 5
ENDMDL
MODEL 6
REMARK VINA RESULT:      -7.3      1.523      2.036
REMARK  5 active torsions:
REMARK  status: ('A' for Active; 'I' for Inactive)
REMARK    1  A    between atoms: P1_2  and  C2_3 
REMARK    2  A    between atoms: C6_9  and  N3_10 
REMARK    3  A    between atoms: N3_10  and  C7_11 
REMARK    4  A    between atoms: C9_13  and  C10_14 
REMARK    5  A    between atoms: C18_22  and  O1_23 
ROOT
HETATM    1  C2  UNL     1      26.697   1.618  52.839  1.00  0.00     0.001 A 
HETATM    2  C3  UNL     1      25.809   0.739  53.425  1.00  0.00     0.047 A 
HETATM    3  C4  UNL     1      24.540   0.641  52.908  1.00  0.00     0.073 A 
HETATM    4  N1  UNL     1      23.684  -0.209  53.489  1.00  0.00    -0.241 NA
HETATM    5  C5  UNL     1      22.435  -0.346  53.044  1.00  0.00     0.235 A 
HETATM    6  N2  UNL     1      21.992   0.344  52.016  1.00  0.00    -0.224 NA
HETATM    7  C6  UNL     1      22.771   1.240  51.343  1.00  0.00     0.138 A 
HETATM    8  C16 UNL     1      24.045   1.352  51.832  1.00  0.00     0.041 A 
HETATM    9  C17 UNL     1      24.972   2.206  51.297  1.00  0.00     0.055 A 
HETATM   10  C18 UNL     1      26.263   2.361  51.758  1.00  0.00     0.077 A 
ENDROOT
BRANCH   7  11
HETATM   11  N3  UNL     1      22.324   2.016  50.225  1.00  0.00    -0.369 N 
HETATM   12  H7  UNL     1      22.943   1.753  49.400  1.00  0.00     0.161 HD
BRANCH  11  13
HETATM   13  C7  UNL     1      21.401   2.997  49.783  1.00  0.00     0.092 A 
HETATM   14  C8  UNL     1      20.883   3.998  50.806  1.00  0.00     0.037 A 
HETATM   15  C9  UNL     1      21.642   4.423  49.605  1.00  0.00     0.043 A 
BRANCH  15  16
HETATM   16  C10 UNL     1      22.952   5.081  49.803  1.00  0.00    -0.052 A 
HETATM   17  C11 UNL     1      23.296   5.946  50.817  1.00  0.00     0.007 A 
HETATM   18  C12 UNL     1      24.536   6.529  50.955  1.00  0.00     0.001 A 
HETATM   19  C13 UNL     1      25.525   6.252  50.041  1.00  0.00     0.000 A 
HETATM   20  C14 UNL     1      25.274   5.397  48.989  1.00  0.00     0.001 A 
HETATM   21  C15 UNL     1      24.011   4.849  48.911  1.00  0.00     0.007 A 
ENDBRANCH  15  16
ENDBRANCH  11  13
ENDBRANCH   7  11
BRANCH  10  22
HETATM   22  O1  UNL     1      27.184   3.230  51.203  1.00  0.00    -0.360 OA
HETATM   23  H18 UNL     1      28.191   3.107  51.274  1.00  0.00     0.217 HD
ENDBRANCH  10  22
BRANCH   1  24
HETATM   24  P1  UNL     1      28.363   1.745  53.519  1.00  0.00    -0.096 P 
HETATM   25  C1  UNL     1      28.763   0.384  54.701  1.00  0.00     0.046 C 
HETATM   26  H4  UNL     1      29.387   1.998  52.552  1.00  0.00     0.062 HD
ENDBRANCH   1  24
TORSDOF 5
ENDMDL
MODEL 7
REMARK VINA RESULT:      -7.1      2.738      3.819
REMARK  5 active torsions:
REMARK  status: ('A' for Active; 'I' for Inactive)
REMARK    1  A    between atoms: P1_2  and  C2_3 
REMARK    2  A    between atoms: C6_9  and  N3_10 
REMARK    3  A    between atoms: N3_10  and  C7_11 
REMARK    4  A    between atoms: C9_13  and  C10_14 
REMARK    5  A    between atoms: C18_22  and  O1_23 
ROOT
HETATM    1  C2  UNL     1      25.393   0.938  52.650  1.00  0.00     0.001 A 
HETATM    2  C3  UNL     1      25.053   0.022  53.624  1.00  0.00     0.047 A 
HETATM    3  C4  UNL     1      23.726  -0.274  53.817  1.00  0.00     0.073 A 
HETATM    4  N1  UNL     1      23.407  -1.158  54.771  1.00  0.00    -0.241 NA
HETATM    5  C5  UNL     1      22.139  -1.484  55.017  1.00  0.00     0.235 A 
HETATM    6  N2  UNL     1      21.148  -0.954  54.333  1.00  0.00    -0.224 NA
HETATM    7  C6  UNL     1      21.348  -0.043  53.336  1.00  0.00     0.138 A 
HETATM    8  C16 UNL     1      22.664   0.266  53.116  1.00  0.00     0.041 A 
HETATM    9  C17 UNL     1      23.066   1.166  52.167  1.00  0.00     0.055 A 
HETATM   10  C18 UNL     1      24.376   1.516  51.914  1.00  0.00     0.077 A 
ENDROOT
BRANCH   7  11
HETATM   11  N3  UNL     1      20.297   0.562  52.575  1.00  0.00    -0.369 N 
HETATM   12  H7  UNL     1      20.230   1.575  52.893  1.00  0.00     0.161 HD
BRANCH  11  13
HETATM   13  C7  UNL     1      19.305   0.349  51.584  1.00  0.00     0.092 A 
HETATM   14  C8  UNL     1      18.439   1.533  51.181  1.00  0.00     0.037 A 
HETATM   15  C9  UNL     1      19.310   0.829  50.209  1.00  0.00     0.043 A 
BRANCH  15  16
HETATM   16  C10 UNL     1      20.422   1.586  49.591  1.00  0.00    -0.052 A 
HETATM   17  C11 UNL     1      21.389   1.089  48.747  1.00  0.00     0.007 A 
HETATM   18  C12 UNL     1      22.402   1.843  48.197  1.00  0.00     0.001 A 
HETATM   19  C13 UNL     1      22.487   3.185  48.486  1.00  0.00     0.000 A 
HETATM   20  C14 UNL     1      21.563   3.772  49.323  1.00  0.00     0.001 A 
HETATM   21  C15 UNL     1      20.576   2.959  49.839  1.00  0.00     0.007 A 
ENDBRANCH  15  16
ENDBRANCH  11  13
ENDBRANCH   7  11
BRANCH  10  22
HETATM   22  O1  UNL     1      24.760   2.429  50.949  1.00  0.00    -0.360 OA
HETATM   23  H18 UNL     1      24.770   3.435  51.095  1.00  0.00     0.217 HD
ENDBRANCH  10  22
BRANCH   1  24
HETATM   24  P1  UNL     1      27.137   1.326  52.397  1.00  0.00    -0.096 P 
HETATM   25  C1  UNL     1      28.135   1.188  53.944  1.00  0.00     0.046 C 
HETATM   26  H4  UNL     1      27.732   0.695  51.259  1.00  0.00     0.062 HD
ENDBRANCH   1  24
TORSDOF 5
ENDMDL
MODEL 8
REMARK VINA RESULT:      -7.0      2.871      6.604
REMARK  5 active torsions:
REMARK  status: ('A' for Active; 'I' for Inactive)
REMARK    1  A    between atoms: P1_2  and  C2_3 
REMARK    2  A    between atoms: C6_9  and  N3_10 
REMARK    3  A    between atoms: N3_10  and  C7_11 
REMARK    4  A    between atoms: C9_13  and  C10_14 
REMARK    5  A    between atoms: C18_22  and  O1_23 
ROOT
HETATM    1  C2  UNL     1      26.426   6.031  49.148  1.00  0.00     0.001 A 
HETATM    2  C3  UNL     1      25.294   6.408  49.841  1.00  0.00     0.047 A 
HETATM    3  C4  UNL     1      24.615   5.456  50.562  1.00  0.00     0.073 A 
HETATM    4  N1  UNL     1      23.512   5.831  51.224  1.00  0.00    -0.241 NA
HETATM    5  C5  UNL     1      22.801   4.957  51.934  1.00  0.00     0.235 A 
HETATM    6  N2  UNL     1      23.151   3.691  52.018  1.00  0.00    -0.224 NA
HETATM    7  C6  UNL     1      24.255   3.192  51.388  1.00  0.00     0.138 A 
HETATM    8  C16 UNL     1      24.957   4.122  50.668  1.00  0.00     0.041 A 
HETATM    9  C17 UNL     1      26.086   3.812  49.959  1.00  0.00     0.055 A 
HETATM   10  C18 UNL     1      26.821   4.708  49.213  1.00  0.00     0.077 A 
ENDROOT
BRANCH   7  11
HETATM   11  N3  UNL     1      24.664   1.822  51.448  1.00  0.00    -0.369 N 
HETATM   12  H7  UNL     1      24.237   1.335  50.604  1.00  0.00     0.161 HD
BRANCH  11  13
HETATM   13  C7  UNL     1      25.394   0.855  52.185  1.00  0.00     0.092 A 
HETATM   14  C8  UNL     1      25.533   1.062  53.687  1.00  0.00     0.037 A 
HETATM   15  C9  UNL     1      24.866  -0.134  53.116  1.00  0.00     0.043 A 
BRANCH  15  16
HETATM   16  C10 UNL     1      23.427  -0.332  53.398  1.00  0.00    -0.052 A 
HETATM   17  C11 UNL     1      22.878  -0.909  54.520  1.00  0.00     0.007 A 
HETATM   18  C12 UNL     1      21.526  -1.066  54.732  1.00  0.00     0.001 A 
HETATM   19  C13 UNL     1      20.633  -0.629  53.783  1.00  0.00     0.000 A 
HETATM   20  C14 UNL     1      21.089  -0.037  52.624  1.00  0.00     0.001 A 
HETATM   21  C15 UNL     1      22.454   0.087  52.477  1.00  0.00     0.007 A 
ENDBRANCH  15  16
ENDBRANCH  11  13
ENDBRANCH   7  11
BRANCH  10  22
HETATM   22  O1  UNL     1      27.960   4.374  48.503  1.00  0.00    -0.360 OA
HETATM   23  H18 UNL     1      28.014   4.377  47.488  1.00  0.00     0.217 HD
ENDBRANCH  10  22
BRANCH   1  24
HETATM   24  P1  UNL     1      27.318   7.282  48.202  1.00  0.00    -0.096 P 
HETATM   25  C1  UNL     1      27.633   8.824  49.168  1.00  0.00     0.046 C 
HETATM   26  H4  UNL     1      28.460   6.795  47.491  1.00  0.00     0.062 HD
ENDBRANCH   1  24
TORSDOF 5
ENDMDL
MODEL 9
REMARK VINA RESULT:      -6.9      2.748      6.067
REMARK  5 active torsions:
REMARK  status: ('A' for Active; 'I' for Inactive)
REMARK    1  A    between atoms: P1_2  and  C2_3 
REMARK    2  A    between atoms: C6_9  and  N3_10 
REMARK    3  A    between atoms: N3_10  and  C7_11 
REMARK    4  A    between atoms: C9_13  and  C10_14 
REMARK    5  A    between atoms: C18_22  and  O1_23 
ROOT
HETATM    1  C2  UNL     1      26.387   6.132  48.984  1.00  0.00     0.001 A 
HETATM    2  C3  UNL     1      25.318   6.939  49.311  1.00  0.00     0.047 A 
HETATM    3  C4  UNL     1      24.249   6.383  49.970  1.00  0.00     0.073 A 
HETATM    4  N1  UNL     1      23.212   7.174  50.274  1.00  0.00    -0.241 NA
HETATM    5  C5  UNL     1      22.139   6.697  50.904  1.00  0.00     0.235 A 
HETATM    6  N2  UNL     1      22.053   5.432  51.255  1.00  0.00    -0.224 NA
HETATM    7  C6  UNL     1      23.046   4.530  50.999  1.00  0.00     0.138 A 
HETATM    8  C16 UNL     1      24.129   5.060  50.350  1.00  0.00     0.041 A 
HETATM    9  C17 UNL     1      25.220   4.313  49.996  1.00  0.00     0.055 A 
HETATM   10  C18 UNL     1      26.329   4.796  49.336  1.00  0.00     0.077 A 
ENDROOT
BRANCH   7  11
HETATM   11  N3  UNL     1      22.987   3.145  51.357  1.00  0.00    -0.369 N 
HETATM   12  H7  UNL     1      23.474   2.605  50.580  1.00  0.00     0.161 HD
BRANCH  11  13
HETATM   13  C7  UNL     1      22.529   2.209  52.318  1.00  0.00     0.092 A 
HETATM   14  C8  UNL     1      22.511   0.738  51.925  1.00  0.00     0.037 A 
HETATM   15  C9  UNL     1      23.326   1.240  53.059  1.00  0.00     0.043 A 
BRANCH  15  16
HETATM   16  C10 UNL     1      24.798   1.121  52.967  1.00  0.00    -0.052 A 
HETATM   17  C11 UNL     1      25.509   0.063  52.449  1.00  0.00     0.007 A 
HETATM   18  C12 UNL     1      26.884   0.007  52.385  1.00  0.00     0.001 A 
HETATM   19  C13 UNL     1      27.631   1.059  52.859  1.00  0.00     0.000 A 
HETATM   20  C14 UNL     1      27.007   2.164  53.396  1.00  0.00     0.001 A 
HETATM   21  C15 UNL     1      25.628   2.153  53.430  1.00  0.00     0.007 A 
ENDBRANCH  15  16
ENDBRANCH  11  13
ENDBRANCH   7  11
BRANCH  10  22
HETATM   22  O1  UNL     1      27.422   4.023  48.988  1.00  0.00    -0.360 OA
HETATM   23  H18 UNL     1      27.350   3.104  48.560  1.00  0.00     0.217 HD
ENDBRANCH  10  22
BRANCH   1  24
HETATM   24  P1  UNL     1      27.792   6.864  48.119  1.00  0.00    -0.096 P 
HETATM   25  C1  UNL     1      27.308   8.270  47.025  1.00  0.00     0.046 C 
HETATM   26  H4  UNL     1      28.930   7.131  48.944  1.00  0.00     0.062 HD
ENDBRANCH   1  24
TORSDOF 5
ENDMDL
