MODEL 1
REMARK VINA RESULT:      -9.6      0.000      0.000
REMARK  4 active torsions:
REMARK  status: ('A' for Active; 'I' for Inactive)
REMARK    1  A    between atoms: C2_2  and  O1_3 
REMARK    2  A    between atoms: O1_3  and  C3_4 
REMARK    3  A    between atoms: C3_4  and  O2_6 
REMARK    4  A    between atoms: O2_6  and  C5_7 
ROOT
HETATM    1  C5  UNL     1      25.537   0.404  52.944  1.00  0.00     0.110 A 
HETATM    2  C6  UNL     1      24.685  -0.231  53.855  1.00  0.00     0.072 A 
HETATM    3  C7  UNL     1      23.297  -0.139  53.802  1.00  0.00     0.077 A 
HETATM    4  N1  UNL     1      22.497  -0.735  54.721  1.00  0.00    -0.241 NA
HETATM    5  C8  UNL     1      21.141  -0.581  54.643  1.00  0.00     0.236 A 
HETATM    6  N2  UNL     1      20.526   0.159  53.673  1.00  0.00    -0.223 NA
HETATM    7  C9  UNL     1      21.286   0.767  52.739  1.00  0.00     0.144 A 
HETATM    8  C10 UNL     1      22.658   0.596  52.827  1.00  0.00     0.075 A 
HETATM    9  C11 UNL     1      23.529   1.198  51.947  1.00  0.00     0.121 A 
HETATM   10  C12 UNL     1      24.902   1.127  51.987  1.00  0.00     0.137 A 
HETATM   11  O3  UNL     1      25.530   1.880  50.958  1.00  0.00    -0.334 OA
HETATM   12  C13 UNL     1      24.771   3.091  50.743  1.00  0.00     0.183 C 
HETATM   13  C14 UNL     1      23.559   2.600  49.973  1.00  0.00     0.213 C 
HETATM   14  O4  UNL     1      22.834   1.897  50.968  1.00  0.00    -0.344 OA
HETATM   15  C15 UNL     1      25.420   4.258  50.291  1.00  0.00    -0.031 C 
HETATM   16  C16 UNL     1      26.732   4.111  49.714  1.00  0.00     0.048 C 
HETATM   17  C17 UNL     1      24.633   5.332  50.494  1.00  0.00     0.055 C 
HETATM   18  C18 UNL     1      25.456   6.431  49.989  1.00  0.00     0.100 C 
HETATM   19  N3  UNL     1      26.100   7.325  49.587  1.00  0.00    -0.191 NA
HETATM   20  C19 UNL     1      23.287   5.795  50.908  1.00  0.00    -0.041 C 
HETATM   21  C20 UNL     1      23.313   7.325  50.898  1.00  0.00     0.050 C 
HETATM   22  C21 UNL     1      22.109   5.299  51.285  1.00  0.00     0.009 C 
HETATM   23  C22 UNL     1      21.056   4.378  51.627  1.00  0.00     0.018 C 
HETATM   24  C23 UNL     1      20.699   3.105  51.740  1.00  0.00     0.090 C 
HETATM   25  N4  UNL     1      20.861   1.658  51.680  1.00  0.00    -0.350 N 
HETATM   26  H24 UNL     1      20.678   1.095  50.790  1.00  0.00     0.166 HD
ENDROOT
BRANCH   1  27
HETATM   27  O2  UNL     1      26.846   0.205  53.154  1.00  0.00    -0.318 OA
BRANCH  27  28
HETATM   28  C3  UNL     1      27.652   0.800  54.105  1.00  0.00     0.262 C 
HETATM   29  C4  UNL     1      28.400   1.969  53.426  1.00  0.00     0.071 C 
BRANCH  28  30
HETATM   30  O1  UNL     1      28.604  -0.083  54.632  1.00  0.00    -0.362 OA
BRANCH  30  31
HETATM   31  C2  UNL     1      29.603  -0.413  53.757  1.00  0.00     0.166 C 
HETATM   32  C1  UNL     1      29.618  -1.875  53.383  1.00  0.00     0.033 C 
ENDBRANCH  30  31
ENDBRANCH  28  30
ENDBRANCH  27  28
ENDBRANCH   1  27
TORSDOF 4
ENDMDL
MODEL 2
REMARK VINA RESULT:      -9.4      2.065      5.397
REMARK  4 active torsions:
REMARK  status: ('A' for Active; 'I' for Inactive)
REMARK    1  A    between atoms: C2_2  and  O1_3 
REMARK    2  A    between atoms: O1_3  and  C3_4 
REMARK    3  A    between atoms: C3_4  and  O2_6 
REMARK    4  A    between atoms: O2_6  and  C5_7 
ROOT
HETATM    1  C5  UNL     1      25.407   0.887  52.451  1.00  0.00     0.110 A 
HETATM    2  C6  UNL     1      26.331   1.487  51.588  1.00  0.00     0.072 A 
HETATM    3  C7  UNL     1      26.055   2.630  50.842  1.00  0.00     0.077 A 
HETATM    4  N1  UNL     1      26.958   3.169  49.984  1.00  0.00    -0.241 NA
HETATM    5  C8  UNL     1      26.621   4.270  49.248  1.00  0.00     0.236 A 
HETATM    6  N2  UNL     1      25.399   4.876  49.323  1.00  0.00    -0.223 NA
HETATM    7  C9  UNL     1      24.473   4.372  50.165  1.00  0.00     0.144 A 
HETATM    8  C10 UNL     1      24.831   3.260  50.909  1.00  0.00     0.075 A 
HETATM    9  C11 UNL     1      23.955   2.644  51.774  1.00  0.00     0.121 A 
HETATM   10  C12 UNL     1      24.204   1.511  52.513  1.00  0.00     0.137 A 
HETATM   11  O3  UNL     1      23.090   1.099  53.294  1.00  0.00    -0.334 OA
HETATM   12  C13 UNL     1      21.881   1.346  52.542  1.00  0.00     0.183 C 
HETATM   13  C14 UNL     1      21.710   2.849  52.659  1.00  0.00     0.213 C 
HETATM   14  O4  UNL     1      22.752   3.337  51.829  1.00  0.00    -0.344 OA
HETATM   15  C15 UNL     1      20.750   0.528  52.739  1.00  0.00    -0.031 C 
HETATM   16  C16 UNL     1      20.711  -0.282  53.930  1.00  0.00     0.048 C 
HETATM   17  C17 UNL     1      19.882   0.688  51.721  1.00  0.00     0.055 C 
HETATM   18  C18 UNL     1      18.797  -0.227  52.080  1.00  0.00     0.100 C 
HETATM   19  N3  UNL     1      17.918  -0.953  52.351  1.00  0.00    -0.191 NA
HETATM   20  C19 UNL     1      19.564   1.469  50.502  1.00  0.00    -0.041 C 
HETATM   21  C20 UNL     1      18.303   0.857  49.890  1.00  0.00     0.050 C 
HETATM   22  C21 UNL     1      20.038   2.496  49.797  1.00  0.00     0.009 C 
HETATM   23  C22 UNL     1      20.857   3.598  49.362  1.00  0.00     0.018 C 
HETATM   24  C23 UNL     1      21.923   4.346  49.614  1.00  0.00     0.090 C 
HETATM   25  N4  UNL     1      23.101   4.796  50.345  1.00  0.00    -0.350 N 
HETATM   26  H24 UNL     1      23.048   5.516  51.133  1.00  0.00     0.166 HD
ENDROOT
BRANCH   1  27
HETATM   27  O2  UNL     1      25.847  -0.210  53.084  1.00  0.00    -0.318 OA
BRANCH  27  28
HETATM   28  C3  UNL     1      27.123  -0.740  53.072  1.00  0.00     0.262 C 
HETATM   29  C4  UNL     1      27.032  -2.177  52.510  1.00  0.00     0.071 C 
BRANCH  28  30
HETATM   30  O1  UNL     1      27.692  -0.804  54.351  1.00  0.00    -0.362 OA
BRANCH  30  31
HETATM   31  C2  UNL     1      28.674   0.124  54.571  1.00  0.00     0.166 C 
HETATM   32  C1  UNL     1      29.820   0.031  53.595  1.00  0.00     0.033 C 
ENDBRANCH  30  31
ENDBRANCH  28  30
ENDBRANCH  27  28
ENDBRANCH   1  27
TORSDOF 4
ENDMDL
MODEL 3
REMARK VINA RESULT:      -8.6      2.745      5.553
REMARK  4 active torsions:
REMARK  status: ('A' for Active; 'I' for Inactive)
REMARK    1  A    between atoms: C2_2  and  O1_3 
REMARK    2  A    between atoms: O1_3  and  C3_4 
REMARK    3  A    between atoms: C3_4  and  O2_6 
REMARK    4  A    between atoms: O2_6  and  C5_7 
ROOT
HETATM    1  C5  UNL     1      22.112   0.575  53.167  1.00  0.00     0.110 A 
HETATM    2  C6  UNL     1      23.153  -0.353  53.289  1.00  0.00     0.072 A 
HETATM    3  C7  UNL     1      24.489  -0.043  53.050  1.00  0.00     0.077 A 
HETATM    4  N1  UNL     1      25.474  -0.972  53.139  1.00  0.00    -0.241 NA
HETATM    5  C8  UNL     1      26.764  -0.623  52.857  1.00  0.00     0.236 A 
HETATM    6  N2  UNL     1      27.133   0.637  52.478  1.00  0.00    -0.223 NA
HETATM    7  C9  UNL     1      26.185   1.591  52.378  1.00  0.00     0.144 A 
HETATM    8  C10 UNL     1      24.882   1.223  52.674  1.00  0.00     0.075 A 
HETATM    9  C11 UNL     1      23.831   2.106  52.573  1.00  0.00     0.121 A 
HETATM   10  C12 UNL     1      22.505   1.819  52.796  1.00  0.00     0.137 A 
HETATM   11  O3  UNL     1      21.649   2.935  52.584  1.00  0.00    -0.334 OA
HETATM   12  C13 UNL     1      22.153   3.698  51.465  1.00  0.00     0.183 C 
HETATM   13  C14 UNL     1      23.347   4.422  52.058  1.00  0.00     0.213 C 
HETATM   14  O4  UNL     1      24.285   3.372  52.225  1.00  0.00    -0.344 OA
HETATM   15  C15 UNL     1      21.262   4.431  50.655  1.00  0.00    -0.031 C 
HETATM   16  C16 UNL     1      19.945   4.692  51.178  1.00  0.00     0.048 C 
HETATM   17  C17 UNL     1      21.861   4.765  49.495  1.00  0.00     0.055 C 
HETATM   18  C18 UNL     1      20.807   5.494  48.790  1.00  0.00     0.100 C 
HETATM   19  N3  UNL     1      19.975   6.083  48.210  1.00  0.00    -0.191 NA
HETATM   20  C19 UNL     1      23.137   4.775  48.743  1.00  0.00    -0.041 C 
HETATM   21  C20 UNL     1      22.837   5.337  47.352  1.00  0.00     0.050 C 
HETATM   22  C21 UNL     1      24.418   4.441  48.902  1.00  0.00     0.009 C 
HETATM   23  C22 UNL     1      25.649   3.964  49.479  1.00  0.00     0.018 C 
HETATM   24  C23 UNL     1      26.237   3.455  50.553  1.00  0.00     0.090 C 
HETATM   25  N4  UNL     1      26.332   2.956  51.919  1.00  0.00    -0.350 N 
HETATM   26  H24 UNL     1      26.519   3.596  52.754  1.00  0.00     0.166 HD
ENDROOT
BRANCH   1  27
HETATM   27  O2  UNL     1      20.888   0.096  53.434  1.00  0.00    -0.318 OA
BRANCH  27  28
HETATM   28  C3  UNL     1      19.753   0.191  52.653  1.00  0.00     0.262 C 
HETATM   29  C4  UNL     1      18.741  -0.862  53.159  1.00  0.00     0.071 C 
BRANCH  28  30
HETATM   30  O1  UNL     1      20.009  -0.061  51.298  1.00  0.00    -0.362 OA
BRANCH  30  31
HETATM   31  C2  UNL     1      19.653   0.964  50.464  1.00  0.00     0.166 C 
HETATM   32  C1  UNL     1      20.609   1.163  49.314  1.00  0.00     0.033 C 
ENDBRANCH  30  31
ENDBRANCH  28  30
ENDBRANCH  27  28
ENDBRANCH   1  27
TORSDOF 4
ENDMDL
MODEL 4
REMARK VINA RESULT:      -8.2      2.499      6.355
REMARK  4 active torsions:
REMARK  status: ('A' for Active; 'I' for Inactive)
REMARK    1  A    between atoms: C2_2  and  O1_3 
REMARK    2  A    between atoms: O1_3  and  C3_4 
REMARK    3  A    between atoms: C3_4  and  O2_6 
REMARK    4  A    between atoms: O2_6  and  C5_7 
ROOT
HETATM    1  C5  UNL     1      20.418   3.215  51.877  1.00  0.00     0.110 A 
HETATM    2  C6  UNL     1      20.170   1.861  52.133  1.00  0.00     0.072 A 
HETATM    3  C7  UNL     1      21.139   0.979  52.606  1.00  0.00     0.077 A 
HETATM    4  N1  UNL     1      20.880  -0.337  52.809  1.00  0.00    -0.241 NA
HETATM    5  C8  UNL     1      21.878  -1.166  53.238  1.00  0.00     0.236 A 
HETATM    6  N2  UNL     1      23.153  -0.741  53.480  1.00  0.00    -0.223 NA
HETATM    7  C9  UNL     1      23.452   0.561  53.292  1.00  0.00     0.144 A 
HETATM    8  C10 UNL     1      22.428   1.391  52.862  1.00  0.00     0.075 A 
HETATM    9  C11 UNL     1      22.629   2.729  52.606  1.00  0.00     0.121 A 
HETATM   10  C12 UNL     1      21.689   3.614  52.131  1.00  0.00     0.137 A 
HETATM   11  O3  UNL     1      22.205   4.925  51.940  1.00  0.00    -0.334 OA
HETATM   12  C13 UNL     1      23.563   4.822  51.456  1.00  0.00     0.183 C 
HETATM   13  C14 UNL     1      24.339   4.439  52.703  1.00  0.00     0.213 C 
HETATM   14  O4  UNL     1      23.932   3.098  52.913  1.00  0.00    -0.344 OA
HETATM   15  C15 UNL     1      24.092   5.828  50.623  1.00  0.00    -0.031 C 
HETATM   16  C16 UNL     1      23.400   7.091  50.580  1.00  0.00     0.048 C 
HETATM   17  C17 UNL     1      25.205   5.381  50.009  1.00  0.00     0.055 C 
HETATM   18  C18 UNL     1      25.601   6.529  49.193  1.00  0.00     0.100 C 
HETATM   19  N3  UNL     1      25.936   7.439  48.532  1.00  0.00    -0.191 NA
HETATM   20  C19 UNL     1      26.191   4.279  49.927  1.00  0.00    -0.041 C 
HETATM   21  C20 UNL     1      27.169   4.629  48.804  1.00  0.00     0.050 C 
HETATM   22  C21 UNL     1      26.465   3.110  50.507  1.00  0.00     0.009 C 
HETATM   23  C22 UNL     1      26.399   1.960  51.372  1.00  0.00     0.018 C 
HETATM   24  C23 UNL     1      25.756   1.368  52.370  1.00  0.00     0.090 C 
HETATM   25  N4  UNL     1      24.741   1.211  53.404  1.00  0.00    -0.350 N 
HETATM   26  H24 UNL     1      24.864   1.594  54.394  1.00  0.00     0.166 HD
ENDROOT
BRANCH   1  27
HETATM   27  O2  UNL     1      19.366   3.910  51.422  1.00  0.00    -0.318 OA
BRANCH  27  28
HETATM   28  C3  UNL     1      18.057   3.485  51.304  1.00  0.00     0.262 C 
HETATM   29  C4  UNL     1      17.521   3.979  49.941  1.00  0.00     0.071 C 
BRANCH  28  30
HETATM   30  O1  UNL     1      17.231   3.999  52.313  1.00  0.00    -0.362 OA
BRANCH  30  31
HETATM   31  C2  UNL     1      15.941   4.226  51.915  1.00  0.00     0.166 C 
HETATM   32  C1  UNL     1      14.916   3.512  52.759  1.00  0.00     0.033 C 
ENDBRANCH  30  31
ENDBRANCH  28  30
ENDBRANCH  27  28
ENDBRANCH   1  27
TORSDOF 4
ENDMDL
MODEL 5
REMARK VINA RESULT:      -8.2      3.001      6.061
REMARK  4 active torsions:
REMARK  status: ('A' for Active; 'I' for Inactive)
REMARK    1  A    between atoms: C2_2  and  O1_3 
REMARK    2  A    between atoms: O1_3  and  C3_4 
REMARK    3  A    between atoms: C3_4  and  O2_6 
REMARK    4  A    between atoms: O2_6  and  C5_7 
ROOT
HETATM    1  C5  UNL     1      20.974   0.562  53.310  1.00  0.00     0.110 A 
HETATM    2  C6  UNL     1      22.030  -0.288  53.656  1.00  0.00     0.072 A 
HETATM    3  C7  UNL     1      23.372   0.054  53.508  1.00  0.00     0.077 A 
HETATM    4  N1  UNL     1      24.376  -0.805  53.817  1.00  0.00    -0.241 NA
HETATM    5  C8  UNL     1      25.675  -0.431  53.617  1.00  0.00     0.236 A 
HETATM    6  N2  UNL     1      26.034   0.786  53.110  1.00  0.00    -0.223 NA
HETATM    7  C9  UNL     1      25.067   1.669  52.790  1.00  0.00     0.144 A 
HETATM    8  C10 UNL     1      23.755   1.279  53.005  1.00  0.00     0.075 A 
HETATM    9  C11 UNL     1      22.688   2.087  52.685  1.00  0.00     0.121 A 
HETATM   10  C12 UNL     1      21.357   1.766  52.815  1.00  0.00     0.137 A 
HETATM   11  O3  UNL     1      20.487   2.800  52.372  1.00  0.00    -0.334 OA
HETATM   12  C13 UNL     1      21.075   3.434  51.215  1.00  0.00     0.183 C 
HETATM   13  C14 UNL     1      22.174   4.289  51.818  1.00  0.00     0.213 C 
HETATM   14  O4  UNL     1      23.128   3.318  52.215  1.00  0.00    -0.344 OA
HETATM   15  C15 UNL     1      20.245   4.010  50.231  1.00  0.00    -0.031 C 
HETATM   16  C16 UNL     1      18.873   4.271  50.583  1.00  0.00     0.048 C 
HETATM   17  C17 UNL     1      20.948   4.220  49.100  1.00  0.00     0.055 C 
HETATM   18  C18 UNL     1      19.946   4.797  48.205  1.00  0.00     0.100 C 
HETATM   19  N3  UNL     1      19.157   5.263  47.472  1.00  0.00    -0.191 NA
HETATM   20  C19 UNL     1      22.294   4.196  48.481  1.00  0.00    -0.041 C 
HETATM   21  C20 UNL     1      22.118   4.557  47.005  1.00  0.00     0.050 C 
HETATM   22  C21 UNL     1      23.563   3.950  48.807  1.00  0.00     0.009 C 
HETATM   23  C22 UNL     1      24.744   3.615  49.560  1.00  0.00     0.018 C 
HETATM   24  C23 UNL     1      25.237   3.280  50.745  1.00  0.00     0.090 C 
HETATM   25  N4  UNL     1      25.209   2.969  52.168  1.00  0.00    -0.350 N 
HETATM   26  H24 UNL     1      25.286   3.721  52.924  1.00  0.00     0.166 HD
ENDROOT
BRANCH   1  27
HETATM   27  O2  UNL     1      19.748   0.061  53.518  1.00  0.00    -0.318 OA
BRANCH  27  28
HETATM   28  C3  UNL     1      19.100  -0.922  52.796  1.00  0.00     0.262 C 
HETATM   29  C4  UNL     1      17.874  -0.276  52.112  1.00  0.00     0.071 C 
BRANCH  28  30
HETATM   30  O1  UNL     1      18.649  -1.975  53.604  1.00  0.00    -0.362 OA
BRANCH  30  31
HETATM   31  C2  UNL     1      17.375  -2.387  53.320  1.00  0.00     0.166 C 
HETATM   32  C1  UNL     1      17.131  -3.844  53.627  1.00  0.00     0.033 C 
ENDBRANCH  30  31
ENDBRANCH  28  30
ENDBRANCH  27  28
ENDBRANCH   1  27
TORSDOF 4
ENDMDL
MODEL 6
REMARK VINA RESULT:      -8.1      2.305      5.713
REMARK  4 active torsions:
REMARK  status: ('A' for Active; 'I' for Inactive)
REMARK    1  A    between atoms: C2_2  and  O1_3 
REMARK    2  A    between atoms: O1_3  and  C3_4 
REMARK    3  A    between atoms: C3_4  and  O2_6 
REMARK    4  A    between atoms: O2_6  and  C5_7 
ROOT
HETATM    1  C5  UNL     1      25.227   2.159  51.333  1.00  0.00     0.110 A 
HETATM    2  C6  UNL     1      26.280   2.552  50.498  1.00  0.00     0.072 A 
HETATM    3  C7  UNL     1      26.387   3.824  49.943  1.00  0.00     0.077 A 
HETATM    4  N1  UNL     1      27.399   4.165  49.106  1.00  0.00    -0.241 NA
HETATM    5  C8  UNL     1      27.435   5.417  48.559  1.00  0.00     0.236 A 
HETATM    6  N2  UNL     1      26.488   6.370  48.807  1.00  0.00    -0.223 NA
HETATM    7  C9  UNL     1      25.465   6.072  49.634  1.00  0.00     0.144 A 
HETATM    8  C10 UNL     1      25.446   4.801  50.187  1.00  0.00     0.075 A 
HETATM    9  C11 UNL     1      24.433   4.379  51.017  1.00  0.00     0.121 A 
HETATM   10  C12 UNL     1      24.304   3.125  51.569  1.00  0.00     0.137 A 
HETATM   11  O3  UNL     1      23.133   2.983  52.363  1.00  0.00    -0.334 OA
HETATM   12  C13 UNL     1      22.061   3.727  51.742  1.00  0.00     0.183 C 
HETATM   13  C14 UNL     1      22.405   5.165  52.082  1.00  0.00     0.213 C 
HETATM   14  O4  UNL     1      23.532   5.409  51.256  1.00  0.00    -0.344 OA
HETATM   15  C15 UNL     1      20.726   3.304  51.904  1.00  0.00    -0.031 C 
HETATM   16  C16 UNL     1      20.443   2.375  52.967  1.00  0.00     0.048 C 
HETATM   17  C17 UNL     1      19.940   3.898  50.984  1.00  0.00     0.055 C 
HETATM   18  C18 UNL     1      18.620   3.344  51.287  1.00  0.00     0.100 C 
HETATM   19  N3  UNL     1      17.554   2.912  51.516  1.00  0.00    -0.191 NA
HETATM   20  C19 UNL     1      19.876   4.920  49.913  1.00  0.00    -0.041 C 
HETATM   21  C20 UNL     1      18.470   4.859  49.313  1.00  0.00     0.050 C 
HETATM   22  C21 UNL     1      20.651   5.833  49.328  1.00  0.00     0.009 C 
HETATM   23  C22 UNL     1      21.782   6.660  48.994  1.00  0.00     0.018 C 
HETATM   24  C23 UNL     1      23.042   6.968  49.271  1.00  0.00     0.090 C 
HETATM   25  N4  UNL     1      24.318   6.887  49.971  1.00  0.00    -0.350 N 
HETATM   26  H24 UNL     1      24.526   7.451  50.854  1.00  0.00     0.166 HD
ENDROOT
BRANCH   1  27
HETATM   27  O2  UNL     1      25.289   0.894  51.772  1.00  0.00    -0.318 OA
BRANCH  27  28
HETATM   28  C3  UNL     1      25.852   0.431  52.945  1.00  0.00     0.262 C 
HETATM   29  C4  UNL     1      27.096  -0.407  52.573  1.00  0.00     0.071 C 
BRANCH  28  30
HETATM   30  O1  UNL     1      24.978  -0.383  53.678  1.00  0.00    -0.362 OA
BRANCH  30  31
HETATM   31  C2  UNL     1      23.671  -0.296  53.280  1.00  0.00     0.166 C 
HETATM   32  C1  UNL     1      22.695  -0.837  54.295  1.00  0.00     0.033 C 
ENDBRANCH  30  31
ENDBRANCH  28  30
ENDBRANCH  27  28
ENDBRANCH   1  27
TORSDOF 4
ENDMDL
MODEL 7
REMARK VINA RESULT:      -8.0      2.619      4.954
REMARK  4 active torsions:
REMARK  status: ('A' for Active; 'I' for Inactive)
REMARK    1  A    between atoms: C2_2  and  O1_3 
REMARK    2  A    between atoms: O1_3  and  C3_4 
REMARK    3  A    between atoms: C3_4  and  O2_6 
REMARK    4  A    between atoms: O2_6  and  C5_7 
ROOT
HETATM    1  C5  UNL     1      25.879   3.043  50.789  1.00  0.00     0.110 A 
HETATM    2  C6  UNL     1      26.524   2.519  51.915  1.00  0.00     0.072 A 
HETATM    3  C7  UNL     1      25.975   1.526  52.722  1.00  0.00     0.077 A 
HETATM    4  N1  UNL     1      26.608   1.063  53.830  1.00  0.00    -0.241 NA
HETATM    5  C8  UNL     1      26.006   0.115  54.608  1.00  0.00     0.236 A 
HETATM    6  N2  UNL     1      24.774  -0.408  54.335  1.00  0.00    -0.223 NA
HETATM    7  C9  UNL     1      24.112   0.025  53.242  1.00  0.00     0.144 A 
HETATM    8  C10 UNL     1      24.737   0.982  52.459  1.00  0.00     0.075 A 
HETATM    9  C11 UNL     1      24.139   1.518  51.340  1.00  0.00     0.121 A 
HETATM   10  C12 UNL     1      24.660   2.503  50.534  1.00  0.00     0.137 A 
HETATM   11  O3  UNL     1      23.792   2.869  49.469  1.00  0.00    -0.334 OA
HETATM   12  C13 UNL     1      22.429   2.826  49.947  1.00  0.00     0.183 C 
HETATM   13  C14 UNL     1      22.134   1.339  49.996  1.00  0.00     0.213 C 
HETATM   14  O4  UNL     1      22.912   0.912  51.101  1.00  0.00    -0.344 OA
HETATM   15  C15 UNL     1      21.460   3.682  49.387  1.00  0.00    -0.031 C 
HETATM   16  C16 UNL     1      21.766   4.301  48.122  1.00  0.00     0.048 C 
HETATM   17  C17 UNL     1      20.378   3.742  50.188  1.00  0.00     0.055 C 
HETATM   18  C18 UNL     1      19.500   4.665  49.469  1.00  0.00     0.100 C 
HETATM   19  N3  UNL     1      18.781   5.402  48.908  1.00  0.00    -0.191 NA
HETATM   20  C19 UNL     1      19.723   3.182  51.394  1.00  0.00    -0.041 C 
HETATM   21  C20 UNL     1      18.429   3.968  51.611  1.00  0.00     0.050 C 
HETATM   22  C21 UNL     1      19.922   2.244  52.320  1.00  0.00     0.009 C 
HETATM   23  C22 UNL     1      20.507   1.167  53.076  1.00  0.00     0.018 C 
HETATM   24  C23 UNL     1      21.520   0.316  53.179  1.00  0.00     0.090 C 
HETATM   25  N4  UNL     1      22.775  -0.323  52.808  1.00  0.00    -0.350 N 
HETATM   26  H24 UNL     1      22.822  -1.150  52.132  1.00  0.00     0.166 HD
ENDROOT
BRANCH   1  27
HETATM   27  O2  UNL     1      26.558   3.995  50.134  1.00  0.00    -0.318 OA
BRANCH  27  28
HETATM   28  C3  UNL     1      26.047   5.073  49.438  1.00  0.00     0.262 C 
HETATM   29  C4  UNL     1      27.179   5.644  48.553  1.00  0.00     0.071 C 
BRANCH  28  30
HETATM   30  O1  UNL     1      25.594   6.095  50.284  1.00  0.00    -0.362 OA
BRANCH  30  31
HETATM   31  C2  UNL     1      24.245   6.317  50.215  1.00  0.00     0.166 C 
HETATM   32  C1  UNL     1      23.510   5.957  51.482  1.00  0.00     0.033 C 
ENDBRANCH  30  31
ENDBRANCH  28  30
ENDBRANCH  27  28
ENDBRANCH   1  27
TORSDOF 4
ENDMDL
MODEL 8
REMARK VINA RESULT:      -8.0      2.395      5.795
REMARK  4 active torsions:
REMARK  status: ('A' for Active; 'I' for Inactive)
REMARK    1  A    between atoms: C2_2  and  O1_3 
REMARK    2  A    between atoms: O1_3  and  C3_4 
REMARK    3  A    between atoms: C3_4  and  O2_6 
REMARK    4  A    between atoms: O2_6  and  C5_7 
ROOT
HETATM    1  C5  UNL     1      20.244   3.444  51.710  1.00  0.00     0.110 A 
HETATM    2  C6  UNL     1      19.961   2.094  51.948  1.00  0.00     0.072 A 
HETATM    3  C7  UNL     1      20.900   1.188  52.435  1.00  0.00     0.077 A 
HETATM    4  N1  UNL     1      20.608  -0.125  52.620  1.00  0.00    -0.241 NA
HETATM    5  C8  UNL     1      21.578  -0.979  53.065  1.00  0.00     0.236 A 
HETATM    6  N2  UNL     1      22.856  -0.583  53.340  1.00  0.00    -0.223 NA
HETATM    7  C9  UNL     1      23.187   0.714  53.170  1.00  0.00     0.144 A 
HETATM    8  C10 UNL     1      22.191   1.569  52.725  1.00  0.00     0.075 A 
HETATM    9  C11 UNL     1      22.426   2.904  52.486  1.00  0.00     0.121 A 
HETATM   10  C12 UNL     1      21.517   3.814  51.997  1.00  0.00     0.137 A 
HETATM   11  O3  UNL     1      22.065   5.115  51.829  1.00  0.00    -0.334 OA
HETATM   12  C13 UNL     1      23.431   4.986  51.376  1.00  0.00     0.183 C 
HETATM   13  C14 UNL     1      24.170   4.577  52.636  1.00  0.00     0.213 C 
HETATM   14  O4  UNL     1      23.730   3.242  52.825  1.00  0.00    -0.344 OA
HETATM   15  C15 UNL     1      24.000   5.988  50.564  1.00  0.00    -0.031 C 
HETATM   16  C16 UNL     1      23.337   7.266  50.516  1.00  0.00     0.048 C 
HETATM   17  C17 UNL     1      25.118   5.522  49.972  1.00  0.00     0.055 C 
HETATM   18  C18 UNL     1      25.558   6.668  49.175  1.00  0.00     0.100 C 
HETATM   19  N3  UNL     1      25.927   7.576  48.531  1.00  0.00    -0.191 NA
HETATM   20  C19 UNL     1      26.082   4.399  49.903  1.00  0.00    -0.041 C 
HETATM   21  C20 UNL     1      27.093   4.738  48.806  1.00  0.00     0.050 C 
HETATM   22  C21 UNL     1      26.317   3.220  50.479  1.00  0.00     0.009 C 
HETATM   23  C22 UNL     1      26.207   2.065  51.332  1.00  0.00     0.018 C 
HETATM   24  C23 UNL     1      25.528   1.478  52.309  1.00  0.00     0.090 C 
HETATM   25  N4  UNL     1      24.486   1.334  53.318  1.00  0.00    -0.350 N 
HETATM   26  H24 UNL     1      24.595   1.707  54.314  1.00  0.00     0.166 HD
ENDROOT
BRANCH   1  27
HETATM   27  O2  UNL     1      19.217   4.166  51.237  1.00  0.00    -0.318 OA
BRANCH  27  28
HETATM   28  C3  UNL     1      19.090   4.737  49.986  1.00  0.00     0.262 C 
HETATM   29  C4  UNL     1      17.640   4.502  49.505  1.00  0.00     0.071 C 
BRANCH  28  30
HETATM   30  O1  UNL     1      19.961   4.172  49.045  1.00  0.00    -0.362 OA
BRANCH  30  31
HETATM   31  C2  UNL     1      20.831   5.068  48.483  1.00  0.00     0.166 C 
HETATM   32  C1  UNL     1      22.049   4.422  47.871  1.00  0.00     0.033 C 
ENDBRANCH  30  31
ENDBRANCH  28  30
ENDBRANCH  27  28
ENDBRANCH   1  27
TORSDOF 4
ENDMDL
MODEL 9
REMARK VINA RESULT:      -7.8      2.333      6.020
REMARK  4 active torsions:
REMARK  status: ('A' for Active; 'I' for Inactive)
REMARK    1  A    between atoms: C2_2  and  O1_3 
REMARK    2  A    between atoms: O1_3  and  C3_4 
REMARK    3  A    between atoms: C3_4  and  O2_6 
REMARK    4  A    between atoms: O2_6  and  C5_7 
ROOT
HETATM    1  C5  UNL     1      24.331   1.866  51.548  1.00  0.00     0.110 A 
HETATM    2  C6  UNL     1      24.736   2.695  50.496  1.00  0.00     0.072 A 
HETATM    3  C7  UNL     1      23.924   3.678  49.936  1.00  0.00     0.077 A 
HETATM    4  N1  UNL     1      24.329   4.442  48.891  1.00  0.00    -0.241 NA
HETATM    5  C8  UNL     1      23.477   5.367  48.355  1.00  0.00     0.236 A 
HETATM    6  N2  UNL     1      22.208   5.572  48.817  1.00  0.00    -0.223 NA
HETATM    7  C9  UNL     1      21.766   4.833  49.855  1.00  0.00     0.144 A 
HETATM    8  C10 UNL     1      22.644   3.905  50.393  1.00  0.00     0.075 A 
HETATM    9  C11 UNL     1      22.286   3.075  51.431  1.00  0.00     0.121 A 
HETATM   10  C12 UNL     1      23.069   2.094  51.993  1.00  0.00     0.137 A 
HETATM   11  O3  UNL     1      22.411   1.382  53.033  1.00  0.00    -0.334 OA
HETATM   12  C13 UNL     1      21.019   1.227  52.678  1.00  0.00     0.183 C 
HETATM   13  C14 UNL     1      20.447   2.608  52.935  1.00  0.00     0.213 C 
HETATM   14  O4  UNL     1      21.003   3.368  51.875  1.00  0.00    -0.344 OA
HETATM   15  C15 UNL     1      20.296   0.108  53.139  1.00  0.00    -0.031 C 
HETATM   16  C16 UNL     1      20.853  -0.642  54.236  1.00  0.00     0.048 C 
HETATM   17  C17 UNL     1      19.162  -0.034  52.426  1.00  0.00     0.055 C 
HETATM   18  C18 UNL     1      18.558  -1.226  53.022  1.00  0.00     0.100 C 
HETATM   19  N3  UNL     1      18.057  -2.179  53.487  1.00  0.00    -0.191 NA
HETATM   20  C19 UNL     1      18.282   0.578  51.403  1.00  0.00    -0.041 C 
HETATM   21  C20 UNL     1      17.141  -0.407  51.141  1.00  0.00     0.050 C 
HETATM   22  C21 UNL     1      18.196   1.681  50.659  1.00  0.00     0.009 C 
HETATM   23  C22 UNL     1      18.480   2.968  50.078  1.00  0.00     0.018 C 
HETATM   24  C23 UNL     1      19.298   4.012  50.061  1.00  0.00     0.090 C 
HETATM   25  N4  UNL     1      20.446   4.822  50.450  1.00  0.00    -0.350 N 
HETATM   26  H24 UNL     1      20.413   5.513  51.264  1.00  0.00     0.166 HD
ENDROOT
BRANCH   1  27
HETATM   27  O2  UNL     1      25.246   0.974  51.956  1.00  0.00    -0.318 OA
BRANCH  27  28
HETATM   28  C3  UNL     1      26.129   1.090  53.012  1.00  0.00     0.262 C 
HETATM   29  C4  UNL     1      27.286   0.094  52.772  1.00  0.00     0.071 C 
BRANCH  28  30
HETATM   30  O1  UNL     1      25.536   0.786  54.245  1.00  0.00    -0.362 OA
BRANCH  30  31
HETATM   31  C2  UNL     1      25.663  -0.525  54.615  1.00  0.00     0.166 C 
HETATM   32  C1  UNL     1      24.433  -1.084  55.284  1.00  0.00     0.033 C 
ENDBRANCH  30  31
ENDBRANCH  28  30
ENDBRANCH  27  28
ENDBRANCH   1  27
TORSDOF 4
ENDMDL
