MODEL 1
REMARK VINA RESULT:      -7.6      0.000      0.000
REMARK  4 active torsions:
REMARK  status: ('A' for Active; 'I' for Inactive)
REMARK    1  A    between atoms: O1_2  and  C2_3 
REMARK    2  A    between atoms: C4_5  and  N1_6 
REMARK    3  A    between atoms: C12_15  and  N3_16 
REMARK    4  A    between atoms: C16_22  and  N5_23 
ROOT
HETATM    1  C2  UNL     1      24.899   0.909  52.207  1.00  0.00     0.097 A 
HETATM    2  C3  UNL     1      23.548   1.127  52.034  1.00  0.00     0.068 A 
HETATM    3  C4  UNL     1      22.604   0.534  52.840  1.00  0.00     0.033 A 
HETATM    4  C10 UNL     1      23.069  -0.292  53.834  1.00  0.00     0.032 A 
HETATM    5  C11 UNL     1      24.420  -0.515  54.012  1.00  0.00     0.035 A 
HETATM    6  C12 UNL     1      25.371   0.079  53.205  1.00  0.00     0.075 A 
ENDROOT
BRANCH   6   7
HETATM    7  N3  UNL     1      26.762  -0.157  53.396  1.00  0.00    -0.287 N 
HETATM    8  C13 UNL     1      27.439  -1.302  53.106  1.00  0.00     0.216 A 
HETATM    9  N4  UNL     1      28.745  -1.411  53.328  1.00  0.00    -0.254 NA
HETATM   10  C14 UNL     1      29.444  -0.388  53.852  1.00  0.00     0.145 A 
HETATM   11  C15 UNL     1      28.810   0.790  54.164  1.00  0.00     0.097 A 
HETATM   12 CL1  UNL     1      29.755   2.099  54.843  1.00  0.00    -0.079 Cl
HETATM   13  C16 UNL     1      27.450   0.879  53.923  1.00  0.00     0.151 A 
BRANCH  13  14
HETATM   14  N5  UNL     1      26.941   2.035  54.252  1.00  0.00    -0.282 NA
HETATM   15  H20 UNL     1      27.628   2.819  54.324  1.00  0.00     0.188 HD
ENDBRANCH  13  14
ENDBRANCH   6   7
BRANCH   1  16
HETATM   16  O1  UNL     1      25.851   1.502  51.401  1.00  0.00    -0.354 OA
HETATM   17  C1  UNL     1      25.759   2.829  50.902  1.00  0.00     0.210 C 
ENDBRANCH   1  16
BRANCH   3  18
HETATM   18  N1  UNL     1      21.216   0.761  52.659  1.00  0.00    -0.377 N 
HETATM   19  C5  UNL     1      20.130   0.221  53.420  1.00  0.00     0.153 C 
HETATM   20  C6  UNL     1      19.090  -0.508  52.604  1.00  0.00     0.291 C 
HETATM   21  N2  UNL     1      18.513   0.429  51.693  1.00  0.00     0.087 N 
HETATM   22  C7  UNL     1      17.493  -0.142  50.836  1.00  0.00     0.310 C 
HETATM   23  C8  UNL     1      19.607   0.854  50.808  1.00  0.00     0.291 C 
HETATM   24  C9  UNL     1      20.609   1.593  51.661  1.00  0.00     0.153 C 
ENDBRANCH   3  18
TORSDOF 4
ENDMDL
MODEL 2
REMARK VINA RESULT:      -7.5      1.521      1.937
REMARK  4 active torsions:
REMARK  status: ('A' for Active; 'I' for Inactive)
REMARK    1  A    between atoms: O1_2  and  C2_3 
REMARK    2  A    between atoms: C4_5  and  N1_6 
REMARK    3  A    between atoms: C12_15  and  N3_16 
REMARK    4  A    between atoms: C16_22  and  N5_23 
ROOT
HETATM    1  C2  UNL     1      25.233   1.428  51.731  1.00  0.00     0.097 A 
HETATM    2  C3  UNL     1      23.954   1.797  51.367  1.00  0.00     0.068 A 
HETATM    3  C4  UNL     1      22.845   1.358  52.053  1.00  0.00     0.033 A 
HETATM    4  C10 UNL     1      23.067   0.528  53.125  1.00  0.00     0.032 A 
HETATM    5  C11 UNL     1      24.345   0.154  53.492  1.00  0.00     0.035 A 
HETATM    6  C12 UNL     1      25.461   0.594  52.807  1.00  0.00     0.075 A 
ENDROOT
BRANCH   6   7
HETATM    7  N3  UNL     1      26.774   0.202  53.194  1.00  0.00    -0.287 N 
HETATM    8  C13 UNL     1      27.331  -1.030  53.044  1.00  0.00     0.216 A 
HETATM    9  N4  UNL     1      28.573  -1.284  53.446  1.00  0.00    -0.254 NA
HETATM   10  C14 UNL     1      29.324  -0.325  54.017  1.00  0.00     0.145 A 
HETATM   11  C15 UNL     1      28.810   0.937  54.193  1.00  0.00     0.097 A 
HETATM   12 CL1  UNL     1      29.818   2.158  54.940  1.00  0.00    -0.079 Cl
HETATM   13  C16 UNL     1      27.515   1.176  53.767  1.00  0.00     0.151 A 
BRANCH  13  14
HETATM   14  N5  UNL     1      27.119   2.402  53.977  1.00  0.00    -0.282 NA
HETATM   15  H20 UNL     1      26.864   2.940  53.118  1.00  0.00     0.188 HD
ENDBRANCH  13  14
ENDBRANCH   6   7
BRANCH   1  16
HETATM   16  O1  UNL     1      26.349   1.866  51.046  1.00  0.00    -0.354 OA
HETATM   17  C1  UNL     1      26.449   3.135  50.412  1.00  0.00     0.210 C 
ENDBRANCH   1  16
BRANCH   3  18
HETATM   18  N1  UNL     1      21.533   1.741  51.678  1.00  0.00    -0.377 N 
HETATM   19  C5  UNL     1      20.870   1.503  50.432  1.00  0.00     0.153 C 
HETATM   20  C6  UNL     1      20.340   2.743  49.751  1.00  0.00     0.291 C 
HETATM   21  N2  UNL     1      19.368   3.333  50.615  1.00  0.00     0.087 N 
HETATM   22  C7  UNL     1      18.775   4.545  50.085  1.00  0.00     0.310 C 
HETATM   23  C8  UNL     1      20.095   3.725  51.831  1.00  0.00     0.291 C 
HETATM   24  C9  UNL     1      20.587   2.457  52.484  1.00  0.00     0.153 C 
ENDBRANCH   3  18
TORSDOF 4
ENDMDL
MODEL 3
REMARK VINA RESULT:      -7.4      1.157      2.024
REMARK  4 active torsions:
REMARK  status: ('A' for Active; 'I' for Inactive)
REMARK    1  A    between atoms: O1_2  and  C2_3 
REMARK    2  A    between atoms: C4_5  and  N1_6 
REMARK    3  A    between atoms: C12_15  and  N3_16 
REMARK    4  A    between atoms: C16_22  and  N5_23 
ROOT
HETATM    1  C2  UNL     1      24.341  -0.113  53.761  1.00  0.00     0.097 A 
HETATM    2  C3  UNL     1      23.028   0.185  53.457  1.00  0.00     0.068 A 
HETATM    3  C4  UNL     1      22.688   0.937  52.357  1.00  0.00     0.033 A 
HETATM    4  C10 UNL     1      23.719   1.384  51.567  1.00  0.00     0.032 A 
HETATM    5  C11 UNL     1      25.034   1.090  51.867  1.00  0.00     0.035 A 
HETATM    6  C12 UNL     1      25.381   0.334  52.971  1.00  0.00     0.075 A 
ENDROOT
BRANCH   6   7
HETATM    7  N3  UNL     1      26.740   0.036  53.271  1.00  0.00    -0.287 N 
HETATM    8  C13 UNL     1      27.368  -1.159  53.095  1.00  0.00     0.216 A 
HETATM    9  N4  UNL     1      28.648  -1.325  53.414  1.00  0.00    -0.254 NA
HETATM   10  C14 UNL     1      29.369  -0.310  53.925  1.00  0.00     0.145 A 
HETATM   11  C15 UNL     1      28.785   0.917  54.124  1.00  0.00     0.097 A 
HETATM   12 CL1  UNL     1      29.757   2.212  54.790  1.00  0.00    -0.079 Cl
HETATM   13  C16 UNL     1      27.451   1.063  53.784  1.00  0.00     0.151 A 
BRANCH  13  14
HETATM   14  N5  UNL     1      26.989   2.264  54.009  1.00  0.00    -0.282 NA
HETATM   15  H20 UNL     1      27.575   2.854  54.641  1.00  0.00     0.188 HD
ENDBRANCH  13  14
ENDBRANCH   6   7
BRANCH   1  16
HETATM   16  O1  UNL     1      24.689  -0.869  54.864  1.00  0.00    -0.354 OA
HETATM   17  C1  UNL     1      23.751  -1.505  55.722  1.00  0.00     0.210 C 
ENDBRANCH   1  16
BRANCH   3  18
HETATM   18  N1  UNL     1      21.338   1.241  52.047  1.00  0.00    -0.377 N 
HETATM   19  C5  UNL     1      20.166   0.899  52.794  1.00  0.00     0.153 C 
HETATM   20  C6  UNL     1      19.118   0.141  52.013  1.00  0.00     0.291 C 
HETATM   21  N2  UNL     1      18.680   0.978  50.943  1.00  0.00     0.087 N 
HETATM   22  C7  UNL     1      17.669   0.369  50.101  1.00  0.00     0.310 C 
HETATM   23  C8  UNL     1      19.858   1.188  50.089  1.00  0.00     0.291 C 
HETATM   24  C9  UNL     1      20.865   1.964  50.902  1.00  0.00     0.153 C 
ENDBRANCH   3  18
TORSDOF 4
ENDMDL
MODEL 4
REMARK VINA RESULT:      -7.2      1.852      2.830
REMARK  4 active torsions:
REMARK  status: ('A' for Active; 'I' for Inactive)
REMARK    1  A    between atoms: O1_2  and  C2_3 
REMARK    2  A    between atoms: C4_5  and  N1_6 
REMARK    3  A    between atoms: C12_15  and  N3_16 
REMARK    4  A    between atoms: C16_22  and  N5_23 
ROOT
HETATM    1  C2  UNL     1      24.124   0.157  53.411  1.00  0.00     0.097 A 
HETATM    2  C3  UNL     1      22.876   0.397  52.873  1.00  0.00     0.068 A 
HETATM    3  C4  UNL     1      22.696   1.232  51.795  1.00  0.00     0.033 A 
HETATM    4  C10 UNL     1      23.821   1.822  51.272  1.00  0.00     0.032 A 
HETATM    5  C11 UNL     1      25.071   1.587  51.808  1.00  0.00     0.035 A 
HETATM    6  C12 UNL     1      25.257   0.749  52.890  1.00  0.00     0.075 A 
ENDROOT
BRANCH   6   7
HETATM    7  N3  UNL     1      26.551   0.512  53.435  1.00  0.00    -0.287 N 
HETATM    8  C13 UNL     1      27.253   1.345  54.251  1.00  0.00     0.216 A 
HETATM    9  N4  UNL     1      28.461   1.020  54.702  1.00  0.00    -0.254 NA
HETATM   10  C14 UNL     1      29.032  -0.150  54.363  1.00  0.00     0.145 A 
HETATM   11  C15 UNL     1      28.368  -1.027  53.542  1.00  0.00     0.097 A 
HETATM   12 CL1  UNL     1      29.145  -2.541  53.125  1.00  0.00    -0.079 Cl
HETATM   13  C16 UNL     1      27.112  -0.666  53.086  1.00  0.00     0.151 A 
BRANCH  13  14
HETATM   14  N5  UNL     1      26.563  -1.564  52.314  1.00  0.00    -0.282 NA
HETATM   15  H20 UNL     1      27.233  -2.128  51.743  1.00  0.00     0.188 HD
ENDBRANCH  13  14
ENDBRANCH   6   7
BRANCH   1  16
HETATM   16  O1  UNL     1      24.311  -0.681  54.494  1.00  0.00    -0.354 OA
HETATM   17  C1  UNL     1      23.253  -1.276  55.234  1.00  0.00     0.210 C 
ENDBRANCH   1  16
BRANCH   3  18
HETATM   18  N1  UNL     1      21.412   1.475  51.243  1.00  0.00    -0.377 N 
HETATM   19  C5  UNL     1      20.668   2.697  51.253  1.00  0.00     0.153 C 
HETATM   20  C6  UNL     1      19.282   2.587  51.844  1.00  0.00     0.291 C 
HETATM   21  N2  UNL     1      18.537   1.671  51.041  1.00  0.00     0.087 N 
HETATM   22  C7  UNL     1      17.177   1.465  51.500  1.00  0.00     0.310 C 
HETATM   23  C8  UNL     1      19.219   0.376  51.170  1.00  0.00     0.291 C 
HETATM   24  C9  UNL     1      20.586   0.528  50.551  1.00  0.00     0.153 C 
ENDBRANCH   3  18
TORSDOF 4
ENDMDL
MODEL 5
REMARK VINA RESULT:      -7.1      3.170      7.613
REMARK  4 active torsions:
REMARK  status: ('A' for Active; 'I' for Inactive)
REMARK    1  A    between atoms: O1_2  and  C2_3 
REMARK    2  A    between atoms: C4_5  and  N1_6 
REMARK    3  A    between atoms: C12_15  and  N3_16 
REMARK    4  A    between atoms: C16_22  and  N5_23 
ROOT
HETATM    1  C2  UNL     1      23.430   2.377  52.297  1.00  0.00     0.097 A 
HETATM    2  C3  UNL     1      24.584   1.797  52.782  1.00  0.00     0.068 A 
HETATM    3  C4  UNL     1      24.613   0.500  53.237  1.00  0.00     0.033 A 
HETATM    4  C10 UNL     1      23.432  -0.201  53.190  1.00  0.00     0.032 A 
HETATM    5  C11 UNL     1      22.274   0.374  52.707  1.00  0.00     0.035 A 
HETATM    6  C12 UNL     1      22.241   1.677  52.247  1.00  0.00     0.075 A 
ENDROOT
BRANCH   6   7
HETATM    7  N3  UNL     1      21.041   2.261  51.751  1.00  0.00    -0.287 N 
HETATM    8  C13 UNL     1      20.035   2.803  52.491  1.00  0.00     0.216 A 
HETATM    9  N4  UNL     1      18.954   3.323  51.918  1.00  0.00    -0.254 NA
HETATM   10  C14 UNL     1      18.817   3.328  50.579  1.00  0.00     0.145 A 
HETATM   11  C15 UNL     1      19.802   2.793  49.785  1.00  0.00     0.097 A 
HETATM   12 CL1  UNL     1      19.587   2.820  48.047  1.00  0.00    -0.079 Cl
HETATM   13  C16 UNL     1      20.917   2.258  50.406  1.00  0.00     0.151 A 
BRANCH  13  14
HETATM   14  N5  UNL     1      21.795   1.776  49.568  1.00  0.00    -0.282 NA
HETATM   15  H20 UNL     1      22.417   2.485  49.119  1.00  0.00     0.188 HD
ENDBRANCH  13  14
ENDBRANCH   6   7
BRANCH   1  16
HETATM   16  O1  UNL     1      23.395   3.679  51.838  1.00  0.00    -0.354 OA
HETATM   17  C1  UNL     1      23.438   4.823  52.681  1.00  0.00     0.210 C 
ENDBRANCH   1  16
BRANCH   3  18
HETATM   18  N1  UNL     1      25.801  -0.093  53.734  1.00  0.00    -0.377 N 
HETATM   19  C5  UNL     1      26.610   0.343  54.831  1.00  0.00     0.153 C 
HETATM   20  C6  UNL     1      28.064   0.571  54.493  1.00  0.00     0.291 C 
HETATM   21  N2  UNL     1      28.613  -0.675  54.063  1.00  0.00     0.087 N 
HETATM   22  C7  UNL     1      30.014  -0.602  53.699  1.00  0.00     0.310 C 
HETATM   23  C8  UNL     1      27.884  -1.034  52.838  1.00  0.00     0.291 C 
HETATM   24  C9  UNL     1      26.446  -1.270  53.228  1.00  0.00     0.153 C 
ENDBRANCH   3  18
TORSDOF 4
ENDMDL
MODEL 6
REMARK VINA RESULT:      -7.0      2.749      3.777
REMARK  4 active torsions:
REMARK  status: ('A' for Active; 'I' for Inactive)
REMARK    1  A    between atoms: O1_2  and  C2_3 
REMARK    2  A    between atoms: C4_5  and  N1_6 
REMARK    3  A    between atoms: C12_15  and  N3_16 
REMARK    4  A    between atoms: C16_22  and  N5_23 
ROOT
HETATM    1  C2  UNL     1      24.812   1.756  52.384  1.00  0.00     0.097 A 
HETATM    2  C3  UNL     1      23.777   2.250  51.618  1.00  0.00     0.068 A 
HETATM    3  C4  UNL     1      24.000   2.988  50.479  1.00  0.00     0.033 A 
HETATM    4  C10 UNL     1      25.310   3.215  50.133  1.00  0.00     0.032 A 
HETATM    5  C11 UNL     1      26.350   2.725  50.897  1.00  0.00     0.035 A 
HETATM    6  C12 UNL     1      26.131   1.982  52.041  1.00  0.00     0.075 A 
ENDROOT
BRANCH   6   7
HETATM    7  N3  UNL     1      27.211   1.481  52.822  1.00  0.00    -0.287 N 
HETATM    8  C13 UNL     1      27.987   2.191  53.686  1.00  0.00     0.216 A 
HETATM    9  N4  UNL     1      28.975   1.616  54.365  1.00  0.00    -0.254 NA
HETATM   10  C14 UNL     1      29.241   0.305  54.219  1.00  0.00     0.145 A 
HETATM   11  C15 UNL     1      28.489  -0.458  53.360  1.00  0.00     0.097 A 
HETATM   12 CL1  UNL     1      28.867  -2.160  53.198  1.00  0.00    -0.079 Cl
HETATM   13  C16 UNL     1      27.467   0.164  52.664  1.00  0.00     0.151 A 
BRANCH  13  14
HETATM   14  N5  UNL     1      26.812  -0.644  51.875  1.00  0.00    -0.282 NA
HETATM   15  H20 UNL     1      27.327  -1.509  51.598  1.00  0.00     0.188 HD
ENDBRANCH  13  14
ENDBRANCH   6   7
BRANCH   1  16
HETATM   16  O1  UNL     1      24.595   1.015  53.529  1.00  0.00    -0.354 OA
HETATM   17  C1  UNL     1      23.732  -0.113  53.596  1.00  0.00     0.210 C 
ENDBRANCH   1  16
BRANCH   3  18
HETATM   18  N1  UNL     1      22.933   3.492  49.694  1.00  0.00    -0.377 N 
HETATM   19  C5  UNL     1      21.747   4.156  50.143  1.00  0.00     0.153 C 
HETATM   20  C6  UNL     1      20.456   3.526  49.678  1.00  0.00     0.291 C 
HETATM   21  N2  UNL     1      20.430   3.585  48.251  1.00  0.00     0.087 N 
HETATM   22  C7  UNL     1      19.238   3.006  47.664  1.00  0.00     0.310 C 
HETATM   23  C8  UNL     1      21.559   2.762  47.795  1.00  0.00     0.291 C 
HETATM   24  C9  UNL     1      22.823   3.439  48.264  1.00  0.00     0.153 C 
ENDBRANCH   3  18
TORSDOF 4
ENDMDL
MODEL 7
REMARK VINA RESULT:      -6.8      3.477      8.125
REMARK  4 active torsions:
REMARK  status: ('A' for Active; 'I' for Inactive)
REMARK    1  A    between atoms: O1_2  and  C2_3 
REMARK    2  A    between atoms: C4_5  and  N1_6 
REMARK    3  A    between atoms: C12_15  and  N3_16 
REMARK    4  A    between atoms: C16_22  and  N5_23 
ROOT
HETATM    1  C2  UNL     1      21.944   1.169  52.952  1.00  0.00     0.097 A 
HETATM    2  C3  UNL     1      23.271   0.807  53.061  1.00  0.00     0.068 A 
HETATM    3  C4  UNL     1      24.204   1.166  52.116  1.00  0.00     0.033 A 
HETATM    4  C10 UNL     1      23.755   1.905  51.050  1.00  0.00     0.032 A 
HETATM    5  C11 UNL     1      22.428   2.268  50.934  1.00  0.00     0.035 A 
HETATM    6  C12 UNL     1      21.488   1.911  51.881  1.00  0.00     0.075 A 
ENDROOT
BRANCH   6   7
HETATM    7  N3  UNL     1      20.121   2.291  51.753  1.00  0.00    -0.287 N 
HETATM    8  C13 UNL     1      19.599   3.529  51.971  1.00  0.00     0.216 A 
HETATM    9  N4  UNL     1      18.300   3.771  51.821  1.00  0.00    -0.254 NA
HETATM   10  C14 UNL     1      17.455   2.793  51.447  1.00  0.00     0.145 A 
HETATM   11  C15 UNL     1      17.929   1.526  51.215  1.00  0.00     0.097 A 
HETATM   12 CL1  UNL     1      16.797   0.281  50.729  1.00  0.00    -0.079 Cl
HETATM   13  C16 UNL     1      19.285   1.300  51.378  1.00  0.00     0.151 A 
BRANCH  13  14
HETATM   14  N5  UNL     1      19.636   0.066  51.134  1.00  0.00    -0.282 NA
HETATM   15  H20 UNL     1      19.107  -0.661  51.666  1.00  0.00     0.188 HD
ENDBRANCH  13  14
ENDBRANCH   6   7
BRANCH   1  16
HETATM   16  O1  UNL     1      21.002   0.812  53.897  1.00  0.00    -0.354 OA
HETATM   17  C1  UNL     1      20.994  -0.433  54.584  1.00  0.00     0.210 C 
ENDBRANCH   1  16
BRANCH   3  18
HETATM   18  N1  UNL     1      25.568   0.793  52.233  1.00  0.00    -0.377 N 
HETATM   19  C5  UNL     1      26.113  -0.353  52.893  1.00  0.00     0.153 C 
HETATM   20  C6  UNL     1      27.154  -0.043  53.942  1.00  0.00     0.291 C 
HETATM   21  N2  UNL     1      28.249   0.603  53.292  1.00  0.00     0.087 N 
HETATM   22  C7  UNL     1      29.329   0.965  54.189  1.00  0.00     0.310 C 
HETATM   23  C8  UNL     1      27.714   1.863  52.758  1.00  0.00     0.291 C 
HETATM   24  C9  UNL     1      26.696   1.503  51.704  1.00  0.00     0.153 C 
ENDBRANCH   3  18
TORSDOF 4
ENDMDL
MODEL 8
REMARK VINA RESULT:      -6.7      2.103      3.109
REMARK  4 active torsions:
REMARK  status: ('A' for Active; 'I' for Inactive)
REMARK    1  A    between atoms: O1_2  and  C2_3 
REMARK    2  A    between atoms: C4_5  and  N1_6 
REMARK    3  A    between atoms: C12_15  and  N3_16 
REMARK    4  A    between atoms: C16_22  and  N5_23 
ROOT
HETATM    1  C2  UNL     1      24.492   0.977  52.598  1.00  0.00     0.097 A 
HETATM    2  C3  UNL     1      23.407   1.577  51.991  1.00  0.00     0.068 A 
HETATM    3  C4  UNL     1      23.552   2.455  50.942  1.00  0.00     0.033 A 
HETATM    4  C10 UNL     1      24.834   2.713  50.521  1.00  0.00     0.032 A 
HETATM    5  C11 UNL     1      25.923   2.117  51.126  1.00  0.00     0.035 A 
HETATM    6  C12 UNL     1      25.782   1.234  52.179  1.00  0.00     0.075 A 
ENDROOT
BRANCH   6   7
HETATM    7  N3  UNL     1      26.911   0.625  52.795  1.00  0.00    -0.287 N 
HETATM    8  C13 UNL     1      27.272  -0.685  52.716  1.00  0.00     0.216 A 
HETATM    9  N4  UNL     1      28.353  -1.147  53.337  1.00  0.00    -0.254 NA
HETATM   10  C14 UNL     1      29.130  -0.329  54.070  1.00  0.00     0.145 A 
HETATM   11  C15 UNL     1      28.812   1.002  54.184  1.00  0.00     0.097 A 
HETATM   12 CL1  UNL     1      29.849   2.034  55.146  1.00  0.00    -0.079 Cl
HETATM   13  C16 UNL     1      27.682   1.458  53.528  1.00  0.00     0.151 A 
BRANCH  13  14
HETATM   14  N5  UNL     1      27.465   2.734  53.697  1.00  0.00    -0.282 NA
HETATM   15  H20 UNL     1      28.193   3.366  53.293  1.00  0.00     0.188 HD
ENDBRANCH  13  14
ENDBRANCH   6   7
BRANCH   1  16
HETATM   16  O1  UNL     1      24.352   0.095  53.651  1.00  0.00    -0.354 OA
HETATM   17  C1  UNL     1      23.194  -0.696  53.881  1.00  0.00     0.210 C 
ENDBRANCH   1  16
BRANCH   3  18
HETATM   18  N1  UNL     1      22.435   3.068  50.320  1.00  0.00    -0.377 N 
HETATM   19  C5  UNL     1      22.131   4.464  50.235  1.00  0.00     0.153 C 
HETATM   20  C6  UNL     1      20.770   4.847  50.765  1.00  0.00     0.291 C 
HETATM   21  N2  UNL     1      19.789   4.176  49.974  1.00  0.00     0.087 N 
HETATM   22  C7  UNL     1      18.424   4.452  50.378  1.00  0.00     0.310 C 
HETATM   23  C8  UNL     1      20.005   2.740  50.197  1.00  0.00     0.291 C 
HETATM   24  C9  UNL     1      21.364   2.401  49.636  1.00  0.00     0.153 C 
ENDBRANCH   3  18
TORSDOF 4
ENDMDL
MODEL 9
REMARK VINA RESULT:      -6.7      3.835      7.759
REMARK  4 active torsions:
REMARK  status: ('A' for Active; 'I' for Inactive)
REMARK    1  A    between atoms: O1_2  and  C2_3 
REMARK    2  A    between atoms: C4_5  and  N1_6 
REMARK    3  A    between atoms: C12_15  and  N3_16 
REMARK    4  A    between atoms: C16_22  and  N5_23 
ROOT
HETATM    1  C2  UNL     1      24.176   3.296  51.834  1.00  0.00     0.097 A 
HETATM    2  C3  UNL     1      24.926   2.476  52.653  1.00  0.00     0.068 A 
HETATM    3  C4  UNL     1      26.189   2.056  52.304  1.00  0.00     0.033 A 
HETATM    4  C10 UNL     1      26.676   2.490  51.095  1.00  0.00     0.032 A 
HETATM    5  C11 UNL     1      25.929   3.308  50.272  1.00  0.00     0.035 A 
HETATM    6  C12 UNL     1      24.661   3.734  50.618  1.00  0.00     0.075 A 
ENDROOT
BRANCH   6   7
HETATM    7  N3  UNL     1      23.899   4.578  49.761  1.00  0.00    -0.287 N 
HETATM    8  C13 UNL     1      23.157   4.190  48.688  1.00  0.00     0.216 A 
HETATM    9  N4  UNL     1      22.483   5.070  47.954  1.00  0.00    -0.254 NA
HETATM   10  C14 UNL     1      22.514   6.383  48.250  1.00  0.00     0.145 A 
HETATM   11  C15 UNL     1      23.248   6.829  49.322  1.00  0.00     0.097 A 
HETATM   12 CL1  UNL     1      23.262   8.544  49.675  1.00  0.00    -0.079 Cl
HETATM   13  C16 UNL     1      23.940   5.892  50.070  1.00  0.00     0.151 A 
BRANCH  13  14
HETATM   14  N5  UNL     1      24.606   6.414  51.065  1.00  0.00    -0.282 NA
HETATM   15  H20 UNL     1      25.246   7.199  50.808  1.00  0.00     0.188 HD
ENDBRANCH  13  14
ENDBRANCH   6   7
BRANCH   1  16
HETATM   16  O1  UNL     1      22.908   3.721  52.179  1.00  0.00    -0.354 OA
HETATM   17  C1  UNL     1      21.748   2.902  52.115  1.00  0.00     0.210 C 
ENDBRANCH   1  16
BRANCH   3  18
HETATM   18  N1  UNL     1      26.957   1.215  53.149  1.00  0.00    -0.377 N 
HETATM   19  C5  UNL     1      28.135   1.551  53.889  1.00  0.00     0.153 C 
HETATM   20  C6  UNL     1      29.328   0.668  53.612  1.00  0.00     0.291 C 
HETATM   21  N2  UNL     1      28.982  -0.664  53.994  1.00  0.00     0.087 N 
HETATM   22  C7  UNL     1      30.043  -1.628  53.777  1.00  0.00     0.310 C 
HETATM   23  C8  UNL     1      27.875  -1.061  53.114  1.00  0.00     0.291 C 
HETATM   24  C9  UNL     1      26.704  -0.167  53.439  1.00  0.00     0.153 C 
ENDBRANCH   3  18
TORSDOF 4
ENDMDL
