MODEL 1
REMARK VINA RESULT:      -7.4      0.000      0.000
REMARK  8 active torsions:
REMARK  status: ('A' for Active; 'I' for Inactive)
REMARK    1  A    between atoms: C3_3  and  C4_5 
REMARK    2  A    between atoms: C4_5  and  C5_6 
REMARK    3  A    between atoms: C5_6  and  C6_7 
REMARK    4  A    between atoms: C6_7  and  C7_8 
REMARK    5  A    between atoms: C7_8  and  C8_9 
REMARK    6  A    between atoms: C9_11  and  C10_12 
REMARK    7  A    between atoms: C10_12  and  S1_13 
REMARK    8  A    between atoms: S1_13  and  C11_14 
ROOT
HETATM    1  C10 UNL     1      22.715   1.079  52.893  1.00  0.00     0.109 C 
ENDROOT
BRANCH   1   2
HETATM    2  C9  UNL     1      23.008   1.383  51.445  1.00  0.00     0.003 C 
HETATM    3  C8  UNL     1      23.441   2.570  51.017  1.00  0.00     0.015 C 
HETATM    4 BR1  UNL     1      23.683   3.914  52.355  1.00  0.00    -0.051 Br
BRANCH   3   5
HETATM    5  C7  UNL     1      23.729   2.889  49.631  1.00  0.00     0.070 C 
BRANCH   5   6
HETATM    6  C6  UNL     1      24.735   3.719  49.386  1.00  0.00    -0.148 C 
BRANCH   6   7
HETATM    7  C5  UNL     1      25.603   4.722  49.345  1.00  0.00     0.077 C 
BRANCH   7   8
HETATM    8  C4  UNL     1      27.030   4.381  49.272  1.00  0.00     0.069 C 
BRANCH   8   9
HETATM    9  C3  UNL     1      27.790   5.406  48.534  1.00  0.00     0.009 C 
HETATM   10  C2  UNL     1      27.211   6.550  48.231  1.00  0.00    -0.012 C 
HETATM   11  C1  UNL     1      27.788   7.700  47.503  1.00  0.00     0.037 C 
HETATM   12 CL1  UNL     1      29.442   5.171  48.035  1.00  0.00    -0.089 Cl
ENDBRANCH   8   9
ENDBRANCH   7   8
ENDBRANCH   6   7
ENDBRANCH   5   6
ENDBRANCH   3   5
ENDBRANCH   1   2
BRANCH   1  13
HETATM   13  S1  UNL     1      23.863  -0.213  53.428  1.00  0.00    -0.105 SA
BRANCH  13  14
HETATM   14  C11 UNL     1      25.478   0.445  53.724  1.00  0.00     0.110 C 
HETATM   15  C12 UNL     1      26.484   1.244  53.824  1.00  0.00     0.122 C 
HETATM   16  N1  UNL     1      27.808   1.531  54.122  1.00  0.00    -0.395 N 
HETATM   17  C13 UNL     1      28.823   0.752  54.759  1.00  0.00     0.146 C 
HETATM   18  H13 UNL     1      27.990   2.508  53.780  1.00  0.00     0.159 HD
HETATM   19  C14 UNL     1      29.336  -0.416  53.997  1.00  0.00     0.196 C 
HETATM   20  O1  UNL     1      28.425  -1.407  53.656  1.00  0.00    -0.343 OA
HETATM   21  C15 UNL     1      28.777  -2.594  53.010  1.00  0.00     0.252 C 
HETATM   22  N2  UNL     1      27.507  -2.602  52.796  1.00  0.00    -0.230 NA
HETATM   23  C16 UNL     1      26.775  -1.505  53.326  1.00  0.00     0.236 C 
HETATM   24  N3  UNL     1      26.225  -0.685  54.163  1.00  0.00    -0.234 NA
ENDBRANCH  13  14
ENDBRANCH   1  13
TORSDOF 8
ENDMDL
MODEL 2
REMARK VINA RESULT:      -7.4      1.701      2.084
REMARK  8 active torsions:
REMARK  status: ('A' for Active; 'I' for Inactive)
REMARK    1  A    between atoms: C3_3  and  C4_5 
REMARK    2  A    between atoms: C4_5  and  C5_6 
REMARK    3  A    between atoms: C5_6  and  C6_7 
REMARK    4  A    between atoms: C6_7  and  C7_8 
REMARK    5  A    between atoms: C7_8  and  C8_9 
REMARK    6  A    between atoms: C9_11  and  C10_12 
REMARK    7  A    between atoms: C10_12  and  S1_13 
REMARK    8  A    between atoms: S1_13  and  C11_14 
ROOT
HETATM    1  C10 UNL     1      22.586   0.680  53.241  1.00  0.00     0.109 C 
ENDROOT
BRANCH   1   2
HETATM    2  C9  UNL     1      22.801   1.066  51.799  1.00  0.00     0.003 C 
HETATM    3  C8  UNL     1      21.833   1.048  50.882  1.00  0.00     0.015 C 
HETATM    4 BR1  UNL     1      20.106   0.494  51.487  1.00  0.00    -0.051 Br
BRANCH   3   5
HETATM    5  C7  UNL     1      22.012   1.413  49.489  1.00  0.00     0.070 C 
BRANCH   5   6
HETATM    6  C6  UNL     1      22.591   2.578  49.227  1.00  0.00    -0.148 C 
BRANCH   6   7
HETATM    7  C5  UNL     1      23.416   3.574  48.927  1.00  0.00     0.077 C 
BRANCH   7   8
HETATM    8  C4  UNL     1      24.181   4.174  50.029  1.00  0.00     0.069 C 
BRANCH   8   9
HETATM    9  C3  UNL     1      25.633   4.017  49.822  1.00  0.00     0.009 C 
HETATM   10  C2  UNL     1      26.269   4.856  49.030  1.00  0.00    -0.012 C 
HETATM   11  C1  UNL     1      27.707   4.876  48.690  1.00  0.00     0.037 C 
HETATM   12 CL1  UNL     1      26.558   2.756  50.587  1.00  0.00    -0.089 Cl
ENDBRANCH   8   9
ENDBRANCH   7   8
ENDBRANCH   6   7
ENDBRANCH   5   6
ENDBRANCH   3   5
ENDBRANCH   1   2
BRANCH   1  13
HETATM   13  S1  UNL     1      23.862  -0.524  53.685  1.00  0.00    -0.105 SA
BRANCH  13  14
HETATM   14  C11 UNL     1      25.434   0.255  53.903  1.00  0.00     0.110 C 
HETATM   15  C12 UNL     1      26.379   1.130  53.959  1.00  0.00     0.122 C 
HETATM   16  N1  UNL     1      27.691   1.517  54.190  1.00  0.00    -0.395 N 
HETATM   17  C13 UNL     1      28.795   0.816  54.764  1.00  0.00     0.146 C 
HETATM   18  H13 UNL     1      27.778   2.508  53.849  1.00  0.00     0.159 HD
HETATM   19  C14 UNL     1      29.356  -0.304  53.964  1.00  0.00     0.196 C 
HETATM   20  O1  UNL     1      28.508  -1.361  53.661  1.00  0.00    -0.343 OA
HETATM   21  C15 UNL     1      28.916  -2.512  52.985  1.00  0.00     0.252 C 
HETATM   22  N2  UNL     1      27.641  -2.617  52.837  1.00  0.00    -0.230 NA
HETATM   23  C16 UNL     1      26.855  -1.584  53.417  1.00  0.00     0.236 C 
HETATM   24  N3  UNL     1      26.289  -0.815  54.291  1.00  0.00    -0.234 NA
ENDBRANCH  13  14
ENDBRANCH   1  13
TORSDOF 8
ENDMDL
MODEL 3
REMARK VINA RESULT:      -6.9      4.043      6.136
REMARK  8 active torsions:
REMARK  status: ('A' for Active; 'I' for Inactive)
REMARK    1  A    between atoms: C3_3  and  C4_5 
REMARK    2  A    between atoms: C4_5  and  C5_6 
REMARK    3  A    between atoms: C5_6  and  C6_7 
REMARK    4  A    between atoms: C6_7  and  C7_8 
REMARK    5  A    between atoms: C7_8  and  C8_9 
REMARK    6  A    between atoms: C9_11  and  C10_12 
REMARK    7  A    between atoms: C10_12  and  S1_13 
REMARK    8  A    between atoms: S1_13  and  C11_14 
ROOT
HETATM    1  C10 UNL     1      23.628   3.296  51.151  1.00  0.00     0.109 C 
ENDROOT
BRANCH   1   2
HETATM    2  C9  UNL     1      22.665   2.182  50.823  1.00  0.00     0.003 C 
HETATM    3  C8  UNL     1      22.171   1.976  49.602  1.00  0.00     0.015 C 
HETATM    4 BR1  UNL     1      22.747   3.187  48.240  1.00  0.00    -0.051 Br
BRANCH   3   5
HETATM    5  C7  UNL     1      21.243   0.914  49.259  1.00  0.00     0.070 C 
BRANCH   5   6
HETATM    6  C6  UNL     1      20.163   0.770  50.018  1.00  0.00    -0.148 C 
BRANCH   6   7
HETATM    7  C5  UNL     1      19.246   0.782  50.977  1.00  0.00     0.077 C 
BRANCH   7   8
HETATM    8  C4  UNL     1      19.650   1.294  52.293  1.00  0.00     0.069 C 
BRANCH   8   9
HETATM    9  C3  UNL     1      20.074   0.201  53.188  1.00  0.00     0.009 C 
HETATM   10  C2  UNL     1      21.205   0.311  53.854  1.00  0.00    -0.012 C 
HETATM   11  C1  UNL     1      21.807  -0.658  54.794  1.00  0.00     0.037 C 
HETATM   12 CL1  UNL     1      19.135  -1.249  53.407  1.00  0.00    -0.089 Cl
ENDBRANCH   8   9
ENDBRANCH   7   8
ENDBRANCH   6   7
ENDBRANCH   5   6
ENDBRANCH   3   5
ENDBRANCH   1   2
BRANCH   1  13
HETATM   13  S1  UNL     1      24.217   3.035  52.842  1.00  0.00    -0.105 SA
BRANCH  13  14
HETATM   14  C11 UNL     1      24.950   1.436  53.028  1.00  0.00     0.110 C 
HETATM   15  C12 UNL     1      25.127   0.182  53.265  1.00  0.00     0.122 C 
HETATM   16  N1  UNL     1      25.908  -0.962  53.340  1.00  0.00    -0.395 N 
HETATM   17  C13 UNL     1      27.243  -1.223  52.904  1.00  0.00     0.146 C 
HETATM   18  H13 UNL     1      25.323  -1.697  53.813  1.00  0.00     0.159 HD
HETATM   19  C14 UNL     1      28.329  -0.535  53.649  1.00  0.00     0.196 C 
HETATM   20  O1  UNL     1      28.324   0.853  53.649  1.00  0.00    -0.343 OA
HETATM   21  C15 UNL     1      29.321   1.631  54.242  1.00  0.00     0.252 C 
HETATM   22  N2  UNL     1      28.396   2.519  54.128  1.00  0.00    -0.230 NA
HETATM   23  C16 UNL     1      27.176   2.082  53.543  1.00  0.00     0.236 C 
HETATM   24  N3  UNL     1      26.313   1.649  52.680  1.00  0.00    -0.234 NA
ENDBRANCH  13  14
ENDBRANCH   1  13
TORSDOF 8
ENDMDL
MODEL 4
REMARK VINA RESULT:      -6.8      3.997      6.527
REMARK  8 active torsions:
REMARK  status: ('A' for Active; 'I' for Inactive)
REMARK    1  A    between atoms: C3_3  and  C4_5 
REMARK    2  A    between atoms: C4_5  and  C5_6 
REMARK    3  A    between atoms: C5_6  and  C6_7 
REMARK    4  A    between atoms: C6_7  and  C7_8 
REMARK    5  A    between atoms: C7_8  and  C8_9 
REMARK    6  A    between atoms: C9_11  and  C10_12 
REMARK    7  A    between atoms: C10_12  and  S1_13 
REMARK    8  A    between atoms: S1_13  and  C11_14 
ROOT
HETATM    1  C10 UNL     1      22.437   3.159  49.532  1.00  0.00     0.109 C 
ENDROOT
BRANCH   1   2
HETATM    2  C9  UNL     1      23.853   2.712  49.794  1.00  0.00     0.003 C 
HETATM    3  C8  UNL     1      24.913   3.508  49.648  1.00  0.00     0.015 C 
HETATM    4 BR1  UNL     1      24.555   5.296  49.074  1.00  0.00    -0.051 Br
BRANCH   3   5
HETATM    5  C7  UNL     1      26.285   3.103  49.892  1.00  0.00     0.070 C 
BRANCH   5   6
HETATM    6  C6  UNL     1      26.550   2.478  51.032  1.00  0.00    -0.148 C 
BRANCH   6   7
HETATM    7  C5  UNL     1      27.039   1.728  52.012  1.00  0.00     0.077 C 
BRANCH   7   8
HETATM    8  C4  UNL     1      26.334   0.479  52.325  1.00  0.00     0.069 C 
BRANCH   8   9
HETATM    9  C3  UNL     1      27.279  -0.602  52.664  1.00  0.00     0.009 C 
HETATM   10  C2  UNL     1      28.436  -0.300  53.216  1.00  0.00    -0.012 C 
HETATM   11  C1  UNL     1      29.516  -1.221  53.629  1.00  0.00     0.037 C 
HETATM   12 CL1  UNL     1      26.931  -2.281  52.362  1.00  0.00    -0.089 Cl
ENDBRANCH   8   9
ENDBRANCH   7   8
ENDBRANCH   6   7
ENDBRANCH   5   6
ENDBRANCH   3   5
ENDBRANCH   1   2
BRANCH   1  13
HETATM   13  S1  UNL     1      21.553   3.141  51.111  1.00  0.00    -0.105 SA
BRANCH  13  14
HETATM   14  C11 UNL     1      22.046   1.767  52.109  1.00  0.00     0.110 C 
HETATM   15  C12 UNL     1      22.729   0.814  52.643  1.00  0.00     0.122 C 
HETATM   16  N1  UNL     1      22.890  -0.250  53.518  1.00  0.00    -0.395 N 
HETATM   17  C13 UNL     1      22.068  -0.727  54.584  1.00  0.00     0.146 C 
HETATM   18  H13 UNL     1      23.800  -0.713  53.267  1.00  0.00     0.159 HD
HETATM   19  C14 UNL     1      20.777  -1.352  54.196  1.00  0.00     0.196 C 
HETATM   20  O1  UNL     1      19.868  -0.565  53.502  1.00  0.00    -0.343 OA
HETATM   21  C15 UNL     1      18.590  -0.993  53.140  1.00  0.00     0.252 C 
HETATM   22  N2  UNL     1      18.707   0.020  52.353  1.00  0.00    -0.230 NA
HETATM   23  C16 UNL     1      19.929   0.741  52.437  1.00  0.00     0.236 C 
HETATM   24  N3  UNL     1      20.888   1.485  52.888  1.00  0.00    -0.234 NA
ENDBRANCH  13  14
ENDBRANCH   1  13
TORSDOF 8
ENDMDL
MODEL 5
REMARK VINA RESULT:      -6.7      3.882      7.119
REMARK  8 active torsions:
REMARK  status: ('A' for Active; 'I' for Inactive)
REMARK    1  A    between atoms: C3_3  and  C4_5 
REMARK    2  A    between atoms: C4_5  and  C5_6 
REMARK    3  A    between atoms: C5_6  and  C6_7 
REMARK    4  A    between atoms: C6_7  and  C7_8 
REMARK    5  A    between atoms: C7_8  and  C8_9 
REMARK    6  A    between atoms: C9_11  and  C10_12 
REMARK    7  A    between atoms: C10_12  and  S1_13 
REMARK    8  A    between atoms: S1_13  and  C11_14 
ROOT
HETATM    1  C10 UNL     1      22.712   3.074  51.238  1.00  0.00     0.109 C 
ENDROOT
BRANCH   1   2
HETATM    2  C9  UNL     1      23.201   2.024  52.204  1.00  0.00     0.003 C 
HETATM    3  C8  UNL     1      22.707   0.786  52.254  1.00  0.00     0.015 C 
HETATM    4 BR1  UNL     1      21.311   0.382  51.013  1.00  0.00    -0.051 Br
BRANCH   3   5
HETATM    5  C7  UNL     1      23.158  -0.242  53.174  1.00  0.00     0.070 C 
BRANCH   5   6
HETATM    6  C6  UNL     1      24.414  -0.183  53.598  1.00  0.00    -0.148 C 
BRANCH   6   7
HETATM    7  C5  UNL     1      25.721  -0.310  53.789  1.00  0.00     0.077 C 
BRANCH   7   8
HETATM    8  C4  UNL     1      26.420   0.800  54.450  1.00  0.00     0.069 C 
BRANCH   8   9
HETATM    9  C3  UNL     1      27.827   0.883  54.016  1.00  0.00     0.009 C 
HETATM   10  C2  UNL     1      28.542  -0.220  53.924  1.00  0.00    -0.012 C 
HETATM   11  C1  UNL     1      29.956  -0.358  53.514  1.00  0.00     0.037 C 
HETATM   12 CL1  UNL     1      28.598   2.392  53.615  1.00  0.00    -0.089 Cl
ENDBRANCH   8   9
ENDBRANCH   7   8
ENDBRANCH   6   7
ENDBRANCH   5   6
ENDBRANCH   3   5
ENDBRANCH   1   2
BRANCH   1  13
HETATM   13  S1  UNL     1      23.963   3.255  49.943  1.00  0.00    -0.105 SA
BRANCH  13  14
HETATM   14  C11 UNL     1      24.325   4.958  49.631  1.00  0.00     0.110 C 
HETATM   15  C12 UNL     1      24.220   6.200  49.305  1.00  0.00     0.122 C 
HETATM   16  N1  UNL     1      24.729   7.479  49.136  1.00  0.00    -0.395 N 
HETATM   17  C13 UNL     1      25.975   8.059  49.527  1.00  0.00     0.146 C 
HETATM   18  H13 UNL     1      23.995   8.031  48.624  1.00  0.00     0.159 HD
HETATM   19  C14 UNL     1      27.184   7.575  48.811  1.00  0.00     0.196 C 
HETATM   20  O1  UNL     1      27.486   6.223  48.907  1.00  0.00    -0.343 OA
HETATM   21  C15 UNL     1      28.628   5.643  48.352  1.00  0.00     0.252 C 
HETATM   22  N2  UNL     1      27.921   4.583  48.545  1.00  0.00    -0.230 NA
HETATM   23  C16 UNL     1      26.637   4.782  49.121  1.00  0.00     0.236 C 
HETATM   24  N3  UNL     1      25.703   5.076  49.967  1.00  0.00    -0.234 NA
ENDBRANCH  13  14
ENDBRANCH   1  13
TORSDOF 8
ENDMDL
MODEL 6
REMARK VINA RESULT:      -6.6      4.262      6.226
REMARK  8 active torsions:
REMARK  status: ('A' for Active; 'I' for Inactive)
REMARK    1  A    between atoms: C3_3  and  C4_5 
REMARK    2  A    between atoms: C4_5  and  C5_6 
REMARK    3  A    between atoms: C5_6  and  C6_7 
REMARK    4  A    between atoms: C6_7  and  C7_8 
REMARK    5  A    between atoms: C7_8  and  C8_9 
REMARK    6  A    between atoms: C9_11  and  C10_12 
REMARK    7  A    between atoms: C10_12  and  S1_13 
REMARK    8  A    between atoms: S1_13  and  C11_14 
ROOT
HETATM    1  C10 UNL     1      24.036   1.969  51.191  1.00  0.00     0.109 C 
ENDROOT
BRANCH   1   2
HETATM    2  C9  UNL     1      22.533   2.075  51.233  1.00  0.00     0.003 C 
HETATM    3  C8  UNL     1      21.789   2.389  50.172  1.00  0.00     0.015 C 
HETATM    4 BR1  UNL     1      22.734   2.713  48.543  1.00  0.00    -0.051 Br
BRANCH   3   5
HETATM    5  C7  UNL     1      20.342   2.498  50.185  1.00  0.00     0.070 C 
BRANCH   5   6
HETATM    6  C6  UNL     1      19.648   1.444  50.598  1.00  0.00    -0.148 C 
BRANCH   6   7
HETATM    7  C5  UNL     1      19.212   0.243  50.957  1.00  0.00     0.077 C 
BRANCH   7   8
HETATM    8  C4  UNL     1      18.484   0.140  52.228  1.00  0.00     0.069 C 
BRANCH   8   9
HETATM    9  C3  UNL     1      19.134  -0.817  53.143  1.00  0.00     0.009 C 
HETATM   10  C2  UNL     1      20.366  -0.587  53.552  1.00  0.00    -0.012 C 
HETATM   11  C1  UNL     1      21.193  -1.410  54.460  1.00  0.00     0.037 C 
HETATM   12 CL1  UNL     1      18.339  -2.256  53.716  1.00  0.00    -0.089 Cl
ENDBRANCH   8   9
ENDBRANCH   7   8
ENDBRANCH   6   7
ENDBRANCH   5   6
ENDBRANCH   3   5
ENDBRANCH   1   2
BRANCH   1  13
HETATM   13  S1  UNL     1      24.562   1.007  52.630  1.00  0.00    -0.105 SA
BRANCH  13  14
HETATM   14  C11 UNL     1      26.293   1.202  52.937  1.00  0.00     0.110 C 
HETATM   15  C12 UNL     1      27.493   1.672  52.974  1.00  0.00     0.122 C 
HETATM   16  N1  UNL     1      28.833   1.608  53.327  1.00  0.00    -0.395 N 
HETATM   17  C13 UNL     1      29.543   0.709  54.180  1.00  0.00     0.146 C 
HETATM   18  H13 UNL     1      29.314   2.398  52.827  1.00  0.00     0.159 HD
HETATM   19  C14 UNL     1      29.692  -0.687  53.694  1.00  0.00     0.196 C 
HETATM   20  O1  UNL     1      28.530  -1.411  53.465  1.00  0.00    -0.343 OA
HETATM   21  C15 UNL     1      28.518  -2.754  53.081  1.00  0.00     0.252 C 
HETATM   22  N2  UNL     1      27.312  -2.429  52.764  1.00  0.00    -0.230 NA
HETATM   23  C16 UNL     1      26.939  -1.081  53.018  1.00  0.00     0.236 C 
HETATM   24  N3  UNL     1      26.646   0.016  53.640  1.00  0.00    -0.234 NA
ENDBRANCH  13  14
ENDBRANCH   1  13
TORSDOF 8
ENDMDL
MODEL 7
REMARK VINA RESULT:      -6.4      2.302      3.686
REMARK  8 active torsions:
REMARK  status: ('A' for Active; 'I' for Inactive)
REMARK    1  A    between atoms: C3_3  and  C4_5 
REMARK    2  A    between atoms: C4_5  and  C5_6 
REMARK    3  A    between atoms: C5_6  and  C6_7 
REMARK    4  A    between atoms: C6_7  and  C7_8 
REMARK    5  A    between atoms: C7_8  and  C8_9 
REMARK    6  A    between atoms: C9_11  and  C10_12 
REMARK    7  A    between atoms: C10_12  and  S1_13 
REMARK    8  A    between atoms: S1_13  and  C11_14 
ROOT
HETATM    1  C10 UNL     1      23.886   4.146  50.015  1.00  0.00     0.109 C 
ENDROOT
BRANCH   1   2
HETATM    2  C9  UNL     1      24.099   5.023  48.808  1.00  0.00     0.003 C 
HETATM    3  C8  UNL     1      24.350   6.331  48.885  1.00  0.00     0.015 C 
HETATM    4 BR1  UNL     1      24.430   7.073  50.645  1.00  0.00    -0.051 Br
BRANCH   3   5
HETATM    5  C7  UNL     1      24.557   7.198  47.740  1.00  0.00     0.070 C 
BRANCH   5   6
HETATM    6  C6  UNL     1      25.777   7.684  47.547  1.00  0.00    -0.148 C 
BRANCH   6   7
HETATM    7  C5  UNL     1      27.062   7.884  47.280  1.00  0.00     0.077 C 
BRANCH   7   8
HETATM    8  C4  UNL     1      28.020   7.677  48.373  1.00  0.00     0.069 C 
BRANCH   8   9
HETATM    9  C3  UNL     1      28.728   6.390  48.231  1.00  0.00     0.009 C 
HETATM   10  C2  UNL     1      30.005   6.386  47.908  1.00  0.00    -0.012 C 
HETATM   11  C1  UNL     1      30.892   5.219  47.716  1.00  0.00     0.037 C 
HETATM   12 CL1  UNL     1      27.940   4.856  48.472  1.00  0.00    -0.089 Cl
ENDBRANCH   8   9
ENDBRANCH   7   8
ENDBRANCH   6   7
ENDBRANCH   5   6
ENDBRANCH   3   5
ENDBRANCH   1   2
BRANCH   1  13
HETATM   13  S1  UNL     1      25.446   3.298  50.363  1.00  0.00    -0.105 SA
BRANCH  13  14
HETATM   14  C11 UNL     1      25.257   2.106  51.656  1.00  0.00     0.110 C 
HETATM   15  C12 UNL     1      24.760   1.365  52.585  1.00  0.00     0.122 C 
HETATM   16  N1  UNL     1      24.850   0.387  53.565  1.00  0.00    -0.395 N 
HETATM   17  C13 UNL     1      25.898  -0.527  53.892  1.00  0.00     0.146 C 
HETATM   18  H13 UNL     1      23.943   0.407  54.096  1.00  0.00     0.159 HD
HETATM   19  C14 UNL     1      27.127   0.060  54.486  1.00  0.00     0.196 C 
HETATM   20  O1  UNL     1      27.823   0.989  53.725  1.00  0.00    -0.343 OA
HETATM   21  C15 UNL     1      29.032   1.564  54.121  1.00  0.00     0.252 C 
HETATM   22  N2  UNL     1      28.692   2.395  53.197  1.00  0.00    -0.230 NA
HETATM   23  C16 UNL     1      27.463   2.127  52.535  1.00  0.00     0.236 C 
HETATM   24  N3  UNL     1      26.563   1.557  51.800  1.00  0.00    -0.234 NA
ENDBRANCH  13  14
ENDBRANCH   1  13
TORSDOF 8
ENDMDL
MODEL 8
REMARK VINA RESULT:      -6.4      2.762      4.264
REMARK  8 active torsions:
REMARK  status: ('A' for Active; 'I' for Inactive)
REMARK    1  A    between atoms: C3_3  and  C4_5 
REMARK    2  A    between atoms: C4_5  and  C5_6 
REMARK    3  A    between atoms: C5_6  and  C6_7 
REMARK    4  A    between atoms: C6_7  and  C7_8 
REMARK    5  A    between atoms: C7_8  and  C8_9 
REMARK    6  A    between atoms: C9_11  and  C10_12 
REMARK    7  A    between atoms: C10_12  and  S1_13 
REMARK    8  A    between atoms: S1_13  and  C11_14 
ROOT
HETATM    1  C10 UNL     1      24.807   4.626  50.604  1.00  0.00     0.109 C 
ENDROOT
BRANCH   1   2
HETATM    2  C9  UNL     1      25.910   5.115  49.700  1.00  0.00     0.003 C 
HETATM    3  C8  UNL     1      26.105   6.402  49.410  1.00  0.00     0.015 C 
HETATM    4 BR1  UNL     1      24.891   7.642  50.210  1.00  0.00    -0.051 Br
BRANCH   3   5
HETATM    5  C7  UNL     1      27.158   6.899  48.543  1.00  0.00     0.070 C 
BRANCH   5   6
HETATM    6  C6  UNL     1      28.147   6.069  48.235  1.00  0.00    -0.148 C 
BRANCH   6   7
HETATM    7  C5  UNL     1      29.267   5.360  48.171  1.00  0.00     0.077 C 
BRANCH   7   8
HETATM    8  C4  UNL     1      30.484   6.056  47.732  1.00  0.00     0.069 C 
BRANCH   8   9
HETATM    9  C3  UNL     1      31.660   5.168  47.789  1.00  0.00     0.009 C 
HETATM   10  C2  UNL     1      31.622   4.003  47.175  1.00  0.00    -0.012 C 
HETATM   11  C1  UNL     1      32.680   2.973  47.108  1.00  0.00     0.037 C 
HETATM   12 CL1  UNL     1      33.117   5.594  48.642  1.00  0.00    -0.089 Cl
ENDBRANCH   8   9
ENDBRANCH   7   8
ENDBRANCH   6   7
ENDBRANCH   5   6
ENDBRANCH   3   5
ENDBRANCH   1   2
BRANCH   1  13
HETATM   13  S1  UNL     1      24.457   2.906  50.166  1.00  0.00    -0.105 SA
BRANCH  13  14
HETATM   14  C11 UNL     1      24.517   1.855  51.588  1.00  0.00     0.110 C 
HETATM   15  C12 UNL     1      24.197   1.203  52.652  1.00  0.00     0.122 C 
HETATM   16  N1  UNL     1      24.476   0.340  53.702  1.00  0.00    -0.395 N 
HETATM   17  C13 UNL     1      25.604  -0.499  53.960  1.00  0.00     0.146 C 
HETATM   18  H13 UNL     1      23.656   0.387  54.358  1.00  0.00     0.159 HD
HETATM   19  C14 UNL     1      26.876   0.190  54.299  1.00  0.00     0.196 C 
HETATM   20  O1  UNL     1      27.408   1.054  53.352  1.00  0.00    -0.343 OA
HETATM   21  C15 UNL     1      28.632   1.709  53.501  1.00  0.00     0.252 C 
HETATM   22  N2  UNL     1      28.121   2.423  52.559  1.00  0.00    -0.230 NA
HETATM   23  C16 UNL     1      26.823   2.044  52.119  1.00  0.00     0.236 C 
HETATM   24  N3  UNL     1      25.854   1.368  51.590  1.00  0.00    -0.234 NA
ENDBRANCH  13  14
ENDBRANCH   1  13
TORSDOF 8
ENDMDL
MODEL 9
REMARK VINA RESULT:      -6.4      2.375      3.026
REMARK  8 active torsions:
REMARK  status: ('A' for Active; 'I' for Inactive)
REMARK    1  A    between atoms: C3_3  and  C4_5 
REMARK    2  A    between atoms: C4_5  and  C5_6 
REMARK    3  A    between atoms: C5_6  and  C6_7 
REMARK    4  A    between atoms: C6_7  and  C7_8 
REMARK    5  A    between atoms: C7_8  and  C8_9 
REMARK    6  A    between atoms: C9_11  and  C10_12 
REMARK    7  A    between atoms: C10_12  and  S1_13 
REMARK    8  A    between atoms: S1_13  and  C11_14 
ROOT
HETATM    1  C10 UNL     1      21.631  -0.209  52.994  1.00  0.00     0.109 C 
ENDROOT
BRANCH   1   2
HETATM    2  C9  UNL     1      21.411   1.283  53.005  1.00  0.00     0.003 C 
HETATM    3  C8  UNL     1      21.392   2.030  51.900  1.00  0.00     0.015 C 
HETATM    4 BR1  UNL     1      21.664   1.106  50.249  1.00  0.00    -0.051 Br
BRANCH   3   5
HETATM    5  C7  UNL     1      21.183   3.466  51.883  1.00  0.00     0.070 C 
BRANCH   5   6
HETATM    6  C6  UNL     1      22.247   4.242  51.715  1.00  0.00    -0.148 C 
BRANCH   6   7
HETATM    7  C5  UNL     1      23.438   4.827  51.744  1.00  0.00     0.077 C 
BRANCH   7   8
HETATM    8  C4  UNL     1      23.631   6.011  50.896  1.00  0.00     0.069 C 
BRANCH   8   9
HETATM    9  C3  UNL     1      24.619   5.754  49.832  1.00  0.00     0.009 C 
HETATM   10  C2  UNL     1      25.593   4.893  50.046  1.00  0.00    -0.012 C 
HETATM   11  C1  UNL     1      26.676   4.494  49.123  1.00  0.00     0.037 C 
HETATM   12 CL1  UNL     1      24.557   6.547  48.283  1.00  0.00    -0.089 Cl
ENDBRANCH   8   9
ENDBRANCH   7   8
ENDBRANCH   6   7
ENDBRANCH   5   6
ENDBRANCH   3   5
ENDBRANCH   1   2
BRANCH   1  13
HETATM   13  S1  UNL     1      23.263  -0.531  53.706  1.00  0.00    -0.105 SA
BRANCH  13  14
HETATM   14  C11 UNL     1      24.525   0.373  52.858  1.00  0.00     0.110 C 
HETATM   15  C12 UNL     1      25.236   0.929  51.938  1.00  0.00     0.122 C 
HETATM   16  N1  UNL     1      26.318   1.675  51.496  1.00  0.00    -0.395 N 
HETATM   17  C13 UNL     1      27.287   2.446  52.208  1.00  0.00     0.146 C 
HETATM   18  H13 UNL     1      26.335   1.592  50.448  1.00  0.00     0.159 HD
HETATM   19  C14 UNL     1      28.259   1.685  53.037  1.00  0.00     0.196 C 
HETATM   20  O1  UNL     1      27.748   0.900  54.062  1.00  0.00    -0.343 OA
HETATM   21  C15 UNL     1      28.543   0.193  54.965  1.00  0.00     0.252 C 
HETATM   22  N2  UNL     1      27.419  -0.408  55.153  1.00  0.00    -0.230 NA
HETATM   23  C16 UNL     1      26.323   0.056  54.375  1.00  0.00     0.236 C 
HETATM   24  N3  UNL     1      25.384   0.812  53.904  1.00  0.00    -0.234 NA
ENDBRANCH  13  14
ENDBRANCH   1  13
TORSDOF 8
ENDMDL
