MODEL 1
REMARK VINA RESULT:      -8.4      0.000      0.000
REMARK  6 active torsions:
REMARK  status: ('A' for Active; 'I' for Inactive)
REMARK    1  A    between atoms: O1_2  and  C2_3 
REMARK    2  A    between atoms: C4_5  and  C5_6 
REMARK    3  A    between atoms: C18_23  and  O3_24 
REMARK    4  A    between atoms: O3_24  and  C19_25 
REMARK    5  A    between atoms: C19_25  and  C20_26 
REMARK    6  A    between atoms: C20_26  and  O5_28 
ROOT
HETATM    1  C5  UNL     1      23.163   2.824  52.361  1.00  0.00     0.136 C 
HETATM    2  N1  UNL     1      23.280   4.029  52.866  1.00  0.00    -0.262 NA
HETATM    3  C6  UNL     1      22.376   5.078  52.510  1.00  0.00     0.230 C 
HETATM    4  S1  UNL     1      22.453   5.806  50.919  1.00  0.00    -0.107 SA
HETATM    5  C7  UNL     1      21.961   4.971  49.487  1.00  0.00     0.009 A 
HETATM    6  C8  UNL     1      22.778   5.601  48.512  1.00  0.00     0.019 A 
HETATM    7  C9  UNL     1      22.787   5.326  47.125  1.00  0.00     0.008 A 
HETATM    8  C10 UNL     1      21.899   4.343  46.711  1.00  0.00    -0.061 A 
HETATM    9  C11 UNL     1      21.710   3.865  45.316  1.00  0.00     0.048 C 
HETATM   10  C12 UNL     1      21.072   3.684  47.585  1.00  0.00     0.015 A 
HETATM   11  C13 UNL     1      21.119   3.999  48.905  1.00  0.00    -0.032 A 
HETATM   12  C14 UNL     1      20.268   3.277  49.917  1.00  0.00     0.143 C 
HETATM   13  C15 UNL     1      21.194   2.181  50.433  1.00  0.00     0.227 C 
HETATM   14  O2  UNL     1      21.563   1.006  50.410  1.00  0.00    -0.273 OA
HETATM   15  N2  UNL     1      22.174   2.500  51.393  1.00  0.00    -0.311 N 
HETATM   16  H15 UNL     1      22.035   3.457  51.483  1.00  0.00     0.170 HD
ENDROOT
BRANCH   1  17
HETATM   17  C4  UNL     1      24.124   1.859  52.797  1.00  0.00     0.012 A 
HETATM   18  C3  UNL     1      25.276   2.384  53.332  1.00  0.00     0.055 A 
HETATM   19  C2  UNL     1      26.332   1.593  53.805  1.00  0.00     0.102 A 
HETATM   20  C18 UNL     1      26.155   0.238  53.706  1.00  0.00     0.102 A 
HETATM   21  C17 UNL     1      25.044  -0.384  53.191  1.00  0.00     0.040 A 
HETATM   22  C16 UNL     1      24.079   0.489  52.759  1.00  0.00     0.018 A 
BRANCH  19  23
HETATM   23  O1  UNL     1      27.467   2.191  54.332  1.00  0.00    -0.353 OA
HETATM   24  C1  UNL     1      28.559   2.546  53.509  1.00  0.00     0.210 C 
ENDBRANCH  19  23
BRANCH  20  25
HETATM   25  O3  UNL     1      27.210  -0.503  54.176  1.00  0.00    -0.338 OA
BRANCH  25  26
HETATM   26  C19 UNL     1      28.210  -0.972  53.316  1.00  0.00     0.285 C 
BRANCH  26  27
HETATM   27  C20 UNL     1      27.993  -2.414  52.952  1.00  0.00     0.164 C 
HETATM   28  O4  UNL     1      27.166  -2.899  52.164  1.00  0.00    -0.648 OA
BRANCH  27  29
HETATM   29  O5  UNL     1      28.617  -3.586  53.367  1.00  0.00    -0.775 OA
HETATM   30  H20 UNL     1      29.365  -3.585  54.039  1.00  0.00     0.167 HD
ENDBRANCH  27  29
ENDBRANCH  26  27
ENDBRANCH  25  26
ENDBRANCH  20  25
ENDBRANCH   1  17
TORSDOF 6
ENDMDL
MODEL 2
REMARK VINA RESULT:      -8.2      1.842      2.625
REMARK  6 active torsions:
REMARK  status: ('A' for Active; 'I' for Inactive)
REMARK    1  A    between atoms: O1_2  and  C2_3 
REMARK    2  A    between atoms: C4_5  and  C5_6 
REMARK    3  A    between atoms: C18_23  and  O3_24 
REMARK    4  A    between atoms: O3_24  and  C19_25 
REMARK    5  A    between atoms: C19_25  and  C20_26 
REMARK    6  A    between atoms: C20_26  and  O5_28 
ROOT
HETATM    1  C5  UNL     1      23.381   2.854  51.734  1.00  0.00     0.136 C 
HETATM    2  N1  UNL     1      22.421   3.365  52.467  1.00  0.00    -0.262 NA
HETATM    3  C6  UNL     1      21.515   4.337  51.939  1.00  0.00     0.230 C 
HETATM    4  S1  UNL     1      22.060   5.972  51.626  1.00  0.00    -0.107 SA
HETATM    5  C7  UNL     1      23.146   6.362  50.337  1.00  0.00     0.009 A 
HETATM    6  C8  UNL     1      23.783   7.517  50.861  1.00  0.00     0.019 A 
HETATM    7  C9  UNL     1      24.774   8.291  50.213  1.00  0.00     0.008 A 
HETATM    8  C10 UNL     1      25.132   7.852  48.946  1.00  0.00    -0.061 A 
HETATM    9  C11 UNL     1      26.143   8.481  48.056  1.00  0.00     0.048 C 
HETATM   10  C12 UNL     1      24.567   6.747  48.364  1.00  0.00     0.015 A 
HETATM   11  C13 UNL     1      23.622   6.050  49.046  1.00  0.00    -0.032 A 
HETATM   12  C14 UNL     1      23.000   4.802  48.476  1.00  0.00     0.143 C 
HETATM   13  C15 UNL     1      23.851   3.685  49.071  1.00  0.00     0.227 C 
HETATM   14  O2  UNL     1      24.769   2.873  48.952  1.00  0.00    -0.273 OA
HETATM   15  N2  UNL     1      23.618   3.271  50.396  1.00  0.00    -0.311 N 
HETATM   16  H15 UNL     1      22.914   3.887  50.658  1.00  0.00     0.170 HD
ENDROOT
BRANCH   1  17
HETATM   17  C4  UNL     1      24.219   1.888  52.374  1.00  0.00     0.012 A 
HETATM   18  C3  UNL     1      25.348   2.398  52.971  1.00  0.00     0.055 A 
HETATM   19  C2  UNL     1      26.289   1.602  53.638  1.00  0.00     0.102 A 
HETATM   20  C18 UNL     1      26.022   0.258  53.667  1.00  0.00     0.102 A 
HETATM   21  C17 UNL     1      24.926  -0.349  53.105  1.00  0.00     0.040 A 
HETATM   22  C16 UNL     1      24.077   0.528  52.479  1.00  0.00     0.018 A 
BRANCH  19  23
HETATM   23  O1  UNL     1      27.407   2.184  54.217  1.00  0.00    -0.353 OA
HETATM   24  C1  UNL     1      28.529   2.549  53.441  1.00  0.00     0.210 C 
ENDBRANCH  19  23
BRANCH  20  25
HETATM   25  O3  UNL     1      26.967  -0.488  54.326  1.00  0.00    -0.338 OA
BRANCH  25  26
HETATM   26  C19 UNL     1      28.145  -0.896  53.690  1.00  0.00     0.285 C 
BRANCH  26  27
HETATM   27  C20 UNL     1      28.018  -2.284  53.129  1.00  0.00     0.164 C 
HETATM   28  O4  UNL     1      27.240  -2.700  52.255  1.00  0.00    -0.648 OA
BRANCH  27  29
HETATM   29  O5  UNL     1      28.695  -3.468  53.403  1.00  0.00    -0.775 OA
HETATM   30  H20 UNL     1      28.574  -4.296  52.845  1.00  0.00     0.167 HD
ENDBRANCH  27  29
ENDBRANCH  26  27
ENDBRANCH  25  26
ENDBRANCH  20  25
ENDBRANCH   1  17
TORSDOF 6
ENDMDL
MODEL 3
REMARK VINA RESULT:      -8.1      1.964      3.166
REMARK  6 active torsions:
REMARK  status: ('A' for Active; 'I' for Inactive)
REMARK    1  A    between atoms: O1_2  and  C2_3 
REMARK    2  A    between atoms: C4_5  and  C5_6 
REMARK    3  A    between atoms: C18_23  and  O3_24 
REMARK    4  A    between atoms: O3_24  and  C19_25 
REMARK    5  A    between atoms: C19_25  and  C20_26 
REMARK    6  A    between atoms: C20_26  and  O5_28 
ROOT
HETATM    1  C5  UNL     1      23.558   2.052  51.707  1.00  0.00     0.136 C 
HETATM    2  N1  UNL     1      22.343   1.839  52.154  1.00  0.00    -0.262 NA
HETATM    3  C6  UNL     1      21.191   2.230  51.402  1.00  0.00     0.230 C 
HETATM    4  S1  UNL     1      20.771   3.923  51.248  1.00  0.00    -0.107 SA
HETATM    5  C7  UNL     1      21.699   5.032  50.299  1.00  0.00     0.009 A 
HETATM    6  C8  UNL     1      21.437   6.252  50.976  1.00  0.00     0.019 A 
HETATM    7  C9  UNL     1      21.931   7.529  50.620  1.00  0.00     0.008 A 
HETATM    8  C10 UNL     1      22.745   7.554  49.497  1.00  0.00    -0.061 A 
HETATM    9  C11 UNL     1      23.392   8.759  48.912  1.00  0.00     0.048 C 
HETATM   10  C12 UNL     1      23.050   6.423  48.783  1.00  0.00     0.015 A 
HETATM   11  C13 UNL     1      22.541   5.231  49.185  1.00  0.00    -0.032 A 
HETATM   12  C14 UNL     1      22.879   3.949  48.467  1.00  0.00     0.143 C 
HETATM   13  C15 UNL     1      24.053   3.400  49.270  1.00  0.00     0.227 C 
HETATM   14  O2  UNL     1      25.268   3.247  49.402  1.00  0.00    -0.273 OA
HETATM   15  N2  UNL     1      23.807   2.729  50.483  1.00  0.00    -0.311 N 
HETATM   16  H15 UNL     1      22.842   2.815  50.546  1.00  0.00     0.170 HD
ENDROOT
BRANCH   1  17
HETATM   17  C4  UNL     1      24.627   1.613  52.549  1.00  0.00     0.012 A 
HETATM   18  C3  UNL     1      24.380   0.457  53.251  1.00  0.00     0.055 A 
HETATM   19  C2  UNL     1      25.306  -0.119  54.131  1.00  0.00     0.102 A 
HETATM   20  C18 UNL     1      26.500   0.542  54.258  1.00  0.00     0.102 A 
HETATM   21  C17 UNL     1      26.845   1.698  53.602  1.00  0.00     0.040 A 
HETATM   22  C16 UNL     1      25.861   2.169  52.772  1.00  0.00     0.018 A 
BRANCH  19  23
HETATM   23  O1  UNL     1      24.989  -1.287  54.808  1.00  0.00    -0.353 OA
HETATM   24  C1  UNL     1      23.795  -1.402  55.554  1.00  0.00     0.210 C 
ENDBRANCH  19  23
BRANCH  20  25
HETATM   25  O3  UNL     1      27.380  -0.050  55.129  1.00  0.00    -0.338 OA
BRANCH  25  26
HETATM   26  C19 UNL     1      28.764   0.041  54.941  1.00  0.00     0.285 C 
BRANCH  26  27
HETATM   27  C20 UNL     1      29.240  -0.909  53.879  1.00  0.00     0.164 C 
HETATM   28  O4  UNL     1      30.188  -0.777  53.088  1.00  0.00    -0.648 OA
BRANCH  27  29
HETATM   29  O5  UNL     1      28.788  -2.162  53.475  1.00  0.00    -0.775 OA
HETATM   30  H20 UNL     1      29.376  -2.977  53.503  1.00  0.00     0.167 HD
ENDBRANCH  27  29
ENDBRANCH  26  27
ENDBRANCH  25  26
ENDBRANCH  20  25
ENDBRANCH   1  17
TORSDOF 6
ENDMDL
MODEL 4
REMARK VINA RESULT:      -7.9      1.219      2.259
REMARK  6 active torsions:
REMARK  status: ('A' for Active; 'I' for Inactive)
REMARK    1  A    between atoms: O1_2  and  C2_3 
REMARK    2  A    between atoms: C4_5  and  C5_6 
REMARK    3  A    between atoms: C18_23  and  O3_24 
REMARK    4  A    between atoms: O3_24  and  C19_25 
REMARK    5  A    between atoms: C19_25  and  C20_26 
REMARK    6  A    between atoms: C20_26  and  O5_28 
ROOT
HETATM    1  C5  UNL     1      23.275   2.442  51.916  1.00  0.00     0.136 C 
HETATM    2  N1  UNL     1      23.319   3.606  52.518  1.00  0.00    -0.262 NA
HETATM    3  C6  UNL     1      22.315   4.600  52.295  1.00  0.00     0.230 C 
HETATM    4  S1  UNL     1      22.248   5.460  50.771  1.00  0.00    -0.107 SA
HETATM    5  C7  UNL     1      21.753   4.706  49.295  1.00  0.00     0.009 A 
HETATM    6  C8  UNL     1      22.464   5.482  48.343  1.00  0.00     0.019 A 
HETATM    7  C9  UNL     1      22.423   5.324  46.938  1.00  0.00     0.008 A 
HETATM    8  C10 UNL     1      21.598   4.306  46.481  1.00  0.00    -0.061 A 
HETATM    9  C11 UNL     1      21.377   3.930  45.060  1.00  0.00     0.048 C 
HETATM   10  C12 UNL     1      20.875   3.509  47.331  1.00  0.00     0.015 A 
HETATM   11  C13 UNL     1      20.964   3.717  48.670  1.00  0.00    -0.032 A 
HETATM   12  C14 UNL     1      20.229   2.843  49.653  1.00  0.00     0.143 C 
HETATM   13  C15 UNL     1      21.268   1.793  50.030  1.00  0.00     0.227 C 
HETATM   14  O2  UNL     1      21.730   0.660  49.890  1.00  0.00    -0.273 OA
HETATM   15  N2  UNL     1      22.267   2.115  50.969  1.00  0.00    -0.311 N 
HETATM   16  H15 UNL     1      22.055   3.045  51.148  1.00  0.00     0.170 HD
ENDROOT
BRANCH   1  17
HETATM   17  C4  UNL     1      24.333   1.531  52.224  1.00  0.00     0.012 A 
HETATM   18  C3  UNL     1      24.105   0.717  53.308  1.00  0.00     0.055 A 
HETATM   19  C2  UNL     1      25.032  -0.231  53.763  1.00  0.00     0.102 A 
HETATM   20  C18 UNL     1      26.203  -0.310  53.057  1.00  0.00     0.102 A 
HETATM   21  C17 UNL     1      26.526   0.454  51.962  1.00  0.00     0.040 A 
HETATM   22  C16 UNL     1      25.546   1.346  51.610  1.00  0.00     0.018 A 
BRANCH  19  23
HETATM   23  O1  UNL     1      24.736  -1.019  54.866  1.00  0.00    -0.353 OA
HETATM   24  C1  UNL     1      23.401  -1.244  55.271  1.00  0.00     0.210 C 
ENDBRANCH  19  23
BRANCH  20  25
HETATM   25  O3  UNL     1      27.085  -1.246  53.534  1.00  0.00    -0.338 OA
BRANCH  25  26
HETATM   26  C19 UNL     1      28.469  -1.069  53.418  1.00  0.00     0.285 C 
BRANCH  26  27
HETATM   27  C20 UNL     1      28.928   0.171  54.133  1.00  0.00     0.164 C 
HETATM   28  O4  UNL     1      28.625   0.569  55.269  1.00  0.00    -0.648 OA
BRANCH  27  29
HETATM   29  O5  UNL     1      29.785   1.201  53.759  1.00  0.00    -0.775 OA
HETATM   30  H20 UNL     1      29.945   1.442  52.796  1.00  0.00     0.167 HD
ENDBRANCH  27  29
ENDBRANCH  26  27
ENDBRANCH  25  26
ENDBRANCH  20  25
ENDBRANCH   1  17
TORSDOF 6
ENDMDL
MODEL 5
REMARK VINA RESULT:      -7.8      4.483      6.967
REMARK  6 active torsions:
REMARK  status: ('A' for Active; 'I' for Inactive)
REMARK    1  A    between atoms: O1_2  and  C2_3 
REMARK    2  A    between atoms: C4_5  and  C5_6 
REMARK    3  A    between atoms: C18_23  and  O3_24 
REMARK    4  A    between atoms: O3_24  and  C19_25 
REMARK    5  A    between atoms: C19_25  and  C20_26 
REMARK    6  A    between atoms: C20_26  and  O5_28 
ROOT
HETATM    1  C5  UNL     1      24.494   3.132  49.881  1.00  0.00     0.136 C 
HETATM    2  N1  UNL     1      24.819   2.631  51.049  1.00  0.00    -0.262 NA
HETATM    3  C6  UNL     1      24.120   1.514  51.604  1.00  0.00     0.230 C 
HETATM    4  S1  UNL     1      22.489   1.708  52.212  1.00  0.00    -0.107 SA
HETATM    5  C7  UNL     1      21.132   1.973  51.172  1.00  0.00     0.009 A 
HETATM    6  C8  UNL     1      20.269   2.699  52.034  1.00  0.00     0.019 A 
HETATM    7  C9  UNL     1      18.975   3.174  51.715  1.00  0.00     0.008 A 
HETATM    8  C10 UNL     1      18.539   2.883  50.430  1.00  0.00    -0.061 A 
HETATM    9  C11 UNL     1      17.228   3.265  49.844  1.00  0.00     0.048 C 
HETATM   10  C12 UNL     1      19.307   2.185  49.533  1.00  0.00     0.015 A 
HETATM   11  C13 UNL     1      20.541   1.761  49.909  1.00  0.00    -0.032 A 
HETATM   12  C14 UNL     1      21.447   1.031  48.951  1.00  0.00     0.143 C 
HETATM   13  C15 UNL     1      22.313   2.145  48.372  1.00  0.00     0.227 C 
HETATM   14  O2  UNL     1      22.552   2.938  47.460  1.00  0.00    -0.273 OA
HETATM   15  N2  UNL     1      23.399   2.636  49.123  1.00  0.00    -0.311 N 
HETATM   16  H15 UNL     1      23.308   2.115  49.937  1.00  0.00     0.170 HD
ENDROOT
BRANCH   1  17
HETATM   17  C4  UNL     1      25.270   4.245  49.432  1.00  0.00     0.012 A 
HETATM   18  C3  UNL     1      24.566   5.412  49.251  1.00  0.00     0.055 A 
HETATM   19  C2  UNL     1      25.157   6.603  48.808  1.00  0.00     0.102 A 
HETATM   20  C18 UNL     1      26.504   6.546  48.558  1.00  0.00     0.102 A 
HETATM   21  C17 UNL     1      27.295   5.434  48.708  1.00  0.00     0.040 A 
HETATM   22  C16 UNL     1      26.608   4.330  49.145  1.00  0.00     0.018 A 
BRANCH  19  23
HETATM   23  O1  UNL     1      24.385   7.745  48.647  1.00  0.00    -0.353 OA
HETATM   24  C1  UNL     1      23.532   8.205  49.675  1.00  0.00     0.210 C 
ENDBRANCH  19  23
BRANCH  20  25
HETATM   25  O3  UNL     1      27.045   7.730  48.124  1.00  0.00    -0.338 OA
BRANCH  25  26
HETATM   26  C19 UNL     1      28.028   8.396  48.865  1.00  0.00     0.285 C 
BRANCH  26  27
HETATM   27  C20 UNL     1      27.421   9.304  49.896  1.00  0.00     0.164 C 
HETATM   28  O4  UNL     1      26.509  10.134  49.759  1.00  0.00    -0.648 OA
BRANCH  27  29
HETATM   29  O5  UNL     1      27.684   9.486  51.251  1.00  0.00    -0.775 OA
HETATM   30  H20 UNL     1      28.150   8.788  51.804  1.00  0.00     0.167 HD
ENDBRANCH  27  29
ENDBRANCH  26  27
ENDBRANCH  25  26
ENDBRANCH  20  25
ENDBRANCH   1  17
TORSDOF 6
ENDMDL
MODEL 6
REMARK VINA RESULT:      -7.7      4.457      6.720
REMARK  6 active torsions:
REMARK  status: ('A' for Active; 'I' for Inactive)
REMARK    1  A    between atoms: O1_2  and  C2_3 
REMARK    2  A    between atoms: C4_5  and  C5_6 
REMARK    3  A    between atoms: C18_23  and  O3_24 
REMARK    4  A    between atoms: O3_24  and  C19_25 
REMARK    5  A    between atoms: C19_25  and  C20_26 
REMARK    6  A    between atoms: C20_26  and  O5_28 
ROOT
HETATM    1  C5  UNL     1      23.878   5.088  49.148  1.00  0.00     0.136 C 
HETATM    2  N1  UNL     1      23.143   5.000  48.065  1.00  0.00    -0.262 NA
HETATM    3  C6  UNL     1      21.732   4.775  48.137  1.00  0.00     0.230 C 
HETATM    4  S1  UNL     1      21.113   3.206  48.609  1.00  0.00    -0.107 SA
HETATM    5  C7  UNL     1      21.237   2.602  50.225  1.00  0.00     0.009 A 
HETATM    6  C8  UNL     1      21.258   1.203  49.990  1.00  0.00     0.019 A 
HETATM    7  C9  UNL     1      21.330   0.190  50.975  1.00  0.00     0.008 A 
HETATM    8  C10 UNL     1      21.382   0.644  52.286  1.00  0.00    -0.061 A 
HETATM    9  C11 UNL     1      21.463  -0.205  53.503  1.00  0.00     0.048 C 
HETATM   10  C12 UNL     1      21.366   1.979  52.604  1.00  0.00     0.015 A 
HETATM   11  C13 UNL     1      21.298   2.895  51.604  1.00  0.00    -0.032 A 
HETATM   12  C14 UNL     1      21.324   4.375  51.890  1.00  0.00     0.143 C 
HETATM   13  C15 UNL     1      22.798   4.733  51.738  1.00  0.00     0.227 C 
HETATM   14  O2  UNL     1      23.893   4.960  52.254  1.00  0.00    -0.273 OA
HETATM   15  N2  UNL     1      23.336   4.910  50.449  1.00  0.00    -0.311 N 
HETATM   16  H15 UNL     1      22.563   4.705  49.899  1.00  0.00     0.170 HD
ENDROOT
BRANCH   1  17
HETATM   17  C4  UNL     1      25.275   5.319  48.946  1.00  0.00     0.012 A 
HETATM   18  C3  UNL     1      25.611   6.610  48.615  1.00  0.00     0.055 A 
HETATM   19  C2  UNL     1      26.928   7.022  48.373  1.00  0.00     0.102 A 
HETATM   20  C18 UNL     1      27.889   6.050  48.485  1.00  0.00     0.102 A 
HETATM   21  C17 UNL     1      27.658   4.737  48.810  1.00  0.00     0.040 A 
HETATM   22  C16 UNL     1      26.334   4.451  49.023  1.00  0.00     0.018 A 
BRANCH  19  23
HETATM   23  O1  UNL     1      27.195   8.343  48.042  1.00  0.00    -0.353 OA
HETATM   24  C1  UNL     1      27.221   9.355  49.027  1.00  0.00     0.210 C 
ENDBRANCH  19  23
BRANCH  20  25
HETATM   25  O3  UNL     1      29.164   6.491  48.237  1.00  0.00    -0.338 OA
BRANCH  25  26
HETATM   26  C19 UNL     1      30.222   5.592  48.058  1.00  0.00     0.285 C 
BRANCH  26  27
HETATM   27  C20 UNL     1      31.301   5.798  49.084  1.00  0.00     0.164 C 
HETATM   28  O4  UNL     1      32.427   6.301  48.935  1.00  0.00    -0.648 OA
BRANCH  27  29
HETATM   29  O5  UNL     1      31.369   5.502  50.441  1.00  0.00    -0.775 OA
HETATM   30  H20 UNL     1      30.786   5.962  51.119  1.00  0.00     0.167 HD
ENDBRANCH  27  29
ENDBRANCH  26  27
ENDBRANCH  25  26
ENDBRANCH  20  25
ENDBRANCH   1  17
TORSDOF 6
ENDMDL
MODEL 7
REMARK VINA RESULT:      -7.6      7.766      9.930
REMARK  6 active torsions:
REMARK  status: ('A' for Active; 'I' for Inactive)
REMARK    1  A    between atoms: O1_2  and  C2_3 
REMARK    2  A    between atoms: C4_5  and  C5_6 
REMARK    3  A    between atoms: C18_23  and  O3_24 
REMARK    4  A    between atoms: O3_24  and  C19_25 
REMARK    5  A    between atoms: C19_25  and  C20_26 
REMARK    6  A    between atoms: C20_26  and  O5_28 
ROOT
HETATM    1  C5  UNL     1      29.783   6.333  48.139  1.00  0.00     0.136 C 
HETATM    2  N1  UNL     1      30.492   5.499  48.862  1.00  0.00    -0.262 NA
HETATM    3  C6  UNL     1      31.921   5.507  48.825  1.00  0.00     0.230 C 
HETATM    4  S1  UNL     1      32.770   4.906  47.415  1.00  0.00    -0.107 SA
HETATM    5  C7  UNL     1      32.779   5.747  45.903  1.00  0.00     0.009 A 
HETATM    6  C8  UNL     1      32.949   4.669  44.996  1.00  0.00     0.019 A 
HETATM    7  C9  UNL     1      33.049   4.770  43.588  1.00  0.00     0.008 A 
HETATM    8  C10 UNL     1      32.972   6.060  43.081  1.00  0.00    -0.061 A 
HETATM    9  C11 UNL     1      33.047   6.442  41.646  1.00  0.00     0.048 C 
HETATM   10  C12 UNL     1      32.809   7.158  43.886  1.00  0.00     0.015 A 
HETATM   11  C13 UNL     1      32.718   6.985  45.230  1.00  0.00    -0.032 A 
HETATM   12  C14 UNL     1      32.492   8.150  46.159  1.00  0.00     0.143 C 
HETATM   13  C15 UNL     1      30.978   8.162  46.341  1.00  0.00     0.227 C 
HETATM   14  O2  UNL     1      29.878   8.627  46.042  1.00  0.00    -0.273 OA
HETATM   15  N2  UNL     1      30.383   7.252  47.236  1.00  0.00    -0.311 N 
HETATM   16  H15 UNL     1      31.161   6.753  47.532  1.00  0.00     0.170 HD
ENDROOT
BRANCH   1  17
HETATM   17  C4  UNL     1      28.363   6.231  48.266  1.00  0.00     0.012 A 
HETATM   18  C3  UNL     1      27.906   5.032  48.761  1.00  0.00     0.055 A 
HETATM   19  C2  UNL     1      26.546   4.747  48.947  1.00  0.00     0.102 A 
HETATM   20  C18 UNL     1      25.674   5.747  48.604  1.00  0.00     0.102 A 
HETATM   21  C17 UNL     1      26.027   6.977  48.105  1.00  0.00     0.040 A 
HETATM   22  C16 UNL     1      27.382   7.140  47.965  1.00  0.00     0.018 A 
BRANCH  19  23
HETATM   23  O1  UNL     1      26.156   3.515  49.450  1.00  0.00    -0.353 OA
HETATM   24  C1  UNL     1      26.647   3.038  50.685  1.00  0.00     0.210 C 
ENDBRANCH  19  23
BRANCH  20  25
HETATM   25  O3  UNL     1      24.353   5.431  48.797  1.00  0.00    -0.338 OA
BRANCH  25  26
HETATM   26  C19 UNL     1      23.543   6.181  49.657  1.00  0.00     0.285 C 
BRANCH  26  27
HETATM   27  C20 UNL     1      23.925   5.976  51.096  1.00  0.00     0.164 C 
HETATM   28  O4  UNL     1      23.838   4.946  51.782  1.00  0.00    -0.648 OA
BRANCH  27  29
HETATM   29  O5  UNL     1      24.462   6.833  52.051  1.00  0.00    -0.775 OA
HETATM   30  H20 UNL     1      25.025   6.499  52.814  1.00  0.00     0.167 HD
ENDBRANCH  27  29
ENDBRANCH  26  27
ENDBRANCH  25  26
ENDBRANCH  20  25
ENDBRANCH   1  17
TORSDOF 6
ENDMDL
MODEL 8
REMARK VINA RESULT:      -7.5      1.820      2.886
REMARK  6 active torsions:
REMARK  status: ('A' for Active; 'I' for Inactive)
REMARK    1  A    between atoms: O1_2  and  C2_3 
REMARK    2  A    between atoms: C4_5  and  C5_6 
REMARK    3  A    between atoms: C18_23  and  O3_24 
REMARK    4  A    between atoms: O3_24  and  C19_25 
REMARK    5  A    between atoms: C19_25  and  C20_26 
REMARK    6  A    between atoms: C20_26  and  O5_28 
ROOT
HETATM    1  C5  UNL     1      23.350   3.304  51.109  1.00  0.00     0.136 C 
HETATM    2  N1  UNL     1      22.989   4.107  52.082  1.00  0.00    -0.262 NA
HETATM    3  C6  UNL     1      21.965   5.089  51.898  1.00  0.00     0.230 C 
HETATM    4  S1  UNL     1      22.270   6.510  50.922  1.00  0.00    -0.107 SA
HETATM    5  C7  UNL     1      22.436   6.441  49.201  1.00  0.00     0.009 A 
HETATM    6  C8  UNL     1      23.283   7.556  48.967  1.00  0.00     0.019 A 
HETATM    7  C9  UNL     1      23.746   8.004  47.707  1.00  0.00     0.008 A 
HETATM    8  C10 UNL     1      23.309   7.261  46.619  1.00  0.00    -0.061 A 
HETATM    9  C11 UNL     1      23.647   7.516  45.194  1.00  0.00     0.048 C 
HETATM   10  C12 UNL     1      22.489   6.170  46.755  1.00  0.00     0.015 A 
HETATM   11  C13 UNL     1      22.086   5.796  47.996  1.00  0.00    -0.032 A 
HETATM   12  C14 UNL     1      21.223   4.579  48.210  1.00  0.00     0.143 C 
HETATM   13  C15 UNL     1      22.237   3.482  48.514  1.00  0.00     0.227 C 
HETATM   14  O2  UNL     1      22.906   2.521  48.133  1.00  0.00    -0.273 OA
HETATM   15  N2  UNL     1      22.791   3.393  49.806  1.00  0.00    -0.311 N 
HETATM   16  H15 UNL     1      22.376   4.158  50.235  1.00  0.00     0.170 HD
ENDROOT
BRANCH   1  17
HETATM   17  C4  UNL     1      24.381   2.363  51.417  1.00  0.00     0.012 A 
HETATM   18  C3  UNL     1      23.994   1.312  52.214  1.00  0.00     0.055 A 
HETATM   19  C2  UNL     1      24.869   0.298  52.624  1.00  0.00     0.102 A 
HETATM   20  C18 UNL     1      26.162   0.408  52.181  1.00  0.00     0.102 A 
HETATM   21  C17 UNL     1      26.647   1.414  51.384  1.00  0.00     0.040 A 
HETATM   22  C16 UNL     1      25.702   2.349  51.047  1.00  0.00     0.018 A 
BRANCH  19  23
HETATM   23  O1  UNL     1      24.410  -0.734  53.430  1.00  0.00    -0.353 OA
HETATM   24  C1  UNL     1      23.119  -0.699  54.002  1.00  0.00     0.210 C 
ENDBRANCH  19  23
BRANCH  20  25
HETATM   25  O3  UNL     1      26.989  -0.601  52.607  1.00  0.00    -0.338 OA
BRANCH  25  26
HETATM   26  C19 UNL     1      28.253  -0.329  53.142  1.00  0.00     0.285 C 
BRANCH  26  27
HETATM   27  C20 UNL     1      28.158   0.180  54.552  1.00  0.00     0.164 C 
HETATM   28  O4  UNL     1      27.436  -0.227  55.477  1.00  0.00    -0.648 OA
BRANCH  27  29
HETATM   29  O5  UNL     1      28.812   1.210  55.220  1.00  0.00    -0.775 OA
HETATM   30  H20 UNL     1      28.314   1.916  55.734  1.00  0.00     0.167 HD
ENDBRANCH  27  29
ENDBRANCH  26  27
ENDBRANCH  25  26
ENDBRANCH  20  25
ENDBRANCH   1  17
TORSDOF 6
ENDMDL
MODEL 9
REMARK VINA RESULT:      -7.3      2.349      3.955
REMARK  6 active torsions:
REMARK  status: ('A' for Active; 'I' for Inactive)
REMARK    1  A    between atoms: O1_2  and  C2_3 
REMARK    2  A    between atoms: C4_5  and  C5_6 
REMARK    3  A    between atoms: C18_23  and  O3_24 
REMARK    4  A    between atoms: O3_24  and  C19_25 
REMARK    5  A    between atoms: C19_25  and  C20_26 
REMARK    6  A    between atoms: C20_26  and  O5_28 
ROOT
HETATM    1  C5  UNL     1      23.336   2.897  50.250  1.00  0.00     0.136 C 
HETATM    2  N1  UNL     1      23.386   2.633  48.966  1.00  0.00    -0.262 NA
HETATM    3  C6  UNL     1      22.504   3.269  48.038  1.00  0.00     0.230 C 
HETATM    4  S1  UNL     1      20.807   2.839  47.996  1.00  0.00    -0.107 SA
HETATM    5  C7  UNL     1      19.704   3.272  49.257  1.00  0.00     0.009 A 
HETATM    6  C8  UNL     1      18.751   2.225  49.154  1.00  0.00     0.019 A 
HETATM    7  C9  UNL     1      17.587   2.073  49.943  1.00  0.00     0.008 A 
HETATM    8  C10 UNL     1      17.388   3.061  50.898  1.00  0.00    -0.061 A 
HETATM    9  C11 UNL     1      16.251   3.138  51.852  1.00  0.00     0.048 C 
HETATM   10  C12 UNL     1      18.257   4.108  51.065  1.00  0.00     0.015 A 
HETATM   11  C13 UNL     1      19.356   4.188  50.272  1.00  0.00    -0.032 A 
HETATM   12  C14 UNL     1      20.370   5.290  50.441  1.00  0.00     0.143 C 
HETATM   13  C15 UNL     1      21.419   4.662  51.353  1.00  0.00     0.227 C 
HETATM   14  O2  UNL     1      21.894   4.516  52.479  1.00  0.00    -0.273 OA
HETATM   15  N2  UNL     1      22.373   3.784  50.804  1.00  0.00    -0.311 N 
HETATM   16  H15 UNL     1      22.084   3.756  49.878  1.00  0.00     0.170 HD
ENDROOT
BRANCH   1  17
HETATM   17  C4  UNL     1      24.272   2.200  51.076  1.00  0.00     0.012 A 
HETATM   18  C3  UNL     1      23.716   1.314  51.967  1.00  0.00     0.055 A 
HETATM   19  C2  UNL     1      24.476   0.548  52.862  1.00  0.00     0.102 A 
HETATM   20  C18 UNL     1      25.833   0.731  52.803  1.00  0.00     0.102 A 
HETATM   21  C17 UNL     1      26.484   1.588  51.950  1.00  0.00     0.040 A 
HETATM   22  C16 UNL     1      25.640   2.284  51.124  1.00  0.00     0.018 A 
BRANCH  19  23
HETATM   23  O1  UNL     1      23.848  -0.328  53.736  1.00  0.00    -0.353 OA
HETATM   24  C1  UNL     1      22.656  -0.995  53.376  1.00  0.00     0.210 C 
ENDBRANCH  19  23
BRANCH  20  25
HETATM   25  O3  UNL     1      26.542  -0.033  53.695  1.00  0.00    -0.338 OA
BRANCH  25  26
HETATM   26  C19 UNL     1      27.837   0.323  54.090  1.00  0.00     0.285 C 
BRANCH  26  27
HETATM   27  C20 UNL     1      28.840  -0.729  53.708  1.00  0.00     0.164 C 
HETATM   28  O4  UNL     1      30.069  -0.616  53.570  1.00  0.00    -0.648 OA
BRANCH  27  29
HETATM   29  O5  UNL     1      28.707  -2.081  53.406  1.00  0.00    -0.775 OA
HETATM   30  H20 UNL     1      29.503  -2.684  53.292  1.00  0.00     0.167 HD
ENDBRANCH  27  29
ENDBRANCH  26  27
ENDBRANCH  25  26
ENDBRANCH  20  25
ENDBRANCH   1  17
TORSDOF 6
ENDMDL
