MODEL 1
REMARK VINA RESULT:      -8.1      0.000      0.000
REMARK  6 active torsions:
REMARK  status: ('A' for Active; 'I' for Inactive)
REMARK    1  A    between atoms: C1_2  and  C2_3 
REMARK    2  A    between atoms: C6_8  and  N3_9 
REMARK    3  A    between atoms: N3_9  and  C7_10 
REMARK    4  A    between atoms: C7_10  and  C8_11 
REMARK    5  A    between atoms: C9_12  and  C10_14 
REMARK    6  A    between atoms: C10_14  and  C11_15 
ROOT
HETATM    1  C2  UNL     1      23.481  -0.489  53.446  1.00  0.00     0.008 C 
HETATM    2  C3  UNL     1      23.154   0.573  52.679  1.00  0.00    -0.001 C 
HETATM    3  C4  UNL     1      24.050   1.507  52.066  1.00  0.00     0.056 C 
HETATM    4  C5  UNL     1      23.491   2.595  51.225  1.00  0.00     0.101 C 
HETATM    5  N2  UNL     1      24.484   3.242  50.641  1.00  0.00    -0.245 NA
HETATM    6  C6  UNL     1      25.862   3.135  51.073  1.00  0.00     0.152 C 
HETATM    7  C12 UNL     1      26.239   2.355  52.127  1.00  0.00     0.092 C 
HETATM    8  C13 UNL     1      24.992   2.256  53.007  1.00  0.00     0.082 C 
HETATM    9  O1  UNL     1      27.489   1.857  52.196  1.00  0.00    -0.350 OA
HETATM   10  C14 UNL     1      28.346   1.494  53.197  1.00  0.00     0.195 C 
HETATM   11  C15 UNL     1      28.337  -0.052  53.411  1.00  0.00     0.156 C 
HETATM   12  N4  UNL     1      26.965  -0.376  53.833  1.00  0.00    -0.347 N 
HETATM   13  C16 UNL     1      26.556  -0.429  55.112  1.00  0.00     0.210 A 
HETATM   14  N5  UNL     1      25.219  -0.535  54.987  1.00  0.00    -0.242 NA
HETATM   15  C17 UNL     1      24.935  -0.537  53.650  1.00  0.00     0.085 A 
HETATM   16  C18 UNL     1      26.051  -0.445  52.851  1.00  0.00     0.124 A 
ENDROOT
BRANCH   6  17
HETATM   17  N3  UNL     1      26.875   3.871  50.317  1.00  0.00    -0.369 N 
HETATM   18  H6  UNL     1      27.855   3.798  50.671  1.00  0.00     0.161 HD
BRANCH  17  19
HETATM   19  C7  UNL     1      26.444   4.615  49.175  1.00  0.00     0.150 C 
BRANCH  19  20
HETATM   20  C8  UNL     1      27.530   5.377  48.519  1.00  0.00     0.012 C 
HETATM   21  C9  UNL     1      27.760   6.627  48.125  1.00  0.00     0.012 C 
HETATM   22 CL1  UNL     1      29.216   7.222  47.346  1.00  0.00    -0.089 Cl
BRANCH  21  23
HETATM   23  C10 UNL     1      26.891   7.833  48.224  1.00  0.00     0.082 C 
BRANCH  23  24
HETATM   24  C11 UNL     1      27.061   8.538  49.549  1.00  0.00     0.227 C 
HETATM   25  F1  UNL     1      26.449   7.750  50.501  1.00  0.00    -0.255 F 
ENDBRANCH  23  24
ENDBRANCH  21  23
ENDBRANCH  19  20
ENDBRANCH  17  19
ENDBRANCH   6  17
BRANCH   1  26
HETATM   26  C1  UNL     1      22.483  -1.371  54.006  1.00  0.00     0.120 C 
HETATM   27  N1  UNL     1      22.299  -1.354  55.272  1.00  0.00    -0.311 NA
HETATM   28  H1  UNL     1      22.870  -0.711  55.851  1.00  0.00     0.186 HD
ENDBRANCH   1  26
TORSDOF 6
ENDMDL
MODEL 2
REMARK VINA RESULT:      -8.1      1.750      1.867
REMARK  6 active torsions:
REMARK  status: ('A' for Active; 'I' for Inactive)
REMARK    1  A    between atoms: C1_2  and  C2_3 
REMARK    2  A    between atoms: C6_8  and  N3_9 
REMARK    3  A    between atoms: N3_9  and  C7_10 
REMARK    4  A    between atoms: C7_10  and  C8_11 
REMARK    5  A    between atoms: C9_12  and  C10_14 
REMARK    6  A    between atoms: C10_14  and  C11_15 
ROOT
HETATM    1  C2  UNL     1      23.538  -0.430  53.415  1.00  0.00     0.008 C 
HETATM    2  C3  UNL     1      23.150   0.595  52.626  1.00  0.00    -0.001 C 
HETATM    3  C4  UNL     1      23.990   1.569  51.996  1.00  0.00     0.056 C 
HETATM    4  C5  UNL     1      23.368   2.605  51.133  1.00  0.00     0.101 C 
HETATM    5  N2  UNL     1      24.322   3.299  50.537  1.00  0.00    -0.245 NA
HETATM    6  C6  UNL     1      25.703   3.284  50.973  1.00  0.00     0.152 C 
HETATM    7  C12 UNL     1      26.123   2.548  52.043  1.00  0.00     0.092 C 
HETATM    8  C13 UNL     1      24.883   2.392  52.923  1.00  0.00     0.082 C 
HETATM    9  O1  UNL     1      27.401   2.128  52.124  1.00  0.00    -0.350 OA
HETATM   10  C14 UNL     1      28.276   1.837  53.132  1.00  0.00     0.195 C 
HETATM   11  C15 UNL     1      28.360   0.298  53.378  1.00  0.00     0.156 C 
HETATM   12  N4  UNL     1      27.008  -0.100  53.804  1.00  0.00    -0.347 N 
HETATM   13  C16 UNL     1      26.600  -0.152  55.083  1.00  0.00     0.210 A 
HETATM   14  N5  UNL     1      25.272  -0.340  54.959  1.00  0.00    -0.242 NA
HETATM   15  C17 UNL     1      24.992  -0.386  53.621  1.00  0.00     0.085 A 
HETATM   16  C18 UNL     1      26.102  -0.243  52.822  1.00  0.00     0.124 A 
ENDROOT
BRANCH   6  17
HETATM   17  N3  UNL     1      26.672   4.064  50.204  1.00  0.00    -0.369 N 
HETATM   18  H6  UNL     1      27.663   4.019  50.533  1.00  0.00     0.161 HD
BRANCH  17  19
HETATM   19  C7  UNL     1      26.188   4.809  49.085  1.00  0.00     0.150 C 
BRANCH  19  20
HETATM   20  C8  UNL     1      26.142   6.270  49.319  1.00  0.00     0.012 C 
HETATM   21  C9  UNL     1      25.470   7.126  50.084  1.00  0.00     0.012 C 
HETATM   22 CL1  UNL     1      25.668   8.870  50.118  1.00  0.00    -0.089 Cl
BRANCH  21  23
HETATM   23  C10 UNL     1      24.402   6.870  51.091  1.00  0.00     0.082 C 
BRANCH  23  24
HETATM   24  C11 UNL     1      23.050   6.689  50.440  1.00  0.00     0.227 C 
HETATM   25  F1  UNL     1      22.213   7.633  50.995  1.00  0.00    -0.255 F 
ENDBRANCH  23  24
ENDBRANCH  21  23
ENDBRANCH  19  20
ENDBRANCH  17  19
ENDBRANCH   6  17
BRANCH   1  26
HETATM   26  C1  UNL     1      22.594  -1.359  53.991  1.00  0.00     0.120 C 
HETATM   27  N1  UNL     1      22.417  -1.338  55.258  1.00  0.00    -0.311 NA
HETATM   28  H1  UNL     1      22.956  -0.659  55.826  1.00  0.00     0.186 HD
ENDBRANCH   1  26
TORSDOF 6
ENDMDL
MODEL 3
REMARK VINA RESULT:      -7.4      3.743      7.315
REMARK  6 active torsions:
REMARK  status: ('A' for Active; 'I' for Inactive)
REMARK    1  A    between atoms: C1_2  and  C2_3 
REMARK    2  A    between atoms: C6_8  and  N3_9 
REMARK    3  A    between atoms: N3_9  and  C7_10 
REMARK    4  A    between atoms: C7_10  and  C8_11 
REMARK    5  A    between atoms: C9_12  and  C10_14 
REMARK    6  A    between atoms: C10_14  and  C11_15 
ROOT
HETATM    1  C2  UNL     1      26.311   3.983  49.699  1.00  0.00     0.008 C 
HETATM    2  C3  UNL     1      26.440   2.853  50.426  1.00  0.00    -0.001 C 
HETATM    3  C4  UNL     1      25.463   2.262  51.289  1.00  0.00     0.056 C 
HETATM    4  C5  UNL     1      25.788   0.989  51.980  1.00  0.00     0.101 C 
HETATM    5  N2  UNL     1      24.707   0.545  52.599  1.00  0.00    -0.245 NA
HETATM    6  C6  UNL     1      23.549   1.374  52.861  1.00  0.00     0.152 C 
HETATM    7  C12 UNL     1      23.490   2.686  52.490  1.00  0.00     0.092 C 
HETATM    8  C13 UNL     1      24.947   3.143  52.427  1.00  0.00     0.082 C 
HETATM    9  O1  UNL     1      22.301   3.277  52.258  1.00  0.00    -0.350 OA
HETATM   10  C14 UNL     1      21.803   4.547  52.350  1.00  0.00     0.195 C 
HETATM   11  C15 UNL     1      21.769   5.239  50.951  1.00  0.00     0.156 C 
HETATM   12  N4  UNL     1      23.175   5.319  50.524  1.00  0.00    -0.347 N 
HETATM   13  C16 UNL     1      23.982   6.366  50.765  1.00  0.00     0.210 A 
HETATM   14  N5  UNL     1      25.190   5.895  50.396  1.00  0.00    -0.242 NA
HETATM   15  C17 UNL     1      25.009   4.609  49.966  1.00  0.00     0.085 A 
HETATM   16  C18 UNL     1      23.700   4.190  50.021  1.00  0.00     0.124 A 
ENDROOT
BRANCH   6  17
HETATM   17  N3  UNL     1      22.399   0.754  53.519  1.00  0.00    -0.369 N 
HETATM   18  H6  UNL     1      22.122   1.161  54.440  1.00  0.00     0.161 HD
BRANCH  17  19
HETATM   19  C7  UNL     1      21.760  -0.337  52.853  1.00  0.00     0.150 C 
BRANCH  19  20
HETATM   20  C8  UNL     1      20.662   0.078  51.952  1.00  0.00     0.012 C 
HETATM   21  C9  UNL     1      20.525   0.570  50.722  1.00  0.00     0.012 C 
HETATM   22 CL1  UNL     1      19.015   0.968  49.922  1.00  0.00    -0.089 Cl
BRANCH  21  23
HETATM   23  C10 UNL     1      21.565   0.912  49.712  1.00  0.00     0.082 C 
BRANCH  23  24
HETATM   24  C11 UNL     1      21.067   1.938  48.720  1.00  0.00     0.227 C 
HETATM   25  F1  UNL     1      21.855   1.818  47.595  1.00  0.00    -0.255 F 
ENDBRANCH  23  24
ENDBRANCH  21  23
ENDBRANCH  19  20
ENDBRANCH  17  19
ENDBRANCH   6  17
BRANCH   1  26
HETATM   26  C1  UNL     1      27.370   4.479  48.851  1.00  0.00     0.120 C 
HETATM   27  N1  UNL     1      27.794   5.671  49.043  1.00  0.00    -0.311 NA
HETATM   28  H1  UNL     1      27.364   6.238  49.796  1.00  0.00     0.186 HD
ENDBRANCH   1  26
TORSDOF 6
ENDMDL
MODEL 4
REMARK VINA RESULT:      -7.3      2.323      4.109
REMARK  6 active torsions:
REMARK  status: ('A' for Active; 'I' for Inactive)
REMARK    1  A    between atoms: C1_2  and  C2_3 
REMARK    2  A    between atoms: C6_8  and  N3_9 
REMARK    3  A    between atoms: N3_9  and  C7_10 
REMARK    4  A    between atoms: C7_10  and  C8_11 
REMARK    5  A    between atoms: C9_12  and  C10_14 
REMARK    6  A    between atoms: C10_14  and  C11_15 
ROOT
HETATM    1  C2  UNL     1      21.944  -0.321  53.672  1.00  0.00     0.008 C 
HETATM    2  C3  UNL     1      23.243  -0.049  53.427  1.00  0.00    -0.001 C 
HETATM    3  C4  UNL     1      23.776   1.091  52.743  1.00  0.00     0.056 C 
HETATM    4  C5  UNL     1      25.248   1.224  52.603  1.00  0.00     0.101 C 
HETATM    5  N2  UNL     1      25.526   2.406  52.081  1.00  0.00    -0.245 NA
HETATM    6  C6  UNL     1      24.539   3.230  51.415  1.00  0.00     0.152 C 
HETATM    7  C12 UNL     1      23.239   2.842  51.273  1.00  0.00     0.092 C 
HETATM    8  C13 UNL     1      23.279   1.314  51.315  1.00  0.00     0.082 C 
HETATM    9  O1  UNL     1      22.261   3.760  51.148  1.00  0.00    -0.350 OA
HETATM   10  C14 UNL     1      21.034   3.812  50.548  1.00  0.00     0.195 C 
HETATM   11  C15 UNL     1      19.891   3.579  51.585  1.00  0.00     0.156 C 
HETATM   12  N4  UNL     1      20.104   2.215  52.096  1.00  0.00    -0.347 N 
HETATM   13  C16 UNL     1      19.540   1.113  51.574  1.00  0.00     0.210 A 
HETATM   14  N5  UNL     1      20.192   0.121  52.213  1.00  0.00    -0.242 NA
HETATM   15  C17 UNL     1      21.089   0.706  53.062  1.00  0.00     0.085 A 
HETATM   16  C18 UNL     1      21.061   2.081  53.029  1.00  0.00     0.124 A 
ENDROOT
BRANCH   6  17
HETATM   17  N3  UNL     1      24.964   4.537  50.915  1.00  0.00    -0.369 N 
HETATM   18  H6  UNL     1      25.094   5.284  51.634  1.00  0.00     0.161 HD
BRANCH  17  19
HETATM   19  C7  UNL     1      25.165   4.677  49.507  1.00  0.00     0.150 C 
BRANCH  19  20
HETATM   20  C8  UNL     1      26.592   4.718  49.113  1.00  0.00     0.012 C 
HETATM   21  C9  UNL     1      27.440   5.585  48.564  1.00  0.00     0.012 C 
HETATM   22 CL1  UNL     1      29.138   5.304  48.219  1.00  0.00    -0.089 Cl
BRANCH  21  23
HETATM   23  C10 UNL     1      27.210   6.983  48.104  1.00  0.00     0.082 C 
BRANCH  23  24
HETATM   24  C11 UNL     1      27.101   7.944  49.266  1.00  0.00     0.227 C 
HETATM   25  F1  UNL     1      25.787   7.916  49.683  1.00  0.00    -0.255 F 
ENDBRANCH  23  24
ENDBRANCH  21  23
ENDBRANCH  19  20
ENDBRANCH  17  19
ENDBRANCH   6  17
BRANCH   1  26
HETATM   26  C1  UNL     1      21.526  -1.506  54.385  1.00  0.00     0.120 C 
HETATM   27  N1  UNL     1      22.248  -1.918  55.356  1.00  0.00    -0.311 NA
HETATM   28  H1  UNL     1      23.107  -1.390  55.598  1.00  0.00     0.186 HD
ENDBRANCH   1  26
TORSDOF 6
ENDMDL
MODEL 5
REMARK VINA RESULT:      -7.3      4.049      6.352
REMARK  6 active torsions:
REMARK  status: ('A' for Active; 'I' for Inactive)
REMARK    1  A    between atoms: C1_2  and  C2_3 
REMARK    2  A    between atoms: C6_8  and  N3_9 
REMARK    3  A    between atoms: N3_9  and  C7_10 
REMARK    4  A    between atoms: C7_10  and  C8_11 
REMARK    5  A    between atoms: C9_12  and  C10_14 
REMARK    6  A    between atoms: C10_14  and  C11_15 
ROOT
HETATM    1  C2  UNL     1      21.846   2.564  50.771  1.00  0.00     0.008 C 
HETATM    2  C3  UNL     1      23.195   2.554  50.805  1.00  0.00    -0.001 C 
HETATM    3  C4  UNL     1      24.036   1.667  51.552  1.00  0.00     0.056 C 
HETATM    4  C5  UNL     1      25.510   1.796  51.428  1.00  0.00     0.101 C 
HETATM    5  N2  UNL     1      26.086   0.798  52.073  1.00  0.00    -0.245 NA
HETATM    6  C6  UNL     1      25.392  -0.026  53.041  1.00  0.00     0.152 C 
HETATM    7  C12 UNL     1      24.081   0.173  53.363  1.00  0.00     0.092 C 
HETATM    8  C13 UNL     1      23.824   1.651  53.065  1.00  0.00     0.082 C 
HETATM    9  O1  UNL     1      23.327  -0.846  53.821  1.00  0.00    -0.350 OA
HETATM   10  C14 UNL     1      22.244  -0.972  54.645  1.00  0.00     0.195 C 
HETATM   11  C15 UNL     1      20.927  -1.128  53.821  1.00  0.00     0.156 C 
HETATM   12  N4  UNL     1      20.794   0.127  53.063  1.00  0.00    -0.347 N 
HETATM   13  C16 UNL     1      20.122   1.207  53.495  1.00  0.00     0.210 A 
HETATM   14  N5  UNL     1      20.464   2.145  52.590  1.00  0.00    -0.242 NA
HETATM   15  C17 UNL     1      21.309   1.555  51.693  1.00  0.00     0.085 A 
HETATM   16  C18 UNL     1      21.548   0.225  51.955  1.00  0.00     0.124 A 
ENDROOT
BRANCH   6  17
HETATM   17  N3  UNL     1      26.131  -1.127  53.658  1.00  0.00    -0.369 N 
HETATM   18  H6  UNL     1      25.948  -1.291  54.674  1.00  0.00     0.161 HD
BRANCH  17  19
HETATM   19  C7  UNL     1      27.024  -1.876  52.830  1.00  0.00     0.150 C 
BRANCH  19  20
HETATM   20  C8  UNL     1      28.452  -1.560  53.061  1.00  0.00     0.012 C 
HETATM   21  C9  UNL     1      29.169  -0.675  53.749  1.00  0.00     0.012 C 
HETATM   22 CL1  UNL     1      30.920  -0.574  53.808  1.00  0.00    -0.089 Cl
BRANCH  21  23
HETATM   23  C10 UNL     1      28.718   0.438  54.631  1.00  0.00     0.082 C 
BRANCH  23  24
HETATM   24  C11 UNL     1      29.043   1.789  54.038  1.00  0.00     0.227 C 
HETATM   25  F1  UNL     1      29.881   2.424  54.931  1.00  0.00    -0.255 F 
ENDBRANCH  23  24
ENDBRANCH  21  23
ENDBRANCH  19  20
ENDBRANCH  17  19
ENDBRANCH   6  17
BRANCH   1  26
HETATM   26  C1  UNL     1      21.103   3.508  49.967  1.00  0.00     0.120 C 
HETATM   27  N1  UNL     1      20.963   4.701  50.405  1.00  0.00    -0.311 NA
HETATM   28  H1  UNL     1      21.385   4.950  51.319  1.00  0.00     0.186 HD
ENDBRANCH   1  26
TORSDOF 6
ENDMDL
MODEL 6
REMARK VINA RESULT:      -7.3      3.943      6.051
REMARK  6 active torsions:
REMARK  status: ('A' for Active; 'I' for Inactive)
REMARK    1  A    between atoms: C1_2  and  C2_3 
REMARK    2  A    between atoms: C6_8  and  N3_9 
REMARK    3  A    between atoms: N3_9  and  C7_10 
REMARK    4  A    between atoms: C7_10  and  C8_11 
REMARK    5  A    between atoms: C9_12  and  C10_14 
REMARK    6  A    between atoms: C10_14  and  C11_15 
ROOT
HETATM    1  C2  UNL     1      19.968   2.001  50.217  1.00  0.00     0.008 C 
HETATM    2  C3  UNL     1      20.894   2.980  50.150  1.00  0.00    -0.001 C 
HETATM    3  C4  UNL     1      22.165   3.017  50.811  1.00  0.00     0.056 C 
HETATM    4  C5  UNL     1      23.063   4.177  50.581  1.00  0.00     0.101 C 
HETATM    5  N2  UNL     1      24.228   3.941  51.157  1.00  0.00    -0.245 NA
HETATM    6  C6  UNL     1      24.425   2.908  52.153  1.00  0.00     0.152 C 
HETATM    7  C12 UNL     1      23.411   2.099  52.576  1.00  0.00     0.092 C 
HETATM    8  C13 UNL     1      22.136   2.908  52.335  1.00  0.00     0.082 C 
HETATM    9  O1  UNL     1      23.676   0.871  53.063  1.00  0.00    -0.350 OA
HETATM   10  C14 UNL     1      23.088   0.025  53.962  1.00  0.00     0.195 C 
HETATM   11  C15 UNL     1      22.252  -1.074  53.234  1.00  0.00     0.156 C 
HETATM   12  N4  UNL     1      21.192  -0.345  52.519  1.00  0.00    -0.347 N 
HETATM   13  C16 UNL     1      19.976  -0.082  53.027  1.00  0.00     0.210 A 
HETATM   14  N5  UNL     1      19.460   0.774  52.123  1.00  0.00    -0.242 NA
HETATM   15  C17 UNL     1      20.405   0.955  51.151  1.00  0.00     0.085 A 
HETATM   16  C18 UNL     1      21.556   0.232  51.362  1.00  0.00     0.124 A 
ENDROOT
BRANCH   6  17
HETATM   17  N3  UNL     1      25.774   2.720  52.686  1.00  0.00    -0.369 N 
HETATM   18  H6  UNL     1      25.929   3.042  53.667  1.00  0.00     0.161 HD
BRANCH  17  19
HETATM   19  C7  UNL     1      26.749   2.118  51.832  1.00  0.00     0.150 C 
BRANCH  19  20
HETATM   20  C8  UNL     1      26.795   0.641  51.932  1.00  0.00     0.012 C 
HETATM   21  C9  UNL     1      27.000  -0.279  52.872  1.00  0.00     0.012 C 
HETATM   22 CL1  UNL     1      26.984  -2.019  52.646  1.00  0.00    -0.089 Cl
BRANCH  21  23
HETATM   23  C10 UNL     1      27.288  -0.110  54.324  1.00  0.00     0.082 C 
BRANCH  23  24
HETATM   24  C11 UNL     1      28.762   0.106  54.581  1.00  0.00     0.227 C 
HETATM   25  F1  UNL     1      29.013   1.442  54.352  1.00  0.00    -0.255 F 
ENDBRANCH  23  24
ENDBRANCH  21  23
ENDBRANCH  19  20
ENDBRANCH  17  19
ENDBRANCH   6  17
BRANCH   1  26
HETATM   26  C1  UNL     1      18.719   2.072  49.494  1.00  0.00     0.120 C 
HETATM   27  N1  UNL     1      18.027   1.003  49.370  1.00  0.00    -0.311 NA
HETATM   28  H1  UNL     1      18.386   0.125  49.789  1.00  0.00     0.186 HD
ENDBRANCH   1  26
TORSDOF 6
ENDMDL
MODEL 7
REMARK VINA RESULT:      -7.1      4.252      6.748
REMARK  6 active torsions:
REMARK  status: ('A' for Active; 'I' for Inactive)
REMARK    1  A    between atoms: C1_2  and  C2_3 
REMARK    2  A    between atoms: C6_8  and  N3_9 
REMARK    3  A    between atoms: N3_9  and  C7_10 
REMARK    4  A    between atoms: C7_10  and  C8_11 
REMARK    5  A    between atoms: C9_12  and  C10_14 
REMARK    6  A    between atoms: C10_14  and  C11_15 
ROOT
HETATM    1  C2  UNL     1      18.514   0.020  52.356  1.00  0.00     0.008 C 
HETATM    2  C3  UNL     1      19.362  -0.639  53.174  1.00  0.00    -0.001 C 
HETATM    3  C4  UNL     1      20.769  -0.420  53.322  1.00  0.00     0.056 C 
HETATM    4  C5  UNL     1      21.525  -1.234  54.307  1.00  0.00     0.101 C 
HETATM    5  N2  UNL     1      22.761  -0.772  54.390  1.00  0.00    -0.245 NA
HETATM    6  C6  UNL     1      23.345   0.109  53.401  1.00  0.00     0.152 C 
HETATM    7  C12 UNL     1      22.658   0.528  52.299  1.00  0.00     0.092 C 
HETATM    8  C13 UNL     1      21.610  -0.558  52.053  1.00  0.00     0.082 C 
HETATM    9  O1  UNL     1      22.975   1.692  51.698  1.00  0.00    -0.350 OA
HETATM   10  C14 UNL     1      22.900   2.192  50.428  1.00  0.00     0.195 C 
HETATM   11  C15 UNL     1      21.649   3.111  50.260  1.00  0.00     0.156 C 
HETATM   12  N4  UNL     1      20.490   2.233  50.485  1.00  0.00    -0.347 N 
HETATM   13  C16 UNL     1      19.843   1.567  49.514  1.00  0.00     0.210 A 
HETATM   14  N5  UNL     1      19.030   0.750  50.212  1.00  0.00    -0.242 NA
HETATM   15  C17 UNL     1      19.254   0.991  51.539  1.00  0.00     0.085 A 
HETATM   16  C18 UNL     1      20.197   1.965  51.769  1.00  0.00     0.124 A 
ENDROOT
BRANCH   6  17
HETATM   17  N3  UNL     1      24.710   0.583  53.628  1.00  0.00    -0.369 N 
HETATM   18  H6  UNL     1      24.981   1.459  53.128  1.00  0.00     0.161 HD
BRANCH  17  19
HETATM   19  C7  UNL     1      25.542  -0.180  54.503  1.00  0.00     0.150 C 
BRANCH  19  20
HETATM   20  C8  UNL     1      26.827  -0.591  53.892  1.00  0.00     0.012 C 
HETATM   21  C9  UNL     1      28.113  -0.259  53.979  1.00  0.00     0.012 C 
HETATM   22 CL1  UNL     1      29.437  -0.975  53.076  1.00  0.00    -0.089 Cl
BRANCH  21  23
HETATM   23  C10 UNL     1      28.776   0.769  54.829  1.00  0.00     0.082 C 
BRANCH  23  24
HETATM   24  C11 UNL     1      29.301   1.922  54.005  1.00  0.00     0.227 C 
HETATM   25  F1  UNL     1      28.288   2.855  53.936  1.00  0.00    -0.255 F 
ENDBRANCH  23  24
ENDBRANCH  21  23
ENDBRANCH  19  20
ENDBRANCH  17  19
ENDBRANCH   6  17
BRANCH   1  26
HETATM   26  C1  UNL     1      17.103  -0.285  52.300  1.00  0.00     0.120 C 
HETATM   27  N1  UNL     1      16.558  -0.829  53.322  1.00  0.00    -0.311 NA
HETATM   28  H1  UNL     1      17.145  -1.033  54.151  1.00  0.00     0.186 HD
ENDBRANCH   1  26
TORSDOF 6
ENDMDL
MODEL 8
REMARK VINA RESULT:      -7.1      5.539      8.879
REMARK  6 active torsions:
REMARK  status: ('A' for Active; 'I' for Inactive)
REMARK    1  A    between atoms: C1_2  and  C2_3 
REMARK    2  A    between atoms: C6_8  and  N3_9 
REMARK    3  A    between atoms: N3_9  and  C7_10 
REMARK    4  A    between atoms: C7_10  and  C8_11 
REMARK    5  A    between atoms: C9_12  and  C10_14 
REMARK    6  A    between atoms: C10_14  and  C11_15 
ROOT
HETATM    1  C2  UNL     1      24.071   4.220  51.212  1.00  0.00     0.008 C 
HETATM    2  C3  UNL     1      22.733   4.089  51.334  1.00  0.00    -0.001 C 
HETATM    3  C4  UNL     1      22.024   3.073  52.051  1.00  0.00     0.056 C 
HETATM    4  C5  UNL     1      20.541   3.122  52.093  1.00  0.00     0.101 C 
HETATM    5  N2  UNL     1      20.101   2.192  52.923  1.00  0.00    -0.245 NA
HETATM    6  C6  UNL     1      20.920   1.089  53.382  1.00  0.00     0.152 C 
HETATM    7  C12 UNL     1      22.216   0.927  52.985  1.00  0.00     0.092 C 
HETATM    8  C13 UNL     1      22.303   1.630  51.631  1.00  0.00     0.082 C 
HETATM    9  O1  UNL     1      23.092   0.265  53.767  1.00  0.00    -0.350 OA
HETATM   10  C14 UNL     1      24.217  -0.483  53.563  1.00  0.00     0.195 C 
HETATM   11  C15 UNL     1      25.505   0.359  53.822  1.00  0.00     0.156 C 
HETATM   12  N4  UNL     1      25.473   1.436  52.819  1.00  0.00    -0.347 N 
HETATM   13  C16 UNL     1      26.045   1.360  51.606  1.00  0.00     0.210 A 
HETATM   14  N5  UNL     1      25.568   2.458  50.988  1.00  0.00    -0.242 NA
HETATM   15  C17 UNL     1      24.751   3.100  51.876  1.00  0.00     0.085 A 
HETATM   16  C18 UNL     1      24.665   2.472  53.098  1.00  0.00     0.124 A 
ENDROOT
BRANCH   6  17
HETATM   17  N3  UNL     1      20.329   0.147  54.332  1.00  0.00    -0.369 N 
HETATM   18  H6  UNL     1      20.212   0.494  55.310  1.00  0.00     0.161 HD
BRANCH  17  19
HETATM   19  C7  UNL     1      19.965  -1.147  53.847  1.00  0.00     0.150 C 
BRANCH  19  20
HETATM   20  C8  UNL     1      18.583  -1.217  53.321  1.00  0.00     0.012 C 
HETATM   21  C9  UNL     1      17.620  -2.126  53.195  1.00  0.00     0.012 C 
HETATM   22 CL1  UNL     1      16.030  -1.869  52.498  1.00  0.00    -0.089 Cl
BRANCH  21  23
HETATM   23  C10 UNL     1      17.607  -3.562  53.591  1.00  0.00     0.082 C 
BRANCH  23  24
HETATM   24  C11 UNL     1      16.211  -4.141  53.555  1.00  0.00     0.227 C 
HETATM   25  F1  UNL     1      16.348  -5.512  53.595  1.00  0.00    -0.255 F 
ENDBRANCH  23  24
ENDBRANCH  21  23
ENDBRANCH  19  20
ENDBRANCH  17  19
ENDBRANCH   6  17
BRANCH   1  26
HETATM   26  C1  UNL     1      24.674   5.299  50.465  1.00  0.00     0.120 C 
HETATM   27  N1  UNL     1      25.950   5.347  50.391  1.00  0.00    -0.311 NA
HETATM   28  H1  UNL     1      26.506   4.614  50.869  1.00  0.00     0.186 HD
ENDBRANCH   1  26
TORSDOF 6
ENDMDL
MODEL 9
REMARK VINA RESULT:      -7.0      2.640      3.325
REMARK  6 active torsions:
REMARK  status: ('A' for Active; 'I' for Inactive)
REMARK    1  A    between atoms: C1_2  and  C2_3 
REMARK    2  A    between atoms: C6_8  and  N3_9 
REMARK    3  A    between atoms: N3_9  and  C7_10 
REMARK    4  A    between atoms: C7_10  and  C8_11 
REMARK    5  A    between atoms: C9_12  and  C10_14 
REMARK    6  A    between atoms: C10_14  and  C11_15 
ROOT
HETATM    1  C2  UNL     1      24.085  -0.601  54.263  1.00  0.00     0.008 C 
HETATM    2  C3  UNL     1      22.920  -0.495  53.589  1.00  0.00    -0.001 C 
HETATM    3  C4  UNL     1      22.677   0.250  52.390  1.00  0.00     0.056 C 
HETATM    4  C5  UNL     1      21.324   0.211  51.781  1.00  0.00     0.101 C 
HETATM    5  N2  UNL     1      21.358   0.835  50.616  1.00  0.00    -0.245 NA
HETATM    6  C6  UNL     1      22.434   1.720  50.222  1.00  0.00     0.152 C 
HETATM    7  C12 UNL     1      23.500   1.982  51.035  1.00  0.00     0.092 C 
HETATM    8  C13 UNL     1      22.979   1.747  52.453  1.00  0.00     0.082 C 
HETATM    9  O1  UNL     1      24.686   2.346  50.510  1.00  0.00    -0.350 OA
HETATM   10  C14 UNL     1      25.748   3.103  50.918  1.00  0.00     0.195 C 
HETATM   11  C15 UNL     1      26.909   2.203  51.444  1.00  0.00     0.156 C 
HETATM   12  N4  UNL     1      26.357   1.504  52.616  1.00  0.00    -0.347 N 
HETATM   13  C16 UNL     1      26.444   1.954  53.879  1.00  0.00     0.210 A 
HETATM   14  N5  UNL     1      25.622   1.118  54.544  1.00  0.00    -0.242 NA
HETATM   15  C17 UNL     1      25.112   0.238  53.631  1.00  0.00     0.085 A 
HETATM   16  C18 UNL     1      25.574   0.445  52.351  1.00  0.00     0.124 A 
ENDROOT
BRANCH   6  17
HETATM   17  N3  UNL     1      22.375   2.319  48.889  1.00  0.00    -0.369 N 
HETATM   18  H6  UNL     1      22.632   1.693  48.093  1.00  0.00     0.161 HD
BRANCH  17  19
HETATM   19  C7  UNL     1      21.974   3.687  48.791  1.00  0.00     0.150 C 
BRANCH  19  20
HETATM   20  C8  UNL     1      23.088   4.611  48.476  1.00  0.00     0.012 C 
HETATM   21  C9  UNL     1      23.581   5.757  48.938  1.00  0.00     0.012 C 
HETATM   22 CL1  UNL     1      24.973   6.621  48.309  1.00  0.00    -0.089 Cl
BRANCH  21  23
HETATM   23  C10 UNL     1      23.118   6.604  50.073  1.00  0.00     0.082 C 
BRANCH  23  24
HETATM   24  C11 UNL     1      23.961   6.393  51.309  1.00  0.00     0.227 C 
HETATM   25  F1  UNL     1      23.477   5.261  51.931  1.00  0.00    -0.255 F 
ENDBRANCH  23  24
ENDBRANCH  21  23
ENDBRANCH  19  20
ENDBRANCH  17  19
ENDBRANCH   6  17
BRANCH   1  26
HETATM   26  C1  UNL     1      24.212  -1.393  55.464  1.00  0.00     0.120 C 
HETATM   27  N1  UNL     1      25.272  -1.265  56.168  1.00  0.00    -0.311 NA
HETATM   28  H1  UNL     1      26.002  -0.600  55.853  1.00  0.00     0.186 HD
ENDBRANCH   1  26
TORSDOF 6
ENDMDL
