MODEL 1
REMARK VINA RESULT:      -8.8      0.000      0.000
REMARK  3 active torsions:
REMARK  status: ('A' for Active; 'I' for Inactive)
REMARK    1  A    between atoms: N1_1  and  C1_2 
REMARK    2  A    between atoms: C11_16  and  C12_17 
REMARK    3  A    between atoms: C16_21  and  O1_22 
ROOT
HETATM    1  C1  UNL     1      26.415   4.273  49.549  1.00  0.00     0.103 A 
HETATM    2  N2  UNL     1      25.323   4.804  49.396  1.00  0.00    -0.229 NA
HETATM    3  C2  UNL     1      24.522   5.704  48.746  1.00  0.00     0.230 A 
HETATM    4  N3  UNL     1      23.509   5.403  49.572  1.00  0.00    -0.263 NA
HETATM    5  C3  UNL     1      23.841   4.471  50.480  1.00  0.00     0.274 A 
HETATM    6  N4  UNL     1      23.492   3.755  51.603  1.00  0.00    -0.365 N 
HETATM    7  C4  UNL     1      22.261   3.927  52.285  1.00  0.00     0.125 C 
HETATM    8  C5  UNL     1      21.517   2.636  52.278  1.00  0.00     0.037 C 
HETATM    9  C6  UNL     1      22.456   1.546  52.702  1.00  0.00     0.018 A 
HETATM   10  C7  UNL     1      22.478   0.415  51.786  1.00  0.00     0.095 A 
HETATM   11  N5  UNL     1      21.986  -0.422  52.575  1.00  0.00    -0.304 NA
HETATM   12  C8  UNL     1      21.877   0.524  53.598  1.00  0.00     0.163 A 
HETATM   13  C9  UNL     1      23.839   2.045  53.086  1.00  0.00     0.074 C 
HETATM   14  C10 UNL     1      24.525   2.799  52.056  1.00  0.00     0.017 A 
HETATM   15  C11 UNL     1      25.761   2.715  51.523  1.00  0.00    -0.018 A 
HETATM   16  C18 UNL     1      26.624   3.233  50.556  1.00  0.00     0.119 A 
ENDROOT
BRANCH  15  17
HETATM   17  C12 UNL     1      26.507   1.637  52.257  1.00  0.00    -0.025 A 
HETATM   18  C13 UNL     1      26.418   0.307  51.957  1.00  0.00     0.012 A 
HETATM   19  C14 UNL     1      27.136  -0.660  52.596  1.00  0.00     0.004 A 
HETATM   20  C15 UNL     1      28.005  -0.331  53.596  1.00  0.00     0.036 A 
HETATM   21  C16 UNL     1      28.148   0.972  53.951  1.00  0.00     0.066 A 
HETATM   22  C17 UNL     1      27.414   1.910  53.290  1.00  0.00     0.048 A 
BRANCH  21  23
HETATM   23  O1  UNL     1      29.014   1.358  54.957  1.00  0.00    -0.361 OA
HETATM   24  H18 UNL     1      29.258   0.721  55.724  1.00  0.00     0.217 HD
ENDBRANCH  21  23
ENDBRANCH  15  17
BRANCH   1  25
HETATM   25  N1  UNL     1      27.543   4.638  48.740  1.00  0.00    -0.387 N 
HETATM   26  H1  UNL     1      28.471   5.096  48.611  1.00  0.00     0.157 HD
HETATM   27  H2  UNL     1      27.325   4.244  47.786  1.00  0.00     0.157 HD
ENDBRANCH   1  25
TORSDOF 3
ENDMDL
MODEL 2
REMARK VINA RESULT:      -7.6      2.513      4.230
REMARK  3 active torsions:
REMARK  status: ('A' for Active; 'I' for Inactive)
REMARK    1  A    between atoms: N1_1  and  C1_2 
REMARK    2  A    between atoms: C11_16  and  C12_17 
REMARK    3  A    between atoms: C16_21  and  O1_22 
ROOT
HETATM    1  C1  UNL     1      25.588   1.722  51.559  1.00  0.00     0.103 A 
HETATM    2  N2  UNL     1      25.509   2.817  51.017  1.00  0.00    -0.229 NA
HETATM    3  C2  UNL     1      26.091   3.837  50.313  1.00  0.00     0.230 A 
HETATM    4  N3  UNL     1      24.953   4.543  50.391  1.00  0.00    -0.263 NA
HETATM    5  C3  UNL     1      23.985   3.893  51.057  1.00  0.00     0.274 A 
HETATM    6  N4  UNL     1      22.723   3.920  51.607  1.00  0.00    -0.365 N 
HETATM    7  C4  UNL     1      21.885   5.062  51.580  1.00  0.00     0.125 C 
HETATM    8  C5  UNL     1      20.628   4.728  50.853  1.00  0.00     0.037 C 
HETATM    9  C6  UNL     1      20.101   3.431  51.391  1.00  0.00     0.018 A 
HETATM   10  C7  UNL     1      19.807   2.452  50.355  1.00  0.00     0.095 A 
HETATM   11  N5  UNL     1      18.570   2.423  50.527  1.00  0.00    -0.304 NA
HETATM   12  C8  UNL     1      18.634   3.364  51.558  1.00  0.00     0.163 A 
HETATM   13  C9  UNL     1      20.916   2.870  52.545  1.00  0.00     0.074 C 
HETATM   14  C10 UNL     1      22.318   2.652  52.253  1.00  0.00     0.017 A 
HETATM   15  C11 UNL     1      23.142   1.597  52.427  1.00  0.00    -0.018 A 
HETATM   16  C18 UNL     1      24.432   1.110  52.215  1.00  0.00     0.119 A 
ENDROOT
BRANCH  15  17
HETATM   17  C12 UNL     1      22.364   0.517  53.124  1.00  0.00    -0.025 A 
HETATM   18  C13 UNL     1      21.104   0.129  52.763  1.00  0.00     0.012 A 
HETATM   19  C14 UNL     1      20.425  -0.886  53.368  1.00  0.00     0.004 A 
HETATM   20  C15 UNL     1      20.993  -1.583  54.396  1.00  0.00     0.036 A 
HETATM   21  C16 UNL     1      22.243  -1.255  54.812  1.00  0.00     0.066 A 
HETATM   22  C17 UNL     1      22.891  -0.235  54.183  1.00  0.00     0.048 A 
BRANCH  21  23
HETATM   23  O1  UNL     1      22.863  -1.930  55.848  1.00  0.00    -0.361 OA
HETATM   24  H18 UNL     1      23.255  -2.868  55.713  1.00  0.00     0.217 HD
ENDBRANCH  21  23
ENDBRANCH  15  17
BRANCH   1  25
HETATM   25  N1  UNL     1      26.816   0.982  51.571  1.00  0.00    -0.387 N 
HETATM   26  H1  UNL     1      27.678   0.639  52.049  1.00  0.00     0.157 HD
HETATM   27  H2  UNL     1      26.890   0.572  50.603  1.00  0.00     0.157 HD
ENDBRANCH   1  25
TORSDOF 3
ENDMDL
MODEL 3
REMARK VINA RESULT:      -7.5      2.987      5.627
REMARK  3 active torsions:
REMARK  status: ('A' for Active; 'I' for Inactive)
REMARK    1  A    between atoms: N1_1  and  C1_2 
REMARK    2  A    between atoms: C11_16  and  C12_17 
REMARK    3  A    between atoms: C16_21  and  O1_22 
ROOT
HETATM    1  C1  UNL     1      25.671   0.194  53.216  1.00  0.00     0.103 A 
HETATM    2  N2  UNL     1      26.507   0.977  52.787  1.00  0.00    -0.229 NA
HETATM    3  C2  UNL     1      27.808   1.394  52.701  1.00  0.00     0.230 A 
HETATM    4  N3  UNL     1      27.423   2.454  51.974  1.00  0.00    -0.263 NA
HETATM    5  C3  UNL     1      26.096   2.487  51.769  1.00  0.00     0.274 A 
HETATM    6  N4  UNL     1      25.004   3.170  51.285  1.00  0.00    -0.365 N 
HETATM    7  C4  UNL     1      25.088   4.457  50.698  1.00  0.00     0.125 C 
HETATM    8  C5  UNL     1      24.586   4.387  49.297  1.00  0.00     0.037 C 
HETATM    9  C6  UNL     1      23.278   3.654  49.298  1.00  0.00     0.018 A 
HETATM   10  C7  UNL     1      23.226   2.562  48.337  1.00  0.00     0.095 A 
HETATM   11  N5  UNL     1      22.349   3.059  47.598  1.00  0.00    -0.304 NA
HETATM   12  C8  UNL     1      22.244   4.202  48.395  1.00  0.00     0.163 A 
HETATM   13  C9  UNL     1      22.795   3.266  50.686  1.00  0.00     0.074 C 
HETATM   14  C10 UNL     1      23.720   2.454  51.450  1.00  0.00     0.017 A 
HETATM   15  C11 UNL     1      23.583   1.299  52.134  1.00  0.00    -0.018 A 
HETATM   16  C18 UNL     1      24.254   0.325  52.874  1.00  0.00     0.119 A 
ENDROOT
BRANCH  15  17
HETATM   17  C12 UNL     1      22.135   0.901  52.078  1.00  0.00    -0.025 A 
HETATM   18  C13 UNL     1      21.440   0.711  50.917  1.00  0.00     0.012 A 
HETATM   19  C14 UNL     1      20.141   0.300  50.874  1.00  0.00     0.004 A 
HETATM   20  C15 UNL     1      19.455   0.053  52.028  1.00  0.00     0.036 A 
HETATM   21  C16 UNL     1      20.079   0.219  53.223  1.00  0.00     0.066 A 
HETATM   22  C17 UNL     1      21.378   0.630  53.226  1.00  0.00     0.048 A 
BRANCH  21  23
HETATM   23  O1  UNL     1      19.428  -0.018  54.419  1.00  0.00    -0.361 OA
HETATM   24  H18 UNL     1      19.268  -0.973  54.758  1.00  0.00     0.217 HD
ENDBRANCH  21  23
ENDBRANCH  15  17
BRANCH   1  25
HETATM   25  N1  UNL     1      26.040  -0.898  54.070  1.00  0.00    -0.387 N 
HETATM   26  H1  UNL     1      26.561  -1.294  54.883  1.00  0.00     0.157 HD
HETATM   27  H2  UNL     1      25.521  -1.729  53.680  1.00  0.00     0.157 HD
ENDBRANCH   1  25
TORSDOF 3
ENDMDL
MODEL 4
REMARK VINA RESULT:      -7.3      2.842      5.120
REMARK  3 active torsions:
REMARK  status: ('A' for Active; 'I' for Inactive)
REMARK    1  A    between atoms: N1_1  and  C1_2 
REMARK    2  A    between atoms: C11_16  and  C12_17 
REMARK    3  A    between atoms: C16_21  and  O1_22 
ROOT
HETATM    1  C1  UNL     1      21.627   2.242  48.855  1.00  0.00     0.103 A 
HETATM    2  N2  UNL     1      21.214   1.420  49.663  1.00  0.00    -0.229 NA
HETATM    3  C2  UNL     1      20.264   0.515  50.054  1.00  0.00     0.230 A 
HETATM    4  N3  UNL     1      20.930   0.309  51.201  1.00  0.00    -0.263 NA
HETATM    5  C3  UNL     1      22.048   1.047  51.290  1.00  0.00     0.274 A 
HETATM    6  N4  UNL     1      23.113   1.468  52.053  1.00  0.00    -0.365 N 
HETATM    7  C4  UNL     1      23.315   1.068  53.398  1.00  0.00     0.125 C 
HETATM    8  C5  UNL     1      24.623   0.361  53.504  1.00  0.00     0.037 C 
HETATM    9  C6  UNL     1      25.665   1.186  52.809  1.00  0.00     0.018 A 
HETATM   10  C7  UNL     1      26.446   0.433  51.839  1.00  0.00     0.095 A 
HETATM   11  N5  UNL     1      27.539   0.508  52.440  1.00  0.00    -0.304 NA
HETATM   12  C8  UNL     1      26.978   1.248  53.484  1.00  0.00     0.163 A 
HETATM   13  C9  UNL     1      25.141   2.509  52.274  1.00  0.00     0.074 C 
HETATM   14  C10 UNL     1      24.027   2.399  51.355  1.00  0.00     0.017 A 
HETATM   15  C11 UNL     1      23.787   2.916  50.132  1.00  0.00    -0.018 A 
HETATM   16  C18 UNL     1      22.893   2.945  49.061  1.00  0.00     0.119 A 
ENDROOT
BRANCH  15  17
HETATM   17  C12 UNL     1      24.938   3.815  49.779  1.00  0.00    -0.025 A 
HETATM   18  C13 UNL     1      26.173   3.363  49.406  1.00  0.00     0.012 A 
HETATM   19  C14 UNL     1      27.197   4.184  49.039  1.00  0.00     0.004 A 
HETATM   20  C15 UNL     1      27.028   5.539  49.028  1.00  0.00     0.036 A 
HETATM   21  C16 UNL     1      25.829   6.063  49.387  1.00  0.00     0.066 A 
HETATM   22  C17 UNL     1      24.829   5.211  49.747  1.00  0.00     0.048 A 
BRANCH  21  23
HETATM   23  O1  UNL     1      25.606   7.428  49.392  1.00  0.00    -0.361 OA
HETATM   24  H18 UNL     1      25.255   7.914  48.560  1.00  0.00     0.217 HD
ENDBRANCH  21  23
ENDBRANCH  15  17
BRANCH   1  25
HETATM   25  N1  UNL     1      20.892   2.551  47.662  1.00  0.00    -0.387 N 
HETATM   26  H1  UNL     1      20.043   2.907  47.172  1.00  0.00     0.157 HD
HETATM   27  H2  UNL     1      21.539   2.280  46.874  1.00  0.00     0.157 HD
ENDBRANCH   1  25
TORSDOF 3
ENDMDL
MODEL 5
REMARK VINA RESULT:      -7.3      3.512      5.777
REMARK  3 active torsions:
REMARK  status: ('A' for Active; 'I' for Inactive)
REMARK    1  A    between atoms: N1_1  and  C1_2 
REMARK    2  A    between atoms: C11_16  and  C12_17 
REMARK    3  A    between atoms: C16_21  and  O1_22 
ROOT
HETATM    1  C1  UNL     1      19.324   1.413  50.348  1.00  0.00     0.103 A 
HETATM    2  N2  UNL     1      18.968   0.529  51.115  1.00  0.00    -0.229 NA
HETATM    3  C2  UNL     1      18.032  -0.385  51.518  1.00  0.00     0.230 A 
HETATM    4  N3  UNL     1      18.802  -0.713  52.568  1.00  0.00    -0.263 NA
HETATM    5  C3  UNL     1      19.947  -0.013  52.609  1.00  0.00     0.274 A 
HETATM    6  N4  UNL     1      21.097   0.310  53.293  1.00  0.00    -0.365 N 
HETATM    7  C4  UNL     1      21.419  -0.218  54.568  1.00  0.00     0.125 C 
HETATM    8  C5  UNL     1      22.707  -0.962  54.476  1.00  0.00     0.037 C 
HETATM    9  C6  UNL     1      23.701  -0.101  53.755  1.00  0.00     0.018 A 
HETATM   10  C7  UNL     1      24.355  -0.779  52.646  1.00  0.00     0.095 A 
HETATM   11  N5  UNL     1      25.505  -0.785  53.136  1.00  0.00    -0.304 NA
HETATM   12  C8  UNL     1      25.076  -0.133  54.295  1.00  0.00     0.163 A 
HETATM   13  C9  UNL     1      23.170   1.278  53.398  1.00  0.00     0.074 C 
HETATM   14  C10 UNL     1      21.966   1.280  52.592  1.00  0.00     0.017 A 
HETATM   15  C11 UNL     1      21.623   1.914  51.452  1.00  0.00    -0.018 A 
HETATM   16  C18 UNL     1      20.628   2.065  50.485  1.00  0.00     0.119 A 
ENDROOT
BRANCH  15  17
HETATM   17  C12 UNL     1      22.761   2.815  51.065  1.00  0.00    -0.025 A 
HETATM   18  C13 UNL     1      23.646   2.539  50.061  1.00  0.00     0.012 A 
HETATM   19  C14 UNL     1      24.646   3.385  49.683  1.00  0.00     0.004 A 
HETATM   20  C15 UNL     1      24.813   4.584  50.313  1.00  0.00     0.036 A 
HETATM   21  C16 UNL     1      23.973   4.929  51.323  1.00  0.00     0.066 A 
HETATM   22  C17 UNL     1      22.985   4.058  51.672  1.00  0.00     0.048 A 
BRANCH  21  23
HETATM   23  O1  UNL     1      24.100   6.132  51.993  1.00  0.00    -0.361 OA
HETATM   24  H18 UNL     1      23.678   6.993  51.627  1.00  0.00     0.217 HD
ENDBRANCH  21  23
ENDBRANCH  15  17
BRANCH   1  25
HETATM   25  N1  UNL     1      18.485   1.849  49.269  1.00  0.00    -0.387 N 
HETATM   26  H1  UNL     1      18.348   2.220  48.303  1.00  0.00     0.157 HD
HETATM   27  H2  UNL     1      17.502   1.739  49.634  1.00  0.00     0.157 HD
ENDBRANCH   1  25
TORSDOF 3
ENDMDL
MODEL 6
REMARK VINA RESULT:      -6.8      3.632      6.423
REMARK  3 active torsions:
REMARK  status: ('A' for Active; 'I' for Inactive)
REMARK    1  A    between atoms: N1_1  and  C1_2 
REMARK    2  A    between atoms: C11_16  and  C12_17 
REMARK    3  A    between atoms: C16_21  and  O1_22 
ROOT
HETATM    1  C1  UNL     1      23.934   0.235  53.181  1.00  0.00     0.103 A 
HETATM    2  N2  UNL     1      24.525   1.300  53.063  1.00  0.00    -0.229 NA
HETATM    3  C2  UNL     1      25.683   2.028  53.135  1.00  0.00     0.230 A 
HETATM    4  N3  UNL     1      25.001   3.145  52.837  1.00  0.00    -0.263 NA
HETATM    5  C3  UNL     1      23.690   2.918  52.656  1.00  0.00     0.274 A 
HETATM    6  N4  UNL     1      22.431   3.436  52.450  1.00  0.00    -0.365 N 
HETATM    7  C4  UNL     1      22.164   4.825  52.365  1.00  0.00     0.125 C 
HETATM    8  C5  UNL     1      21.572   5.127  51.032  1.00  0.00     0.037 C 
HETATM    9  C6  UNL     1      20.473   4.140  50.767  1.00  0.00     0.018 A 
HETATM   10  C7  UNL     1      20.591   3.476  49.478  1.00  0.00     0.095 A 
HETATM   11  N5  UNL     1      19.561   3.966  48.966  1.00  0.00    -0.304 NA
HETATM   12  C8  UNL     1      19.266   4.695  50.121  1.00  0.00     0.163 A 
HETATM   13  C9  UNL     1      20.216   3.187  51.923  1.00  0.00     0.074 C 
HETATM   14  C10 UNL     1      21.367   2.413  52.344  1.00  0.00     0.017 A 
HETATM   15  C11 UNL     1      21.561   1.097  52.567  1.00  0.00    -0.018 A 
HETATM   16  C18 UNL     1      22.500   0.124  52.907  1.00  0.00     0.119 A 
ENDROOT
BRANCH  15  17
HETATM   17  C12 UNL     1      20.245   0.399  52.369  1.00  0.00    -0.025 A 
HETATM   18  C13 UNL     1      19.615  -0.332  53.338  1.00  0.00     0.012 A 
HETATM   19  C14 UNL     1      18.397  -0.920  53.167  1.00  0.00     0.004 A 
HETATM   20  C15 UNL     1      17.732  -0.801  51.981  1.00  0.00     0.036 A 
HETATM   21  C16 UNL     1      18.294  -0.091  50.970  1.00  0.00     0.066 A 
HETATM   22  C17 UNL     1      19.512   0.483  51.178  1.00  0.00     0.048 A 
BRANCH  21  23
HETATM   23  O1  UNL     1      17.661   0.059  49.750  1.00  0.00    -0.361 OA
HETATM   24  H18 UNL     1      17.883  -0.551  48.956  1.00  0.00     0.217 HD
ENDBRANCH  21  23
ENDBRANCH  15  17
BRANCH   1  25
HETATM   25  N1  UNL     1      24.618  -0.959  53.586  1.00  0.00    -0.387 N 
HETATM   26  H1  UNL     1      24.974  -1.922  53.399  1.00  0.00     0.157 HD
HETATM   27  H2  UNL     1      24.914  -0.773  54.580  1.00  0.00     0.157 HD
ENDBRANCH   1  25
TORSDOF 3
ENDMDL
MODEL 7
REMARK VINA RESULT:      -6.7      4.120      7.038
REMARK  3 active torsions:
REMARK  status: ('A' for Active; 'I' for Inactive)
REMARK    1  A    between atoms: N1_1  and  C1_2 
REMARK    2  A    between atoms: C11_16  and  C12_17 
REMARK    3  A    between atoms: C16_21  and  O1_22 
ROOT
HETATM    1  C1  UNL     1      17.758  -0.142  50.713  1.00  0.00     0.103 A 
HETATM    2  N2  UNL     1      17.664  -0.677  51.810  1.00  0.00    -0.229 NA
HETATM    3  C2  UNL     1      16.949  -1.423  52.708  1.00  0.00     0.230 A 
HETATM    4  N3  UNL     1      17.919  -1.257  53.620  1.00  0.00    -0.263 NA
HETATM    5  C3  UNL     1      18.941  -0.517  53.161  1.00  0.00     0.274 A 
HETATM    6  N4  UNL     1      20.127   0.129  53.424  1.00  0.00    -0.365 N 
HETATM    7  C4  UNL     1      20.726   0.168  54.707  1.00  0.00     0.125 C 
HETATM    8  C5  UNL     1      22.076  -0.459  54.635  1.00  0.00     0.037 C 
HETATM    9  C6  UNL     1      22.803   0.118  53.458  1.00  0.00     0.018 A 
HETATM   10  C7  UNL     1      23.360  -0.892  52.571  1.00  0.00     0.095 A 
HETATM   11  N5  UNL     1      24.563  -0.624  52.780  1.00  0.00    -0.304 NA
HETATM   12  C8  UNL     1      24.238   0.399  53.675  1.00  0.00     0.163 A 
HETATM   13  C9  UNL     1      22.027   1.205  52.731  1.00  0.00     0.074 C 
HETATM   14  C10 UNL     1      20.721   0.805  52.249  1.00  0.00     0.017 A 
HETATM   15  C11 UNL     1      20.108   0.914  51.052  1.00  0.00    -0.018 A 
HETATM   16  C18 UNL     1      18.958   0.601  50.326  1.00  0.00     0.119 A 
ENDROOT
BRANCH  15  17
HETATM   17  C12 UNL     1      21.026   1.668  50.133  1.00  0.00    -0.025 A 
HETATM   18  C13 UNL     1      21.546   1.151  48.980  1.00  0.00     0.012 A 
HETATM   19  C14 UNL     1      22.338   1.859  48.125  1.00  0.00     0.004 A 
HETATM   20  C15 UNL     1      22.656   3.159  48.393  1.00  0.00     0.036 A 
HETATM   21  C16 UNL     1      22.177   3.743  49.521  1.00  0.00     0.066 A 
HETATM   22  C17 UNL     1      21.388   3.004  50.350  1.00  0.00     0.048 A 
BRANCH  21  23
HETATM   23  O1  UNL     1      22.470   5.057  49.838  1.00  0.00    -0.361 OA
HETATM   24  H18 UNL     1      22.264   5.439  50.767  1.00  0.00     0.217 HD
ENDBRANCH  21  23
ENDBRANCH  15  17
BRANCH   1  25
HETATM   25  N1  UNL     1      16.701  -0.227  49.747  1.00  0.00    -0.387 N 
HETATM   26  H1  UNL     1      15.871   0.173  49.255  1.00  0.00     0.157 HD
HETATM   27  H2  UNL     1      16.817  -1.177  49.307  1.00  0.00     0.157 HD
ENDBRANCH   1  25
TORSDOF 3
ENDMDL
MODEL 8
REMARK VINA RESULT:      -6.6      2.591      3.804
REMARK  3 active torsions:
REMARK  status: ('A' for Active; 'I' for Inactive)
REMARK    1  A    between atoms: N1_1  and  C1_2 
REMARK    2  A    between atoms: C11_16  and  C12_17 
REMARK    3  A    between atoms: C16_21  and  O1_22 
ROOT
HETATM    1  C1  UNL     1      26.165   6.642  49.010  1.00  0.00     0.103 A 
HETATM    2  N2  UNL     1      25.441   7.040  48.108  1.00  0.00    -0.229 NA
HETATM    3  C2  UNL     1      25.209   7.891  47.061  1.00  0.00     0.230 A 
HETATM    4  N3  UNL     1      23.978   7.377  46.914  1.00  0.00    -0.263 NA
HETATM    5  C3  UNL     1      23.711   6.408  47.804  1.00  0.00     0.274 A 
HETATM    6  N4  UNL     1      22.791   5.541  48.349  1.00  0.00    -0.365 N 
HETATM    7  C4  UNL     1      21.437   5.480  47.935  1.00  0.00     0.125 C 
HETATM    8  C5  UNL     1      21.145   4.112  47.424  1.00  0.00     0.037 C 
HETATM    9  C6  UNL     1      21.664   3.115  48.417  1.00  0.00     0.018 A 
HETATM   10  C7  UNL     1      22.516   2.096  47.821  1.00  0.00     0.095 A 
HETATM   11  N5  UNL     1      21.757   1.127  48.034  1.00  0.00    -0.304 NA
HETATM   12  C8  UNL     1      20.799   1.939  48.647  1.00  0.00     0.163 A 
HETATM   13  C9  UNL     1      22.254   3.747  49.667  1.00  0.00     0.074 C 
HETATM   14  C10 UNL     1      23.332   4.685  49.428  1.00  0.00     0.017 A 
HETATM   15  C11 UNL     1      24.570   4.818  49.947  1.00  0.00    -0.018 A 
HETATM   16  C18 UNL     1      25.762   5.539  49.884  1.00  0.00     0.119 A 
ENDROOT
BRANCH  15  17
HETATM   17  C12 UNL     1      24.733   3.776  51.017  1.00  0.00    -0.025 A 
HETATM   18  C13 UNL     1      24.042   3.777  52.196  1.00  0.00     0.012 A 
HETATM   19  C14 UNL     1      24.159   2.801  53.140  1.00  0.00     0.004 A 
HETATM   20  C15 UNL     1      25.000   1.744  52.943  1.00  0.00     0.036 A 
HETATM   21  C16 UNL     1      25.722   1.673  51.795  1.00  0.00     0.066 A 
HETATM   22  C17 UNL     1      25.578   2.667  50.874  1.00  0.00     0.048 A 
BRANCH  21  23
HETATM   23  O1  UNL     1      26.588   0.624  51.547  1.00  0.00    -0.361 OA
HETATM   24  H18 UNL     1      27.605   0.751  51.589  1.00  0.00     0.217 HD
ENDBRANCH  21  23
ENDBRANCH  15  17
BRANCH   1  25
HETATM   25  N1  UNL     1      27.451   7.231  49.251  1.00  0.00    -0.387 N 
HETATM   26  H1  UNL     1      28.217   7.897  49.007  1.00  0.00     0.157 HD
HETATM   27  H2  UNL     1      27.810   6.746  50.115  1.00  0.00     0.157 HD
ENDBRANCH   1  25
TORSDOF 3
ENDMDL
MODEL 9
REMARK VINA RESULT:      -6.6      2.471      3.419
REMARK  3 active torsions:
REMARK  status: ('A' for Active; 'I' for Inactive)
REMARK    1  A    between atoms: N1_1  and  C1_2 
REMARK    2  A    between atoms: C11_16  and  C12_17 
REMARK    3  A    between atoms: C16_21  and  O1_22 
ROOT
HETATM    1  C1  UNL     1      26.276   4.933  49.350  1.00  0.00     0.103 A 
HETATM    2  N2  UNL     1      25.638   5.889  48.930  1.00  0.00    -0.229 NA
HETATM    3  C2  UNL     1      25.561   7.015  48.155  1.00  0.00     0.230 A 
HETATM    4  N3  UNL     1      24.322   7.248  48.615  1.00  0.00    -0.263 NA
HETATM    5  C3  UNL     1      23.912   6.320  49.494  1.00  0.00     0.274 A 
HETATM    6  N4  UNL     1      22.959   5.902  50.395  1.00  0.00    -0.365 N 
HETATM    7  C4  UNL     1      21.792   6.647  50.696  1.00  0.00     0.125 C 
HETATM    8  C5  UNL     1      20.592   5.831  50.355  1.00  0.00     0.037 C 
HETATM    9  C6  UNL     1      20.771   4.461  50.938  1.00  0.00     0.018 A 
HETATM   10  C7  UNL     1      20.564   3.391  49.973  1.00  0.00     0.095 A 
HETATM   11  N5  UNL     1      19.538   2.912  50.503  1.00  0.00    -0.304 NA
HETATM   12  C8  UNL     1      19.557   3.861  51.529  1.00  0.00     0.163 A 
HETATM   13  C9  UNL     1      22.042   4.305  51.756  1.00  0.00     0.074 C 
HETATM   14  C10 UNL     1      23.268   4.610  51.047  1.00  0.00     0.017 A 
HETATM   15  C11 UNL     1      24.434   3.950  50.896  1.00  0.00    -0.018 A 
HETATM   16  C18 UNL     1      25.684   3.968  50.278  1.00  0.00     0.119 A 
ENDROOT
BRANCH  15  17
HETATM   17  C12 UNL     1      24.361   2.695  51.719  1.00  0.00    -0.025 A 
HETATM   18  C13 UNL     1      25.260   2.368  52.696  1.00  0.00     0.012 A 
HETATM   19  C14 UNL     1      25.157   1.252  53.473  1.00  0.00     0.004 A 
HETATM   20  C15 UNL     1      24.118   0.384  53.303  1.00  0.00     0.036 A 
HETATM   21  C16 UNL     1      23.185   0.640  52.351  1.00  0.00     0.066 A 
HETATM   22  C17 UNL     1      23.320   1.765  51.595  1.00  0.00     0.048 A 
BRANCH  21  23
HETATM   23  O1  UNL     1      22.114  -0.209  52.139  1.00  0.00    -0.361 OA
HETATM   24  H18 UNL     1      22.092  -1.150  52.545  1.00  0.00     0.217 HD
ENDBRANCH  21  23
ENDBRANCH  15  17
BRANCH   1  25
HETATM   25  N1  UNL     1      27.634   4.705  48.946  1.00  0.00    -0.387 N 
HETATM   26  H1  UNL     1      28.659   4.885  49.025  1.00  0.00     0.157 HD
HETATM   27  H2  UNL     1      27.566   3.990  48.174  1.00  0.00     0.157 HD
ENDBRANCH   1  25
TORSDOF 3
ENDMDL
