MODEL 1
REMARK VINA RESULT:      -7.5      0.000      0.000
REMARK  3 active torsions:
REMARK  status: ('A' for Active; 'I' for Inactive)
REMARK    1  A    between atoms: C12_13  and  S1_14 
REMARK    2  A    between atoms: S1_14  and  C13_15 
REMARK    3  A    between atoms: C18_20  and  N1_21 
ROOT
HETATM    1  C1  UNL     1      25.960   9.348  47.720  1.00  0.00     0.019 C 
HETATM    2  C2  UNL     1      26.153   7.987  48.380  1.00  0.00    -0.030 C 
HETATM    3  C3  UNL     1      26.408   8.277  49.830  1.00  0.00     0.019 C 
HETATM    4  C4  UNL     1      24.872   7.238  48.169  1.00  0.00    -0.019 C 
HETATM    5  C5  UNL     1      24.469   6.034  48.576  1.00  0.00     0.017 C 
HETATM    6  C6  UNL     1      24.990   4.886  49.372  1.00  0.00     0.218 C 
HETATM    7  C7  UNL     1      26.373   4.508  48.973  1.00  0.00     0.017 C 
HETATM    8  C8  UNL     1      27.562   4.999  48.639  1.00  0.00    -0.028 C 
HETATM    9  C9  UNL     1      28.077   6.377  48.503  1.00  0.00     0.028 C 
HETATM   10  C10 UNL     1      27.247   7.288  47.659  1.00  0.00     0.016 C 
HETATM   11  C11 UNL     1      24.854   5.113  50.846  1.00  0.00     0.221 C 
HETATM   12  O1  UNL     1      23.764   4.437  51.318  1.00  0.00    -0.346 OA
HETATM   13  C12 UNL     1      23.271   3.632  50.322  1.00  0.00     0.424 C 
HETATM   14  N2  UNL     1      24.088   3.769  49.159  1.00  0.00     0.141 N 
HETATM   15  H24 UNL     1      24.696   2.900  49.094  1.00  0.00     0.322 HD
ENDROOT
BRANCH  13  16
HETATM   16  S1  UNL     1      23.336   1.924  50.986  1.00  0.00    -0.092 SA
BRANCH  16  17
HETATM   17  C13 UNL     1      23.323   1.951  52.777  1.00  0.00     0.124 C 
HETATM   18  C14 UNL     1      22.565   0.779  53.268  1.00  0.00    -0.005 C 
HETATM   19  C15 UNL     1      23.171  -0.398  53.435  1.00  0.00    -0.002 C 
HETATM   20  C16 UNL     1      24.609  -0.492  53.116  1.00  0.00     0.014 C 
HETATM   21  C17 UNL     1      25.305   0.591  53.402  1.00  0.00    -0.000 C 
HETATM   22  C18 UNL     1      24.735   1.745  53.232  1.00  0.00     0.032 C 
BRANCH  22  23
HETATM   23  N1  UNL     1      25.558   2.876  53.512  1.00  0.00    -0.400 N 
HETATM   24  H22 UNL     1      24.870   3.584  53.868  1.00  0.00     0.156 HD
HETATM   25  H23 UNL     1      26.258   3.611  53.669  1.00  0.00     0.156 HD
ENDBRANCH  22  23
ENDBRANCH  16  17
ENDBRANCH  13  16
TORSDOF 3
ENDMDL
MODEL 2
REMARK VINA RESULT:      -7.4      5.764      8.203
REMARK  3 active torsions:
REMARK  status: ('A' for Active; 'I' for Inactive)
REMARK    1  A    between atoms: C12_13  and  S1_14 
REMARK    2  A    between atoms: S1_14  and  C13_15 
REMARK    3  A    between atoms: C18_20  and  N1_21 
ROOT
HETATM    1  C1  UNL     1      25.499   9.339  49.207  1.00  0.00     0.019 C 
HETATM    2  C2  UNL     1      26.475   8.293  48.679  1.00  0.00    -0.030 C 
HETATM    3  C3  UNL     1      26.306   8.303  47.189  1.00  0.00     0.019 C 
HETATM    4  C4  UNL     1      27.840   8.752  49.098  1.00  0.00    -0.019 C 
HETATM    5  C5  UNL     1      29.055   8.254  48.863  1.00  0.00     0.017 C 
HETATM    6  C6  UNL     1      29.678   7.106  48.145  1.00  0.00     0.218 C 
HETATM    7  C7  UNL     1      28.990   5.820  48.440  1.00  0.00     0.017 C 
HETATM    8  C8  UNL     1      27.797   5.256  48.599  1.00  0.00    -0.028 C 
HETATM    9  C9  UNL     1      26.420   5.787  48.534  1.00  0.00     0.028 C 
HETATM   10  C10 UNL     1      26.167   7.008  49.357  1.00  0.00     0.016 C 
HETATM   11  C11 UNL     1      29.816   7.365  46.678  1.00  0.00     0.221 C 
HETATM   12  O1  UNL     1      31.101   7.732  46.392  1.00  0.00    -0.346 OA
HETATM   13  C12 UNL     1      31.874   7.561  47.514  1.00  0.00     0.424 C 
HETATM   14  N2  UNL     1      31.065   7.036  48.566  1.00  0.00     0.141 N 
HETATM   15  H24 UNL     1      31.299   6.004  48.662  1.00  0.00     0.322 HD
ENDROOT
BRANCH  13  16
HETATM   16  S1  UNL     1      33.192   6.380  47.032  1.00  0.00    -0.092 SA
BRANCH  16  17
HETATM   17  C13 UNL     1      33.084   4.890  48.020  1.00  0.00     0.124 C 
HETATM   18  C14 UNL     1      32.280   3.886  47.288  1.00  0.00    -0.005 C 
HETATM   19  C15 UNL     1      32.855   3.078  46.395  1.00  0.00    -0.002 C 
HETATM   20  C16 UNL     1      34.306   3.218  46.162  1.00  0.00     0.014 C 
HETATM   21  C17 UNL     1      35.005   3.523  47.237  1.00  0.00    -0.000 C 
HETATM   22  C18 UNL     1      34.466   4.320  48.111  1.00  0.00     0.032 C 
BRANCH  22  23
HETATM   23  N1  UNL     1      35.294   4.648  49.225  1.00  0.00    -0.400 N 
HETATM   24  H22 UNL     1      35.947   5.368  48.828  1.00  0.00     0.156 HD
HETATM   25  H23 UNL     1      35.813   4.790  50.099  1.00  0.00     0.156 HD
ENDBRANCH  22  23
ENDBRANCH  16  17
ENDBRANCH  13  16
TORSDOF 3
ENDMDL
MODEL 3
REMARK VINA RESULT:      -7.4      2.643      4.005
REMARK  3 active torsions:
REMARK  status: ('A' for Active; 'I' for Inactive)
REMARK    1  A    between atoms: C12_13  and  S1_14 
REMARK    2  A    between atoms: S1_14  and  C13_15 
REMARK    3  A    between atoms: C18_20  and  N1_21 
ROOT
HETATM    1  C1  UNL     1      21.806   6.021  48.708  1.00  0.00     0.019 C 
HETATM    2  C2  UNL     1      22.984   5.415  49.465  1.00  0.00    -0.030 C 
HETATM    3  C3  UNL     1      23.143   6.256  50.697  1.00  0.00     0.019 C 
HETATM    4  C4  UNL     1      22.587   4.006  49.787  1.00  0.00    -0.019 C 
HETATM    5  C5  UNL     1      23.206   3.044  50.475  1.00  0.00     0.017 C 
HETATM    6  C6  UNL     1      24.479   2.841  51.222  1.00  0.00     0.218 C 
HETATM    7  C7  UNL     1      25.660   3.332  50.462  1.00  0.00     0.017 C 
HETATM    8  C8  UNL     1      26.104   4.323  49.696  1.00  0.00    -0.028 C 
HETATM    9  C9  UNL     1      25.477   5.566  49.202  1.00  0.00     0.028 C 
HETATM   10  C10 UNL     1      24.147   5.392  48.542  1.00  0.00     0.016 C 
HETATM   11  C11 UNL     1      24.414   3.395  52.611  1.00  0.00     0.221 C 
HETATM   12  O1  UNL     1      24.188   2.383  53.502  1.00  0.00    -0.346 OA
HETATM   13  C12 UNL     1      24.281   1.181  52.846  1.00  0.00     0.424 C 
HETATM   14  N2  UNL     1      24.607   1.418  51.476  1.00  0.00     0.141 N 
HETATM   15  H24 UNL     1      25.635   1.180  51.349  1.00  0.00     0.322 HD
ENDROOT
BRANCH  13  16
HETATM   16  S1  UNL     1      25.614   0.253  53.698  1.00  0.00    -0.092 SA
BRANCH  16  17
HETATM   17  C13 UNL     1      27.073   0.165  52.662  1.00  0.00     0.124 C 
HETATM   18  C14 UNL     1      27.708   1.500  52.614  1.00  0.00    -0.005 C 
HETATM   19  C15 UNL     1      28.577   1.871  53.557  1.00  0.00    -0.002 C 
HETATM   20  C16 UNL     1      28.881   0.914  54.639  1.00  0.00     0.014 C 
HETATM   21  C17 UNL     1      28.902  -0.349  54.262  1.00  0.00    -0.000 C 
HETATM   22  C18 UNL     1      28.053  -0.730  53.356  1.00  0.00     0.032 C 
BRANCH  22  23
HETATM   23  N1  UNL     1      28.095  -2.118  53.029  1.00  0.00    -0.400 N 
HETATM   24  H22 UNL     1      29.072  -2.392  53.298  1.00  0.00     0.156 HD
HETATM   25  H23 UNL     1      27.992  -3.101  52.750  1.00  0.00     0.156 HD
ENDBRANCH  22  23
ENDBRANCH  16  17
ENDBRANCH  13  16
TORSDOF 3
ENDMDL
MODEL 4
REMARK VINA RESULT:      -7.4      4.200      6.248
REMARK  3 active torsions:
REMARK  status: ('A' for Active; 'I' for Inactive)
REMARK    1  A    between atoms: C12_13  and  S1_14 
REMARK    2  A    between atoms: S1_14  and  C13_15 
REMARK    3  A    between atoms: C18_20  and  N1_21 
ROOT
HETATM    1  C1  UNL     1      18.793   3.532  51.387  1.00  0.00     0.019 C 
HETATM    2  C2  UNL     1      19.993   2.596  51.484  1.00  0.00    -0.030 C 
HETATM    3  C3  UNL     1      20.279   2.165  50.075  1.00  0.00     0.019 C 
HETATM    4  C4  UNL     1      21.108   3.411  52.065  1.00  0.00    -0.019 C 
HETATM    5  C5  UNL     1      22.386   3.117  52.316  1.00  0.00     0.017 C 
HETATM    6  C6  UNL     1      23.319   1.963  52.182  1.00  0.00     0.218 C 
HETATM    7  C7  UNL     1      22.722   0.697  52.686  1.00  0.00     0.017 C 
HETATM    8  C8  UNL     1      21.607  -0.026  52.709  1.00  0.00    -0.028 C 
HETATM    9  C9  UNL     1      20.263   0.185  52.133  1.00  0.00     0.028 C 
HETATM   10  C10 UNL     1      19.640   1.509  52.433  1.00  0.00     0.016 C 
HETATM   11  C11 UNL     1      23.862   1.834  50.793  1.00  0.00     0.221 C 
HETATM   12  O1  UNL     1      25.125   2.356  50.740  1.00  0.00    -0.346 OA
HETATM   13  C12 UNL     1      25.539   2.652  52.015  1.00  0.00     0.424 C 
HETATM   14  N2  UNL     1      24.514   2.285  52.939  1.00  0.00     0.141 N 
HETATM   15  H24 UNL     1      24.823   1.386  53.413  1.00  0.00     0.322 HD
ENDROOT
BRANCH  13  16
HETATM   16  S1  UNL     1      27.063   1.668  52.282  1.00  0.00    -0.092 SA
BRANCH  16  17
HETATM   17  C13 UNL     1      26.935   0.720  53.796  1.00  0.00     0.124 C 
HETATM   18  C14 UNL     1      26.340  -0.598  53.487  1.00  0.00    -0.005 C 
HETATM   19  C15 UNL     1      27.110  -1.612  53.089  1.00  0.00    -0.002 C 
HETATM   20  C16 UNL     1      28.563  -1.377  52.967  1.00  0.00     0.014 C 
HETATM   21  C17 UNL     1      29.062  -0.560  53.873  1.00  0.00    -0.000 C 
HETATM   22  C18 UNL     1      28.331   0.441  54.262  1.00  0.00     0.032 C 
BRANCH  22  23
HETATM   23  N1  UNL     1      28.949   1.314  55.205  1.00  0.00    -0.400 N 
HETATM   24  H22 UNL     1      29.939   1.365  54.864  1.00  0.00     0.156 HD
HETATM   25  H23 UNL     1      29.266   1.948  55.947  1.00  0.00     0.156 HD
ENDBRANCH  22  23
ENDBRANCH  16  17
ENDBRANCH  13  16
TORSDOF 3
ENDMDL
MODEL 5
REMARK VINA RESULT:      -7.3      1.833      7.465
REMARK  3 active torsions:
REMARK  status: ('A' for Active; 'I' for Inactive)
REMARK    1  A    between atoms: C12_13  and  S1_14 
REMARK    2  A    between atoms: S1_14  and  C13_15 
REMARK    3  A    between atoms: C18_20  and  N1_21 
ROOT
HETATM    1  C1  UNL     1      21.274  -1.422  54.604  1.00  0.00     0.019 C 
HETATM    2  C2  UNL     1      22.232  -0.666  53.689  1.00  0.00    -0.030 C 
HETATM    3  C3  UNL     1      22.250  -1.438  52.403  1.00  0.00     0.019 C 
HETATM    4  C4  UNL     1      21.648   0.704  53.520  1.00  0.00    -0.019 C 
HETATM    5  C5  UNL     1      22.036   1.751  52.790  1.00  0.00     0.017 C 
HETATM    6  C6  UNL     1      23.129   2.116  51.845  1.00  0.00     0.218 C 
HETATM    7  C7  UNL     1      24.470   1.726  52.359  1.00  0.00     0.017 C 
HETATM    8  C8  UNL     1      25.138   0.759  52.980  1.00  0.00    -0.028 C 
HETATM    9  C9  UNL     1      24.734  -0.561  53.506  1.00  0.00     0.028 C 
HETATM   10  C10 UNL     1      23.534  -0.554  54.395  1.00  0.00     0.016 C 
HETATM   11  C11 UNL     1      22.871   1.611  50.460  1.00  0.00     0.221 C 
HETATM   12  O1  UNL     1      22.391   2.626  49.679  1.00  0.00    -0.346 OA
HETATM   13  C12 UNL     1      22.483   3.806  50.376  1.00  0.00     0.424 C 
HETATM   14  N2  UNL     1      23.070   3.554  51.652  1.00  0.00     0.141 N 
HETATM   15  H24 UNL     1      24.075   3.895  51.612  1.00  0.00     0.322 HD
ENDROOT
BRANCH  13  16
HETATM   16  S1  UNL     1      23.544   4.902  49.357  1.00  0.00    -0.092 SA
BRANCH  16  17
HETATM   17  C13 UNL     1      25.066   5.275  50.224  1.00  0.00     0.124 C 
HETATM   18  C14 UNL     1      26.200   5.131  49.285  1.00  0.00    -0.005 C 
HETATM   19  C15 UNL     1      26.566   6.149  48.503  1.00  0.00    -0.002 C 
HETATM   20  C16 UNL     1      25.808   7.412  48.605  1.00  0.00     0.014 C 
HETATM   21  C17 UNL     1      25.393   7.704  49.822  1.00  0.00    -0.000 C 
HETATM   22  C18 UNL     1      25.021   6.726  50.592  1.00  0.00     0.032 C 
BRANCH  22  23
HETATM   23  N1  UNL     1      24.537   7.114  51.876  1.00  0.00    -0.400 N 
HETATM   24  H22 UNL     1      23.495   7.055  51.762  1.00  0.00     0.156 HD
HETATM   25  H23 UNL     1      24.325   7.409  52.837  1.00  0.00     0.156 HD
ENDBRANCH  22  23
ENDBRANCH  16  17
ENDBRANCH  13  16
TORSDOF 3
ENDMDL
MODEL 6
REMARK VINA RESULT:      -7.2      2.955      4.620
REMARK  3 active torsions:
REMARK  status: ('A' for Active; 'I' for Inactive)
REMARK    1  A    between atoms: C12_13  and  S1_14 
REMARK    2  A    between atoms: S1_14  and  C13_15 
REMARK    3  A    between atoms: C18_20  and  N1_21 
ROOT
HETATM    1  C1  UNL     1      19.721   2.845  47.810  1.00  0.00     0.019 C 
HETATM    2  C2  UNL     1      20.949   3.308  48.587  1.00  0.00    -0.030 C 
HETATM    3  C3  UNL     1      20.438   4.301  49.589  1.00  0.00     0.019 C 
HETATM    4  C4  UNL     1      21.512   2.081  49.240  1.00  0.00    -0.019 C 
HETATM    5  C5  UNL     1      22.541   1.911  50.072  1.00  0.00     0.017 C 
HETATM    6  C6  UNL     1      23.588   2.731  50.745  1.00  0.00     0.218 C 
HETATM    7  C7  UNL     1      24.247   3.679  49.806  1.00  0.00     0.017 C 
HETATM    8  C8  UNL     1      24.021   4.529  48.809  1.00  0.00    -0.028 C 
HETATM    9  C9  UNL     1      22.792   4.945  48.105  1.00  0.00     0.028 C 
HETATM   10  C10 UNL     1      21.934   3.829  47.605  1.00  0.00     0.016 C 
HETATM   11  C11 UNL     1      23.073   3.402  51.979  1.00  0.00     0.221 C 
HETATM   12  O1  UNL     1      23.468   2.702  53.085  1.00  0.00    -0.346 OA
HETATM   13  C12 UNL     1      24.356   1.727  52.703  1.00  0.00     0.424 C 
HETATM   14  N2  UNL     1      24.568   1.812  51.294  1.00  0.00     0.141 N 
HETATM   15  H24 UNL     1      25.520   2.260  51.142  1.00  0.00     0.322 HD
ENDROOT
BRANCH  13  16
HETATM   16  S1  UNL     1      25.900   2.071  53.632  1.00  0.00    -0.092 SA
BRANCH  16  17
HETATM   17  C13 UNL     1      26.368   0.645  54.610  1.00  0.00     0.124 C 
HETATM   18  C14 UNL     1      25.594  -0.528  54.149  1.00  0.00    -0.005 C 
HETATM   19  C15 UNL     1      26.029  -1.268  53.127  1.00  0.00    -0.002 C 
HETATM   20  C16 UNL     1      27.297  -0.880  52.477  1.00  0.00     0.014 C 
HETATM   21  C17 UNL     1      28.206  -0.392  53.299  1.00  0.00    -0.000 C 
HETATM   22  C18 UNL     1      27.800   0.342  54.291  1.00  0.00     0.032 C 
BRANCH  22  23
HETATM   23  N1  UNL     1      28.835   0.879  55.112  1.00  0.00    -0.400 N 
HETATM   24  H22 UNL     1      29.235   0.026  55.573  1.00  0.00     0.156 HD
HETATM   25  H23 UNL     1      29.540   1.393  55.653  1.00  0.00     0.156 HD
ENDBRANCH  22  23
ENDBRANCH  16  17
ENDBRANCH  13  16
TORSDOF 3
ENDMDL
MODEL 7
REMARK VINA RESULT:      -7.1      2.076      3.580
REMARK  3 active torsions:
REMARK  status: ('A' for Active; 'I' for Inactive)
REMARK    1  A    between atoms: C12_13  and  S1_14 
REMARK    2  A    between atoms: S1_14  and  C13_15 
REMARK    3  A    between atoms: C18_20  and  N1_21 
ROOT
HETATM    1  C1  UNL     1      24.515   7.487  47.323  1.00  0.00     0.019 C 
HETATM    2  C2  UNL     1      23.883   6.659  48.437  1.00  0.00    -0.030 C 
HETATM    3  C3  UNL     1      22.884   5.769  47.758  1.00  0.00     0.019 C 
HETATM    4  C4  UNL     1      25.002   5.881  49.061  1.00  0.00    -0.019 C 
HETATM    5  C5  UNL     1      25.016   4.968  50.034  1.00  0.00     0.017 C 
HETATM    6  C6  UNL     1      24.053   4.283  50.942  1.00  0.00     0.218 C 
HETATM    7  C7  UNL     1      23.106   5.237  51.580  1.00  0.00     0.017 C 
HETATM    8  C8  UNL     1      22.349   6.306  51.353  1.00  0.00    -0.028 C 
HETATM    9  C9  UNL     1      22.104   7.124  50.148  1.00  0.00     0.028 C 
HETATM   10  C10 UNL     1      23.330   7.603  49.441  1.00  0.00     0.016 C 
HETATM   11  C11 UNL     1      23.359   3.139  50.271  1.00  0.00     0.221 C 
HETATM   12  O1  UNL     1      23.943   1.961  50.644  1.00  0.00    -0.346 OA
HETATM   13  C12 UNL     1      24.847   2.208  51.648  1.00  0.00     0.424 C 
HETATM   14  N2  UNL     1      24.833   3.601  51.960  1.00  0.00     0.141 N 
HETATM   15  H24 UNL     1      24.302   3.716  52.873  1.00  0.00     0.322 HD
ENDROOT
BRANCH  13  16
HETATM   16  S1  UNL     1      24.292   1.199  53.074  1.00  0.00    -0.092 SA
BRANCH  16  17
HETATM   17  C13 UNL     1      25.196  -0.347  53.133  1.00  0.00     0.124 C 
HETATM   18  C14 UNL     1      26.406  -0.227  52.291  1.00  0.00    -0.005 C 
HETATM   19  C15 UNL     1      27.532   0.284  52.792  1.00  0.00    -0.002 C 
HETATM   20  C16 UNL     1      27.531   0.721  54.202  1.00  0.00     0.014 C 
HETATM   21  C17 UNL     1      26.796  -0.023  55.005  1.00  0.00    -0.000 C 
HETATM   22  C18 UNL     1      25.689  -0.516  54.537  1.00  0.00     0.032 C 
BRANCH  22  23
HETATM   23  N1  UNL     1      24.918  -1.270  55.470  1.00  0.00    -0.400 N 
HETATM   24  H22 UNL     1      25.421  -1.106  56.377  1.00  0.00     0.156 HD
HETATM   25  H23 UNL     1      24.281  -1.848  56.032  1.00  0.00     0.156 HD
ENDBRANCH  22  23
ENDBRANCH  16  17
ENDBRANCH  13  16
TORSDOF 3
ENDMDL
MODEL 8
REMARK VINA RESULT:      -7.0      2.075      7.674
REMARK  3 active torsions:
REMARK  status: ('A' for Active; 'I' for Inactive)
REMARK    1  A    between atoms: C12_13  and  S1_14 
REMARK    2  A    between atoms: S1_14  and  C13_15 
REMARK    3  A    between atoms: C18_20  and  N1_21 
ROOT
HETATM    1  C1  UNL     1      21.811  -0.716  54.587  1.00  0.00     0.019 C 
HETATM    2  C2  UNL     1      21.818   0.210  53.375  1.00  0.00    -0.030 C 
HETATM    3  C3  UNL     1      20.947   1.371  53.754  1.00  0.00     0.019 C 
HETATM    4  C4  UNL     1      23.247   0.615  53.172  1.00  0.00    -0.019 C 
HETATM    5  C5  UNL     1      23.819   1.447  52.300  1.00  0.00     0.017 C 
HETATM    6  C6  UNL     1      23.422   2.338  51.173  1.00  0.00     0.218 C 
HETATM    7  C7  UNL     1      22.496   1.663  50.224  1.00  0.00     0.017 C 
HETATM    8  C8  UNL     1      21.438   0.861  50.149  1.00  0.00    -0.028 C 
HETATM    9  C9  UNL     1      20.610   0.194  51.174  1.00  0.00     0.028 C 
HETATM   10  C10 UNL     1      21.367  -0.581  52.202  1.00  0.00     0.016 C 
HETATM   11  C11 UNL     1      22.901   3.657  51.652  1.00  0.00     0.221 C 
HETATM   12  O1  UNL     1      23.878   4.607  51.541  1.00  0.00    -0.346 OA
HETATM   13  C12 UNL     1      24.943   4.075  50.858  1.00  0.00     0.424 C 
HETATM   14  N2  UNL     1      24.638   2.731  50.486  1.00  0.00     0.141 N 
HETATM   15  H24 UNL     1      24.411   2.733  49.448  1.00  0.00     0.322 HD
ENDROOT
BRANCH  13  16
HETATM   16  S1  UNL     1      25.169   5.141  49.383  1.00  0.00    -0.092 SA
BRANCH  16  17
HETATM   17  C13 UNL     1      25.817   6.740  49.863  1.00  0.00     0.124 C 
HETATM   18  C14 UNL     1      26.555   7.322  48.721  1.00  0.00    -0.005 C 
HETATM   19  C15 UNL     1      25.913   8.025  47.786  1.00  0.00    -0.002 C 
HETATM   20  C16 UNL     1      24.454   8.202  47.929  1.00  0.00     0.014 C 
HETATM   21  C17 UNL     1      24.037   8.330  49.174  1.00  0.00    -0.000 C 
HETATM   22  C18 UNL     1      24.643   7.642  50.094  1.00  0.00     0.032 C 
BRANCH  22  23
HETATM   23  N1  UNL     1      24.113   7.788  51.410  1.00  0.00    -0.400 N 
HETATM   24  H22 UNL     1      24.871   7.386  52.014  1.00  0.00     0.156 HD
HETATM   25  H23 UNL     1      23.617   7.950  52.294  1.00  0.00     0.156 HD
ENDBRANCH  22  23
ENDBRANCH  16  17
ENDBRANCH  13  16
TORSDOF 3
ENDMDL
MODEL 9
REMARK VINA RESULT:      -7.0      1.992      7.466
REMARK  3 active torsions:
REMARK  status: ('A' for Active; 'I' for Inactive)
REMARK    1  A    between atoms: C12_13  and  S1_14 
REMARK    2  A    between atoms: S1_14  and  C13_15 
REMARK    3  A    between atoms: C18_20  and  N1_21 
ROOT
HETATM    1  C1  UNL     1      19.669   0.009  53.051  1.00  0.00     0.019 C 
HETATM    2  C2  UNL     1      21.001   0.618  52.629  1.00  0.00    -0.030 C 
HETATM    3  C3  UNL     1      21.232   0.145  51.225  1.00  0.00     0.019 C 
HETATM    4  C4  UNL     1      20.819   2.104  52.704  1.00  0.00    -0.019 C 
HETATM    5  C5  UNL     1      21.634   3.116  52.398  1.00  0.00     0.017 C 
HETATM    6  C6  UNL     1      23.013   3.326  51.875  1.00  0.00     0.218 C 
HETATM    7  C7  UNL     1      24.013   2.469  52.567  1.00  0.00     0.017 C 
HETATM    8  C8  UNL     1      24.228   1.247  53.043  1.00  0.00    -0.028 C 
HETATM    9  C9  UNL     1      23.400   0.025  53.080  1.00  0.00     0.028 C 
HETATM   10  C10 UNL     1      22.021   0.205  53.627  1.00  0.00     0.016 C 
HETATM   11  C11 UNL     1      23.077   3.203  50.385  1.00  0.00     0.221 C 
HETATM   12  O1  UNL     1      23.095   4.447  49.818  1.00  0.00    -0.346 OA
HETATM   13  C12 UNL     1      23.235   5.387  50.808  1.00  0.00     0.424 C 
HETATM   14  N2  UNL     1      23.339   4.727  52.070  1.00  0.00     0.141 N 
HETATM   15  H24 UNL     1      24.359   4.762  52.363  1.00  0.00     0.322 HD
ENDROOT
BRANCH  13  16
HETATM   16  S1  UNL     1      24.771   6.305  50.407  1.00  0.00    -0.092 SA
BRANCH  16  17
HETATM   17  C13 UNL     1      25.316   5.911  48.747  1.00  0.00     0.124 C 
HETATM   18  C14 UNL     1      24.896   6.996  47.834  1.00  0.00    -0.005 C 
HETATM   19  C15 UNL     1      25.659   8.078  47.671  1.00  0.00    -0.002 C 
HETATM   20  C16 UNL     1      26.926   8.157  48.426  1.00  0.00     0.014 C 
HETATM   21  C17 UNL     1      27.542   7.001  48.583  1.00  0.00    -0.000 C 
HETATM   22  C18 UNL     1      26.814   5.940  48.756  1.00  0.00     0.032 C 
BRANCH  22  23
HETATM   23  N1  UNL     1      27.542   4.732  48.967  1.00  0.00    -0.400 N 
HETATM   24  H22 UNL     1      27.336   4.179  48.100  1.00  0.00     0.156 HD
HETATM   25  H23 UNL     1      28.106   3.919  49.243  1.00  0.00     0.156 HD
ENDBRANCH  22  23
ENDBRANCH  16  17
ENDBRANCH  13  16
TORSDOF 3
ENDMDL
