MODEL 1
REMARK VINA RESULT:      -8.2      0.000      0.000
REMARK  4 active torsions:
REMARK  status: ('A' for Active; 'I' for Inactive)
REMARK    1  A    between atoms: C7_9  and  N3_10 
REMARK    2  A    between atoms: N3_10  and  C8_11 
REMARK    3  A    between atoms: C12_16  and  N4_17 
REMARK    4  A    between atoms: N4_17  and  C13_18 
ROOT
HETATM    1  N1  UNL     1      19.153   0.667  50.823  1.00  0.00    -0.191 NA
HETATM    2  C1  UNL     1      19.901   0.314  51.644  1.00  0.00     0.103 C 
HETATM    3  C2  UNL     1      20.833  -0.101  52.643  1.00  0.00     0.089 A 
HETATM    4  C3  UNL     1      20.388  -0.693  53.823  1.00  0.00     0.142 A 
HETATM    5  N2  UNL     1      21.246  -1.096  54.787  1.00  0.00    -0.259 NA
HETATM    6  C4  UNL     1      22.587  -0.953  54.671  1.00  0.00     0.069 A 
HETATM    7  C5  UNL     1      23.433  -1.378  55.677  1.00  0.00     0.035 A 
HETATM    8  C6  UNL     1      24.807  -1.200  55.492  1.00  0.00     0.035 A 
HETATM    9  C7  UNL     1      25.286  -0.613  54.325  1.00  0.00     0.067 A 
HETATM   10  C10 UNL     1      24.427  -0.193  53.330  1.00  0.00     0.048 A 
HETATM   11  C11 UNL     1      23.071  -0.372  53.517  1.00  0.00     0.023 A 
HETATM   12  C12 UNL     1      22.208   0.045  52.524  1.00  0.00     0.067 A 
ENDROOT
BRANCH  12  13
HETATM   13  N4  UNL     1      22.627   0.655  51.304  1.00  0.00    -0.354 N 
HETATM   14  H5  UNL     1      22.671   0.220  50.358  1.00  0.00     0.166 HD
BRANCH  13  15
HETATM   15  C13 UNL     1      23.028   2.009  51.399  1.00  0.00     0.033 A 
HETATM   16  C14 UNL     1      22.408   2.901  52.229  1.00  0.00     0.029 A 
HETATM   17  C15 UNL     1      22.747   4.214  52.363  1.00  0.00     0.004 A 
HETATM   18  C16 UNL     1      23.796   4.681  51.605  1.00  0.00     0.019 A 
HETATM   19  C17 UNL     1      24.477   3.852  50.743  1.00  0.00     0.013 A 
HETATM   20 BR1  UNL     1      25.929   4.536  49.707  1.00  0.00    -0.051 Br
HETATM   21  C18 UNL     1      24.081   2.539  50.658  1.00  0.00     0.048 A 
ENDBRANCH  13  15
ENDBRANCH  12  13
BRANCH   9  22
HETATM   22  N3  UNL     1      26.713  -0.464  54.210  1.00  0.00    -0.202 NA
BRANCH  22  23
HETATM   23  C8  UNL     1      27.211   0.685  53.912  1.00  0.00     0.044 C 
HETATM   24  C9  UNL     1      27.887   1.663  53.433  1.00  0.00     0.295 C 
HETATM   25  O1  UNL     1      28.522   2.587  52.880  1.00  0.00    -0.272 OA
ENDBRANCH  22  23
ENDBRANCH   9  22
TORSDOF 4
ENDMDL
MODEL 2
REMARK VINA RESULT:      -8.1      2.295      3.318
REMARK  4 active torsions:
REMARK  status: ('A' for Active; 'I' for Inactive)
REMARK    1  A    between atoms: C7_9  and  N3_10 
REMARK    2  A    between atoms: N3_10  and  C8_11 
REMARK    3  A    between atoms: C12_16  and  N4_17 
REMARK    4  A    between atoms: N4_17  and  C13_18 
ROOT
HETATM    1  N1  UNL     1      21.465   4.671  50.006  1.00  0.00    -0.191 NA
HETATM    2  C1  UNL     1      21.950   3.793  50.598  1.00  0.00     0.103 C 
HETATM    3  C2  UNL     1      22.555   2.732  51.340  1.00  0.00     0.089 A 
HETATM    4  C3  UNL     1      21.970   1.468  51.370  1.00  0.00     0.142 A 
HETATM    5  N2  UNL     1      22.518   0.445  52.063  1.00  0.00    -0.259 NA
HETATM    6  C4  UNL     1      23.666   0.578  52.768  1.00  0.00     0.069 A 
HETATM    7  C5  UNL     1      24.198  -0.490  53.464  1.00  0.00     0.035 A 
HETATM    8  C6  UNL     1      25.385  -0.282  54.171  1.00  0.00     0.035 A 
HETATM    9  C7  UNL     1      25.996   0.967  54.161  1.00  0.00     0.067 A 
HETATM   10  C10 UNL     1      25.452   2.024  53.462  1.00  0.00     0.048 A 
HETATM   11  C11 UNL     1      24.279   1.814  52.765  1.00  0.00     0.023 A 
HETATM   12  C12 UNL     1      23.731   2.869  52.062  1.00  0.00     0.067 A 
ENDROOT
BRANCH  12  13
HETATM   13  N4  UNL     1      24.301   4.176  52.008  1.00  0.00    -0.354 N 
HETATM   14  H5  UNL     1      24.167   4.958  52.683  1.00  0.00     0.166 HD
BRANCH  13  15
HETATM   15  C13 UNL     1      25.148   4.432  50.902  1.00  0.00     0.033 A 
HETATM   16  C14 UNL     1      26.033   3.505  50.427  1.00  0.00     0.029 A 
HETATM   17  C15 UNL     1      26.873   3.692  49.370  1.00  0.00     0.004 A 
HETATM   18  C16 UNL     1      26.828   4.909  48.728  1.00  0.00     0.019 A 
HETATM   19  C17 UNL     1      25.966   5.900  49.140  1.00  0.00     0.013 A 
HETATM   20 BR1  UNL     1      25.930   7.576  48.225  1.00  0.00    -0.051 Br
HETATM   21  C18 UNL     1      25.147   5.642  50.213  1.00  0.00     0.048 A 
ENDBRANCH  13  15
ENDBRANCH  12  13
BRANCH   9  22
HETATM   22  N3  UNL     1      27.217   1.101  54.913  1.00  0.00    -0.202 NA
BRANCH  22  23
HETATM   23  C8  UNL     1      28.212   0.328  54.653  1.00  0.00     0.044 C 
HETATM   24  C9  UNL     1      29.131  -0.378  54.104  1.00  0.00     0.295 C 
HETATM   25  O1  UNL     1      30.054  -0.988  53.522  1.00  0.00    -0.272 OA
ENDBRANCH  22  23
ENDBRANCH   9  22
TORSDOF 4
ENDMDL
MODEL 3
REMARK VINA RESULT:      -8.0      2.484      4.969
REMARK  4 active torsions:
REMARK  status: ('A' for Active; 'I' for Inactive)
REMARK    1  A    between atoms: C7_9  and  N3_10 
REMARK    2  A    between atoms: N3_10  and  C8_11 
REMARK    3  A    between atoms: C12_16  and  N4_17 
REMARK    4  A    between atoms: N4_17  and  C13_18 
ROOT
HETATM    1  N1  UNL     1      27.617  -0.139  54.438  1.00  0.00    -0.191 NA
HETATM    2  C1  UNL     1      26.465  -0.317  54.444  1.00  0.00     0.103 C 
HETATM    3  C2  UNL     1      25.054  -0.535  54.426  1.00  0.00     0.089 A 
HETATM    4  C3  UNL     1      24.430  -1.211  55.472  1.00  0.00     0.142 A 
HETATM    5  N2  UNL     1      23.096  -1.433  55.483  1.00  0.00    -0.259 NA
HETATM    6  C4  UNL     1      22.283  -1.015  54.485  1.00  0.00     0.069 A 
HETATM    7  C5  UNL     1      20.924  -1.259  54.531  1.00  0.00     0.035 A 
HETATM    8  C6  UNL     1      20.142  -0.799  53.468  1.00  0.00     0.035 A 
HETATM    9  C7  UNL     1      20.733  -0.120  52.407  1.00  0.00     0.067 A 
HETATM   10  C10 UNL     1      22.092   0.115  52.376  1.00  0.00     0.048 A 
HETATM   11  C11 UNL     1      22.860  -0.340  53.429  1.00  0.00     0.023 A 
HETATM   12  C12 UNL     1      24.220  -0.107  53.403  1.00  0.00     0.067 A 
ENDROOT
BRANCH  12  13
HETATM   13  N4  UNL     1      24.893   0.582  52.350  1.00  0.00    -0.354 N 
HETATM   14  H5  UNL     1      25.626   0.207  51.712  1.00  0.00     0.166 HD
BRANCH  13  15
HETATM   15  C13 UNL     1      24.515   1.933  52.158  1.00  0.00     0.033 A 
HETATM   16  C14 UNL     1      24.360   2.805  53.198  1.00  0.00     0.029 A 
HETATM   17  C15 UNL     1      23.998   4.114  53.077  1.00  0.00     0.004 A 
HETATM   18  C16 UNL     1      23.770   4.596  51.808  1.00  0.00     0.019 A 
HETATM   19  C17 UNL     1      23.903   3.786  50.703  1.00  0.00     0.013 A 
HETATM   20 BR1  UNL     1      23.579   4.491  48.958  1.00  0.00    -0.051 Br
HETATM   21  C18 UNL     1      24.271   2.477  50.900  1.00  0.00     0.048 A 
ENDBRANCH  13  15
ENDBRANCH  12  13
BRANCH   9  22
HETATM   22  N3  UNL     1      19.861   0.322  51.350  1.00  0.00    -0.202 NA
BRANCH  22  23
HETATM   23  C8  UNL     1      19.399   1.523  51.367  1.00  0.00     0.044 C 
HETATM   24  C9  UNL     1      18.786   2.618  51.628  1.00  0.00     0.295 C 
HETATM   25  O1  UNL     1      18.223   3.681  51.969  1.00  0.00    -0.272 OA
ENDBRANCH  22  23
ENDBRANCH   9  22
TORSDOF 4
ENDMDL
MODEL 4
REMARK VINA RESULT:      -7.9      2.554      5.242
REMARK  4 active torsions:
REMARK  status: ('A' for Active; 'I' for Inactive)
REMARK    1  A    between atoms: C7_9  and  N3_10 
REMARK    2  A    between atoms: N3_10  and  C8_11 
REMARK    3  A    between atoms: C12_16  and  N4_17 
REMARK    4  A    between atoms: N4_17  and  C13_18 
ROOT
HETATM    1  N1  UNL     1      21.911  -1.186  55.064  1.00  0.00    -0.191 NA
HETATM    2  C1  UNL     1      21.991  -0.617  54.051  1.00  0.00     0.103 C 
HETATM    3  C2  UNL     1      22.114   0.082  52.812  1.00  0.00     0.089 A 
HETATM    4  C3  UNL     1      21.200  -0.136  51.783  1.00  0.00     0.142 A 
HETATM    5  N2  UNL     1      21.290   0.511  50.599  1.00  0.00    -0.259 NA
HETATM    6  C4  UNL     1      22.268   1.409  50.336  1.00  0.00     0.069 A 
HETATM    7  C5  UNL     1      22.327   2.052  49.114  1.00  0.00     0.035 A 
HETATM    8  C6  UNL     1      23.363   2.967  48.909  1.00  0.00     0.035 A 
HETATM    9  C7  UNL     1      24.293   3.210  49.915  1.00  0.00     0.067 A 
HETATM   10  C10 UNL     1      24.219   2.559  51.129  1.00  0.00     0.048 A 
HETATM   11  C11 UNL     1      23.194   1.656  51.328  1.00  0.00     0.023 A 
HETATM   12  C12 UNL     1      23.116   1.003  52.542  1.00  0.00     0.067 A 
ENDROOT
BRANCH  12  13
HETATM   13  N4  UNL     1      24.032   1.201  53.617  1.00  0.00    -0.354 N 
HETATM   14  H5  UNL     1      23.864   1.708  54.512  1.00  0.00     0.166 HD
BRANCH  13  15
HETATM   15  C13 UNL     1      25.320   0.640  53.439  1.00  0.00     0.033 A 
HETATM   16  C14 UNL     1      25.513  -0.581  52.854  1.00  0.00     0.029 A 
HETATM   17  C15 UNL     1      26.724  -1.173  52.657  1.00  0.00     0.004 A 
HETATM   18  C16 UNL     1      27.843  -0.490  53.077  1.00  0.00     0.019 A 
HETATM   19  C17 UNL     1      27.741   0.745  53.676  1.00  0.00     0.013 A 
HETATM   20 BR1  UNL     1      29.316   1.664  54.246  1.00  0.00    -0.051 Br
HETATM   21  C18 UNL     1      26.487   1.282  53.844  1.00  0.00     0.048 A 
ENDBRANCH  13  15
ENDBRANCH  12  13
BRANCH   9  22
HETATM   22  N3  UNL     1      25.329   4.167  49.627  1.00  0.00    -0.202 NA
BRANCH  22  23
HETATM   23  C8  UNL     1      25.210   5.378  50.043  1.00  0.00     0.044 C 
HETATM   24  C9  UNL     1      24.795   6.511  50.476  1.00  0.00     0.295 C 
HETATM   25  O1  UNL     1      24.351   7.571  50.970  1.00  0.00    -0.272 OA
ENDBRANCH  22  23
ENDBRANCH   9  22
TORSDOF 4
ENDMDL
MODEL 5
REMARK VINA RESULT:      -7.7      2.315      2.722
REMARK  4 active torsions:
REMARK  status: ('A' for Active; 'I' for Inactive)
REMARK    1  A    between atoms: C7_9  and  N3_10 
REMARK    2  A    between atoms: N3_10  and  C8_11 
REMARK    3  A    between atoms: C12_16  and  N4_17 
REMARK    4  A    between atoms: N4_17  and  C13_18 
ROOT
HETATM    1  N1  UNL     1      19.126   3.203  52.133  1.00  0.00    -0.191 NA
HETATM    2  C1  UNL     1      20.039   2.535  52.411  1.00  0.00     0.103 C 
HETATM    3  C2  UNL     1      21.173   1.737  52.752  1.00  0.00     0.089 A 
HETATM    4  C3  UNL     1      21.019   0.580  53.514  1.00  0.00     0.142 A 
HETATM    5  N2  UNL     1      22.073  -0.196  53.852  1.00  0.00    -0.259 NA
HETATM    6  C4  UNL     1      23.340   0.095  53.476  1.00  0.00     0.069 A 
HETATM    7  C5  UNL     1      24.392  -0.723  53.840  1.00  0.00     0.035 A 
HETATM    8  C6  UNL     1      25.675  -0.362  53.417  1.00  0.00     0.035 A 
HETATM    9  C7  UNL     1      25.864   0.785  52.654  1.00  0.00     0.067 A 
HETATM   10  C10 UNL     1      24.803   1.592  52.300  1.00  0.00     0.048 A 
HETATM   11  C11 UNL     1      23.537   1.232  52.719  1.00  0.00     0.023 A 
HETATM   12  C12 UNL     1      22.472   2.035  52.366  1.00  0.00     0.067 A 
ENDROOT
BRANCH  12  13
HETATM   13  N4  UNL     1      22.590   3.225  51.588  1.00  0.00    -0.354 N 
HETATM   14  H5  UNL     1      22.794   4.189  51.926  1.00  0.00     0.166 HD
BRANCH  13  15
HETATM   15  C13 UNL     1      22.407   3.068  50.192  1.00  0.00     0.033 A 
HETATM   16  C14 UNL     1      22.269   1.841  49.605  1.00  0.00     0.029 A 
HETATM   17  C15 UNL     1      22.092   1.627  48.271  1.00  0.00     0.004 A 
HETATM   18  C16 UNL     1      22.047   2.729  47.448  1.00  0.00     0.019 A 
HETATM   19  C17 UNL     1      22.177   4.002  47.956  1.00  0.00     0.013 A 
HETATM   20 BR1  UNL     1      22.109   5.509  46.784  1.00  0.00    -0.051 Br
HETATM   21  C18 UNL     1      22.354   4.145  49.311  1.00  0.00     0.048 A 
ENDBRANCH  13  15
ENDBRANCH  12  13
BRANCH   9  22
HETATM   22  N3  UNL     1      27.214   1.088  52.257  1.00  0.00    -0.202 NA
BRANCH  22  23
HETATM   23  C8  UNL     1      27.984   1.734  53.062  1.00  0.00     0.044 C 
HETATM   24  C9  UNL     1      28.802   2.099  53.979  1.00  0.00     0.295 C 
HETATM   25  O1  UNL     1      29.662   2.393  54.837  1.00  0.00    -0.272 OA
ENDBRANCH  22  23
ENDBRANCH   9  22
TORSDOF 4
ENDMDL
MODEL 6
REMARK VINA RESULT:      -7.6      3.122      5.231
REMARK  4 active torsions:
REMARK  status: ('A' for Active; 'I' for Inactive)
REMARK    1  A    between atoms: C7_9  and  N3_10 
REMARK    2  A    between atoms: N3_10  and  C8_11 
REMARK    3  A    between atoms: C12_16  and  N4_17 
REMARK    4  A    between atoms: N4_17  and  C13_18 
ROOT
HETATM    1  N1  UNL     1      27.153   2.033  51.344  1.00  0.00    -0.191 NA
HETATM    2  C1  UNL     1      26.344   1.463  51.958  1.00  0.00     0.103 C 
HETATM    3  C2  UNL     1      25.339   0.761  52.691  1.00  0.00     0.089 A 
HETATM    4  C3  UNL     1      25.676   0.024  53.825  1.00  0.00     0.142 A 
HETATM    5  N2  UNL     1      24.747  -0.650  54.539  1.00  0.00    -0.259 NA
HETATM    6  C4  UNL     1      23.436  -0.655  54.204  1.00  0.00     0.069 A 
HETATM    7  C5  UNL     1      22.515  -1.355  54.958  1.00  0.00     0.035 A 
HETATM    8  C6  UNL     1      21.177  -1.316  54.556  1.00  0.00     0.035 A 
HETATM    9  C7  UNL     1      20.806  -0.589  53.429  1.00  0.00     0.067 A 
HETATM   10  C10 UNL     1      21.738   0.104  52.686  1.00  0.00     0.048 A 
HETATM   11  C11 UNL     1      23.058   0.064  53.088  1.00  0.00     0.023 A 
HETATM   12  C12 UNL     1      23.995   0.757  52.348  1.00  0.00     0.067 A 
ENDROOT
BRANCH  12  13
HETATM   13  N4  UNL     1      23.688   1.522  51.183  1.00  0.00    -0.354 N 
HETATM   14  H5  UNL     1      23.481   1.168  50.226  1.00  0.00     0.166 HD
BRANCH  13  15
HETATM   15  C13 UNL     1      23.664   2.927  51.359  1.00  0.00     0.033 A 
HETATM   16  C14 UNL     1      23.254   3.513  52.524  1.00  0.00     0.029 A 
HETATM   17  C15 UNL     1      23.208   4.856  52.752  1.00  0.00     0.004 A 
HETATM   18  C16 UNL     1      23.605   5.689  51.731  1.00  0.00     0.019 A 
HETATM   19  C17 UNL     1      24.033   5.184  50.524  1.00  0.00     0.013 A 
HETATM   20 BR1  UNL     1      24.578   6.371  49.131  1.00  0.00    -0.051 Br
HETATM   21  C18 UNL     1      24.054   3.819  50.364  1.00  0.00     0.048 A 
ENDBRANCH  13  15
ENDBRANCH  12  13
BRANCH   9  22
HETATM   22  N3  UNL     1      19.409  -0.599  53.079  1.00  0.00    -0.202 NA
BRANCH  22  23
HETATM   23  C8  UNL     1      18.656  -1.555  53.496  1.00  0.00     0.044 C 
HETATM   24  C9  UNL     1      17.823  -2.521  53.619  1.00  0.00     0.295 C 
HETATM   25  O1  UNL     1      17.059  -3.510  53.671  1.00  0.00    -0.272 OA
ENDBRANCH  22  23
ENDBRANCH   9  22
TORSDOF 4
ENDMDL
MODEL 7
REMARK VINA RESULT:      -7.3      2.671      4.682
REMARK  4 active torsions:
REMARK  status: ('A' for Active; 'I' for Inactive)
REMARK    1  A    between atoms: C7_9  and  N3_10 
REMARK    2  A    between atoms: N3_10  and  C8_11 
REMARK    3  A    between atoms: C12_16  and  N4_17 
REMARK    4  A    between atoms: N4_17  and  C13_18 
ROOT
HETATM    1  N1  UNL     1      26.597   3.324  49.739  1.00  0.00    -0.191 NA
HETATM    2  C1  UNL     1      26.434   2.665  50.686  1.00  0.00     0.103 C 
HETATM    3  C2  UNL     1      26.217   1.845  51.834  1.00  0.00     0.089 A 
HETATM    4  C3  UNL     1      27.253   1.599  52.733  1.00  0.00     0.142 A 
HETATM    5  N2  UNL     1      27.078   0.826  53.829  1.00  0.00    -0.259 NA
HETATM    6  C4  UNL     1      25.892   0.245  54.126  1.00  0.00     0.069 A 
HETATM    7  C5  UNL     1      25.750  -0.537  55.255  1.00  0.00     0.035 A 
HETATM    8  C6  UNL     1      24.498  -1.107  55.501  1.00  0.00     0.035 A 
HETATM    9  C7  UNL     1      23.442  -0.881  54.625  1.00  0.00     0.067 A 
HETATM   10  C10 UNL     1      23.600  -0.098  53.500  1.00  0.00     0.048 A 
HETATM   11  C11 UNL     1      24.838   0.463  53.262  1.00  0.00     0.023 A 
HETATM   12  C12 UNL     1      25.001   1.249  52.138  1.00  0.00     0.067 A 
ENDROOT
BRANCH  12  13
HETATM   13  N4  UNL     1      23.965   1.523  51.197  1.00  0.00    -0.354 N 
HETATM   14  H5  UNL     1      23.586   0.887  50.464  1.00  0.00     0.166 HD
BRANCH  13  15
HETATM   15  C13 UNL     1      23.389   2.815  51.275  1.00  0.00     0.033 A 
HETATM   16  C14 UNL     1      23.238   3.479  52.460  1.00  0.00     0.029 A 
HETATM   17  C15 UNL     1      22.692   4.720  52.598  1.00  0.00     0.004 A 
HETATM   18  C16 UNL     1      22.259   5.357  51.458  1.00  0.00     0.019 A 
HETATM   19  C17 UNL     1      22.372   4.760  50.222  1.00  0.00     0.013 A 
HETATM   20 BR1  UNL     1      21.761   5.674  48.660  1.00  0.00    -0.051 Br
HETATM   21  C18 UNL     1      22.933   3.507  50.156  1.00  0.00     0.048 A 
ENDBRANCH  13  15
ENDBRANCH  12  13
BRANCH   9  22
HETATM   22  N3  UNL     1      22.184  -1.503  54.947  1.00  0.00    -0.202 NA
BRANCH  22  23
HETATM   23  C8  UNL     1      21.122  -1.159  54.307  1.00  0.00     0.044 C 
HETATM   24  C9  UNL     1      20.237  -0.580  53.583  1.00  0.00     0.295 C 
HETATM   25  O1  UNL     1      19.436  -0.016  52.806  1.00  0.00    -0.272 OA
ENDBRANCH  22  23
ENDBRANCH   9  22
TORSDOF 4
ENDMDL
MODEL 8
REMARK VINA RESULT:      -7.3      3.009      4.634
REMARK  4 active torsions:
REMARK  status: ('A' for Active; 'I' for Inactive)
REMARK    1  A    between atoms: C7_9  and  N3_10 
REMARK    2  A    between atoms: N3_10  and  C8_11 
REMARK    3  A    between atoms: C12_16  and  N4_17 
REMARK    4  A    between atoms: N4_17  and  C13_18 
ROOT
HETATM    1  N1  UNL     1      21.710   7.964  50.449  1.00  0.00    -0.191 NA
HETATM    2  C1  UNL     1      21.784   6.845  50.765  1.00  0.00     0.103 C 
HETATM    3  C2  UNL     1      21.889   5.480  51.172  1.00  0.00     0.089 A 
HETATM    4  C3  UNL     1      20.830   4.599  50.970  1.00  0.00     0.142 A 
HETATM    5  N2  UNL     1      20.900   3.301  51.343  1.00  0.00    -0.259 NA
HETATM    6  C4  UNL     1      21.998   2.774  51.934  1.00  0.00     0.069 A 
HETATM    7  C5  UNL     1      22.034   1.443  52.302  1.00  0.00     0.035 A 
HETATM    8  C6  UNL     1      23.199   0.965  52.908  1.00  0.00     0.035 A 
HETATM    9  C7  UNL     1      24.276   1.818  53.124  1.00  0.00     0.067 A 
HETATM   10  C10 UNL     1      24.224   3.145  52.751  1.00  0.00     0.048 A 
HETATM   11  C11 UNL     1      23.072   3.613  52.153  1.00  0.00     0.023 A 
HETATM   12  C12 UNL     1      23.015   4.940  51.777  1.00  0.00     0.067 A 
ENDROOT
BRANCH  12  13
HETATM   13  N4  UNL     1      24.079   5.872  51.967  1.00  0.00    -0.354 N 
HETATM   14  H5  UNL     1      24.308   6.408  52.830  1.00  0.00     0.166 HD
BRANCH  13  15
HETATM   15  C13 UNL     1      24.917   6.086  50.846  1.00  0.00     0.033 A 
HETATM   16  C14 UNL     1      25.361   5.061  50.058  1.00  0.00     0.029 A 
HETATM   17  C15 UNL     1      26.168   5.204  48.969  1.00  0.00     0.004 A 
HETATM   18  C16 UNL     1      26.568   6.478  48.634  1.00  0.00     0.019 A 
HETATM   19  C17 UNL     1      26.167   7.567  49.374  1.00  0.00     0.013 A 
HETATM   20 BR1  UNL     1      26.741   9.321  48.879  1.00  0.00    -0.051 Br
HETATM   21  C18 UNL     1      25.354   7.350  50.459  1.00  0.00     0.048 A 
ENDBRANCH  13  15
ENDBRANCH  12  13
BRANCH   9  22
HETATM   22  N3  UNL     1      25.441   1.250  53.753  1.00  0.00    -0.202 NA
BRANCH  22  23
HETATM   23  C8  UNL     1      26.613   1.603  53.356  1.00  0.00     0.044 C 
HETATM   24  C9  UNL     1      27.752   2.163  53.181  1.00  0.00     0.295 C 
HETATM   25  O1  UNL     1      28.882   2.695  53.101  1.00  0.00    -0.272 OA
ENDBRANCH  22  23
ENDBRANCH   9  22
TORSDOF 4
ENDMDL
MODEL 9
REMARK VINA RESULT:      -7.3      8.972     12.497
REMARK  4 active torsions:
REMARK  status: ('A' for Active; 'I' for Inactive)
REMARK    1  A    between atoms: C7_9  and  N3_10 
REMARK    2  A    between atoms: N3_10  and  C8_11 
REMARK    3  A    between atoms: C12_16  and  N4_17 
REMARK    4  A    between atoms: N4_17  and  C13_18 
ROOT
HETATM    1  N1  UNL     1      35.748   8.442  48.201  1.00  0.00    -0.191 NA
HETATM    2  C1  UNL     1      34.592   8.374  48.073  1.00  0.00     0.103 C 
HETATM    3  C2  UNL     1      33.174   8.274  47.934  1.00  0.00     0.089 A 
HETATM    4  C3  UNL     1      32.428   9.366  47.494  1.00  0.00     0.142 A 
HETATM    5  N2  UNL     1      31.085   9.302  47.353  1.00  0.00    -0.259 NA
HETATM    6  C4  UNL     1      30.379   8.180  47.625  1.00  0.00     0.069 A 
HETATM    7  C5  UNL     1      29.007   8.151  47.468  1.00  0.00     0.035 A 
HETATM    8  C6  UNL     1      28.341   6.959  47.767  1.00  0.00     0.035 A 
HETATM    9  C7  UNL     1      29.055   5.850  48.207  1.00  0.00     0.067 A 
HETATM   10  C10 UNL     1      30.425   5.895  48.360  1.00  0.00     0.048 A 
HETATM   11  C11 UNL     1      31.079   7.074  48.062  1.00  0.00     0.023 A 
HETATM   12  C12 UNL     1      32.450   7.124  48.213  1.00  0.00     0.067 A 
ENDROOT
BRANCH  12  13
HETATM   13  N4  UNL     1      33.246   6.027  48.659  1.00  0.00    -0.354 N 
HETATM   14  H5  UNL     1      33.491   5.776  49.640  1.00  0.00     0.166 HD
BRANCH  13  15
HETATM   15  C13 UNL     1      33.762   5.187  47.642  1.00  0.00     0.033 A 
HETATM   16  C14 UNL     1      34.572   4.120  47.914  1.00  0.00     0.029 A 
HETATM   17  C15 UNL     1      35.098   3.278  46.981  1.00  0.00     0.004 A 
HETATM   18  C16 UNL     1      34.792   3.518  45.660  1.00  0.00     0.019 A 
HETATM   19  C17 UNL     1      33.982   4.571  45.297  1.00  0.00     0.013 A 
HETATM   20 BR1  UNL     1      33.577   4.872  43.455  1.00  0.00    -0.051 Br
HETATM   21  C18 UNL     1      33.486   5.380  46.291  1.00  0.00     0.048 A 
ENDBRANCH  13  15
ENDBRANCH  12  13
BRANCH   9  22
HETATM   22  N3  UNL     1      28.297   4.660  48.495  1.00  0.00    -0.202 NA
BRANCH  22  23
HETATM   23  C8  UNL     1      27.089   4.764  48.925  1.00  0.00     0.044 C 
HETATM   24  C9  UNL     1      26.015   4.811  49.624  1.00  0.00     0.295 C 
HETATM   25  O1  UNL     1      25.010   4.922  50.360  1.00  0.00    -0.272 OA
ENDBRANCH  22  23
ENDBRANCH   9  22
TORSDOF 4
ENDMDL
