MODEL 1
REMARK VINA RESULT:      -8.5      0.000      0.000
REMARK  7 active torsions:
REMARK  status: ('A' for Active; 'I' for Inactive)
REMARK    1  A    between atoms: C1_2  and  C2_3 
REMARK    2  A    between atoms: C2_3  and  O2_4 
REMARK    3  A    between atoms: O2_4  and  C3_5 
REMARK    4  A    between atoms: C6_8  and  N1_9 
REMARK    5  A    between atoms: N1_9  and  C7_10 
REMARK    6  A    between atoms: C16_23  and  O3_24 
REMARK    7  A    between atoms: O3_24  and  C17_25 
ROOT
HETATM    1  C3  UNL     1      22.212   0.844  51.922  1.00  0.00     0.103 A 
HETATM    2  C4  UNL     1      23.459   1.358  52.190  1.00  0.00     0.057 A 
HETATM    3  C5  UNL     1      24.138   2.193  51.335  1.00  0.00     0.042 A 
HETATM    4  C6  UNL     1      25.385   2.698  51.617  1.00  0.00     0.142 A 
HETATM    5  N2  UNL     1      25.906   3.495  50.683  1.00  0.00    -0.224 NA
HETATM    6  C13 UNL     1      25.310   3.816  49.535  1.00  0.00     0.236 A 
HETATM    7  N3  UNL     1      24.109   3.319  49.280  1.00  0.00    -0.241 NA
HETATM    8  C14 UNL     1      23.499   2.497  50.176  1.00  0.00     0.075 A 
HETATM    9  C15 UNL     1      22.247   1.998  49.878  1.00  0.00     0.072 A 
HETATM   10  C16 UNL     1      21.553   1.144  50.750  1.00  0.00     0.104 A 
ENDROOT
BRANCH   4  11
HETATM   11  N1  UNL     1      26.031   2.363  52.827  1.00  0.00    -0.340 N 
HETATM   12  H5  UNL     1      25.754   2.805  53.719  1.00  0.00     0.167 HD
BRANCH  11  13
HETATM   13  C7  UNL     1      27.087   1.454  53.099  1.00  0.00     0.035 A 
HETATM   14  C8  UNL     1      28.326   1.783  53.629  1.00  0.00     0.032 A 
HETATM   15  C9  UNL     1      29.304   0.849  53.862  1.00  0.00     0.046 A 
HETATM   16  C10 UNL     1      29.108  -0.484  53.579  1.00  0.00     0.138 A 
HETATM   17  F1  UNL     1      30.161  -1.286  53.862  1.00  0.00    -0.204 F 
HETATM   18  C11 UNL     1      27.887  -0.842  53.052  1.00  0.00     0.074 A 
HETATM   19 CL1  UNL     1      27.705  -2.549  52.716  1.00  0.00    -0.081 Cl
HETATM   20  C12 UNL     1      26.924   0.113  52.828  1.00  0.00     0.056 A 
ENDBRANCH  11  13
ENDBRANCH   4  11
BRANCH   1  21
HETATM   21  O2  UNL     1      21.530   0.003  52.783  1.00  0.00    -0.342 OA
BRANCH  21  22
HETATM   22  C2  UNL     1      21.608   0.038  54.182  1.00  0.00     0.245 C 
BRANCH  22  23
HETATM   23  C1  UNL     1      22.320  -1.135  54.743  1.00  0.00     0.257 C 
HETATM   24  O1  UNL     1      22.641  -1.818  55.693  1.00  0.00    -0.305 OA
ENDBRANCH  22  23
ENDBRANCH  21  22
ENDBRANCH   1  21
BRANCH  10  25
HETATM   25  O3  UNL     1      20.342   0.760  50.286  1.00  0.00    -0.343 OA
BRANCH  25  26
HETATM   26  C17 UNL     1      19.113   1.348  50.229  1.00  0.00     0.133 C 
HETATM   27  C18 UNL     1      18.818   2.306  51.366  1.00  0.00     0.058 C 
HETATM   28  C19 UNL     1      17.335   2.549  51.421  1.00  0.00     0.170 C 
HETATM   29  O4  UNL     1      16.624   1.419  51.805  1.00  0.00    -0.391 OA
HETATM   30  C20 UNL     1      17.388   0.259  51.702  1.00  0.00     0.170 C 
HETATM   31  C21 UNL     1      18.074   0.221  50.352  1.00  0.00     0.058 C 
ENDBRANCH  25  26
ENDBRANCH  10  25
TORSDOF 7
ENDMDL
MODEL 2
REMARK VINA RESULT:      -8.2      4.315      6.467
REMARK  7 active torsions:
REMARK  status: ('A' for Active; 'I' for Inactive)
REMARK    1  A    between atoms: C1_2  and  C2_3 
REMARK    2  A    between atoms: C2_3  and  O2_4 
REMARK    3  A    between atoms: O2_4  and  C3_5 
REMARK    4  A    between atoms: C6_8  and  N1_9 
REMARK    5  A    between atoms: N1_9  and  C7_10 
REMARK    6  A    between atoms: C16_23  and  O3_24 
REMARK    7  A    between atoms: O3_24  and  C17_25 
ROOT
HETATM    1  C3  UNL     1      25.959   1.814  51.675  1.00  0.00     0.103 A 
HETATM    2  C4  UNL     1      26.294   2.767  50.742  1.00  0.00     0.057 A 
HETATM    3  C5  UNL     1      25.504   3.852  50.445  1.00  0.00     0.042 A 
HETATM    4  C6  UNL     1      25.853   4.797  49.510  1.00  0.00     0.142 A 
HETATM    5  N2  UNL     1      24.976   5.788  49.340  1.00  0.00    -0.224 NA
HETATM    6  C13 UNL     1      23.825   5.908  50.000  1.00  0.00     0.236 A 
HETATM    7  N3  UNL     1      23.505   4.988  50.897  1.00  0.00    -0.241 NA
HETATM    8  C14 UNL     1      24.339   3.940  51.137  1.00  0.00     0.075 A 
HETATM    9  C15 UNL     1      23.974   3.000  52.079  1.00  0.00     0.072 A 
HETATM   10  C16 UNL     1      24.780   1.892  52.383  1.00  0.00     0.104 A 
ENDROOT
BRANCH   4  11
HETATM   11  N1  UNL     1      27.067   4.679  48.799  1.00  0.00    -0.340 N 
HETATM   12  H5  UNL     1      27.431   3.755  48.516  1.00  0.00     0.167 HD
BRANCH  11  13
HETATM   13  C7  UNL     1      27.983   5.666  48.348  1.00  0.00     0.035 A 
HETATM   14  C8  UNL     1      27.675   6.986  48.051  1.00  0.00     0.032 A 
HETATM   15  C9  UNL     1      28.614   7.887  47.615  1.00  0.00     0.046 A 
HETATM   16  C10 UNL     1      29.931   7.525  47.445  1.00  0.00     0.138 A 
HETATM   17  F1  UNL     1      30.741   8.519  47.009  1.00  0.00    -0.204 F 
HETATM   18  C11 UNL     1      30.269   6.221  47.731  1.00  0.00     0.074 A 
HETATM   19 CL1  UNL     1      31.957   5.831  47.493  1.00  0.00    -0.081 Cl
HETATM   20  C12 UNL     1      29.309   5.339  48.167  1.00  0.00     0.056 A 
ENDBRANCH  11  13
ENDBRANCH   4  11
BRANCH   1  21
HETATM   21  O2  UNL     1      26.755   0.722  51.973  1.00  0.00    -0.342 OA
BRANCH  21  22
HETATM   22  C2  UNL     1      27.554   0.589  53.117  1.00  0.00     0.245 C 
BRANCH  22  23
HETATM   23  C1  UNL     1      28.365   1.800  53.391  1.00  0.00     0.257 C 
HETATM   24  O1  UNL     1      28.773   2.642  54.161  1.00  0.00    -0.305 OA
ENDBRANCH  22  23
ENDBRANCH  21  22
ENDBRANCH   1  21
BRANCH  10  25
HETATM   25  O3  UNL     1      24.256   1.083  53.332  1.00  0.00    -0.343 OA
BRANCH  25  26
HETATM   26  C17 UNL     1      23.577  -0.100  53.308  1.00  0.00     0.133 C 
HETATM   27  C18 UNL     1      22.132  -0.006  53.754  1.00  0.00     0.058 C 
HETATM   28  C19 UNL     1      21.636  -1.389  54.078  1.00  0.00     0.170 C 
HETATM   29  O4  UNL     1      22.251  -1.925  55.203  1.00  0.00    -0.391 OA
HETATM   30  C20 UNL     1      23.408  -1.231  55.549  1.00  0.00     0.170 C 
HETATM   31  C21 UNL     1      24.268  -1.031  54.317  1.00  0.00     0.058 C 
ENDBRANCH  25  26
ENDBRANCH  10  25
TORSDOF 7
ENDMDL
MODEL 3
REMARK VINA RESULT:      -8.1      2.501      4.112
REMARK  7 active torsions:
REMARK  status: ('A' for Active; 'I' for Inactive)
REMARK    1  A    between atoms: C1_2  and  C2_3 
REMARK    2  A    between atoms: C2_3  and  O2_4 
REMARK    3  A    between atoms: O2_4  and  C3_5 
REMARK    4  A    between atoms: C6_8  and  N1_9 
REMARK    5  A    between atoms: N1_9  and  C7_10 
REMARK    6  A    between atoms: C16_23  and  O3_24 
REMARK    7  A    between atoms: O3_24  and  C17_25 
ROOT
HETATM    1  C3  UNL     1      21.239   0.673  51.861  1.00  0.00     0.103 A 
HETATM    2  C4  UNL     1      22.527   0.477  52.302  1.00  0.00     0.057 A 
HETATM    3  C5  UNL     1      22.842  -0.222  53.443  1.00  0.00     0.042 A 
HETATM    4  C6  UNL     1      24.134  -0.410  53.871  1.00  0.00     0.142 A 
HETATM    5  N2  UNL     1      24.268  -1.112  54.998  1.00  0.00    -0.224 NA
HETATM    6  C13 UNL     1      23.260  -1.620  55.706  1.00  0.00     0.236 A 
HETATM    7  N3  UNL     1      22.021  -1.428  55.278  1.00  0.00    -0.241 NA
HETATM    8  C14 UNL     1      21.787  -0.724  54.137  1.00  0.00     0.075 A 
HETATM    9  C15 UNL     1      20.484  -0.544  53.721  1.00  0.00     0.072 A 
HETATM   10  C16 UNL     1      20.162   0.170  52.556  1.00  0.00     0.104 A 
ENDROOT
BRANCH   4  11
HETATM   11  N1  UNL     1      25.212   0.126  53.135  1.00  0.00    -0.340 N 
HETATM   12  H5  UNL     1      25.048   0.762  52.338  1.00  0.00     0.167 HD
BRANCH  11  13
HETATM   13  C7  UNL     1      26.614  -0.043  53.278  1.00  0.00     0.035 A 
HETATM   14  C8  UNL     1      27.333  -1.186  52.956  1.00  0.00     0.032 A 
HETATM   15  C9  UNL     1      28.691  -1.281  53.125  1.00  0.00     0.046 A 
HETATM   16  C10 UNL     1      29.427  -0.232  53.629  1.00  0.00     0.138 A 
HETATM   17  F1  UNL     1      30.755  -0.472  53.739  1.00  0.00    -0.204 F 
HETATM   18  C11 UNL     1      28.743   0.917  53.958  1.00  0.00     0.074 A 
HETATM   19 CL1  UNL     1      29.738   2.207  54.594  1.00  0.00    -0.081 Cl
HETATM   20  C12 UNL     1      27.382   0.985  53.780  1.00  0.00     0.056 A 
ENDBRANCH  11  13
ENDBRANCH   4  11
BRANCH   1  21
HETATM   21  O2  UNL     1      20.923   1.377  50.712  1.00  0.00    -0.342 OA
BRANCH  21  22
HETATM   22  C2  UNL     1      20.638   2.749  50.653  1.00  0.00     0.245 C 
BRANCH  22  23
HETATM   23  C1  UNL     1      21.858   3.578  50.498  1.00  0.00     0.257 C 
HETATM   24  O1  UNL     1      22.751   4.239  50.984  1.00  0.00    -0.305 OA
ENDBRANCH  22  23
ENDBRANCH  21  22
ENDBRANCH   1  21
BRANCH  10  25
HETATM   25  O3  UNL     1      18.833   0.239  52.312  1.00  0.00    -0.343 OA
BRANCH  25  26
HETATM   26  C17 UNL     1      17.960  -0.500  51.569  1.00  0.00     0.133 C 
HETATM   27  C18 UNL     1      17.490   0.171  50.294  1.00  0.00     0.058 C 
HETATM   28  C19 UNL     1      16.256  -0.535  49.804  1.00  0.00     0.170 C 
HETATM   29  O4  UNL     1      15.166  -0.351  50.646  1.00  0.00    -0.391 OA
HETATM   30  C20 UNL     1      15.546   0.128  51.897  1.00  0.00     0.170 C 
HETATM   31  C21 UNL     1      16.701  -0.698  52.428  1.00  0.00     0.058 C 
ENDBRANCH  25  26
ENDBRANCH  10  25
TORSDOF 7
ENDMDL
MODEL 4
REMARK VINA RESULT:      -8.0      2.672      4.187
REMARK  7 active torsions:
REMARK  status: ('A' for Active; 'I' for Inactive)
REMARK    1  A    between atoms: C1_2  and  C2_3 
REMARK    2  A    between atoms: C2_3  and  O2_4 
REMARK    3  A    between atoms: O2_4  and  C3_5 
REMARK    4  A    between atoms: C6_8  and  N1_9 
REMARK    5  A    between atoms: N1_9  and  C7_10 
REMARK    6  A    between atoms: C16_23  and  O3_24 
REMARK    7  A    between atoms: O3_24  and  C17_25 
ROOT
HETATM    1  C3  UNL     1      21.600   2.608  51.784  1.00  0.00     0.103 A 
HETATM    2  C4  UNL     1      22.723   1.868  52.069  1.00  0.00     0.057 A 
HETATM    3  C5  UNL     1      22.748   0.847  52.989  1.00  0.00     0.042 A 
HETATM    4  C6  UNL     1      23.878   0.115  53.263  1.00  0.00     0.142 A 
HETATM    5  N2  UNL     1      23.733  -0.842  54.182  1.00  0.00    -0.224 NA
HETATM    6  C13 UNL     1      22.599  -1.117  54.824  1.00  0.00     0.236 A 
HETATM    7  N3  UNL     1      21.520  -0.402  54.547  1.00  0.00    -0.241 NA
HETATM    8  C14 UNL     1      21.573   0.596  53.623  1.00  0.00     0.075 A 
HETATM    9  C15 UNL     1      20.429   1.321  53.359  1.00  0.00     0.072 A 
HETATM   10  C16 UNL     1      20.403   2.364  52.420  1.00  0.00     0.104 A 
ENDROOT
BRANCH   4  11
HETATM   11  N1  UNL     1      25.089   0.399  52.594  1.00  0.00    -0.340 N 
HETATM   12  H5  UNL     1      25.094   0.917  51.701  1.00  0.00     0.167 HD
BRANCH  11  13
HETATM   13  C7  UNL     1      26.433   0.090  52.929  1.00  0.00     0.035 A 
HETATM   14  C8  UNL     1      27.054  -1.139  52.753  1.00  0.00     0.032 A 
HETATM   15  C9  UNL     1      28.360  -1.367  53.104  1.00  0.00     0.046 A 
HETATM   16  C10 UNL     1      29.139  -0.377  53.659  1.00  0.00     0.138 A 
HETATM   17  F1  UNL     1      30.407  -0.749  53.954  1.00  0.00    -0.204 F 
HETATM   18  C11 UNL     1      28.552   0.855  53.847  1.00  0.00     0.074 A 
HETATM   19 CL1  UNL     1      29.596   2.065  54.556  1.00  0.00    -0.081 Cl
HETATM   20  C12 UNL     1      27.241   1.057  53.486  1.00  0.00     0.056 A 
ENDBRANCH  11  13
ENDBRANCH   4  11
BRANCH   1  21
HETATM   21  O2  UNL     1      21.576   3.636  50.858  1.00  0.00    -0.342 OA
BRANCH  21  22
HETATM   22  C2  UNL     1      21.536   5.004  51.165  1.00  0.00     0.245 C 
BRANCH  22  23
HETATM   23  C1  UNL     1      22.877   5.636  51.132  1.00  0.00     0.257 C 
HETATM   24  O1  UNL     1      23.902   5.961  51.693  1.00  0.00    -0.305 OA
ENDBRANCH  22  23
ENDBRANCH  21  22
ENDBRANCH   1  21
BRANCH  10  25
HETATM   25  O3  UNL     1      19.193   2.956  52.298  1.00  0.00    -0.343 OA
BRANCH  25  26
HETATM   26  C17 UNL     1      18.113   2.761  51.488  1.00  0.00     0.133 C 
HETATM   27  C18 UNL     1      18.400   1.954  50.238  1.00  0.00     0.058 C 
HETATM   28  C19 UNL     1      17.278   2.166  49.258  1.00  0.00     0.170 C 
HETATM   29  O4  UNL     1      17.242   3.464  48.762  1.00  0.00    -0.391 OA
HETATM   30  C20 UNL     1      18.001   4.341  49.532  1.00  0.00     0.170 C 
HETATM   31  C21 UNL     1      17.668   4.149  50.998  1.00  0.00     0.058 C 
ENDBRANCH  25  26
ENDBRANCH  10  25
TORSDOF 7
ENDMDL
MODEL 5
REMARK VINA RESULT:      -7.9      4.309      6.239
REMARK  7 active torsions:
REMARK  status: ('A' for Active; 'I' for Inactive)
REMARK    1  A    between atoms: C1_2  and  C2_3 
REMARK    2  A    between atoms: C2_3  and  O2_4 
REMARK    3  A    between atoms: O2_4  and  C3_5 
REMARK    4  A    between atoms: C6_8  and  N1_9 
REMARK    5  A    between atoms: N1_9  and  C7_10 
REMARK    6  A    between atoms: C16_23  and  O3_24 
REMARK    7  A    between atoms: O3_24  and  C17_25 
ROOT
HETATM    1  C3  UNL     1      25.369   2.005  51.955  1.00  0.00     0.103 A 
HETATM    2  C4  UNL     1      25.850   2.835  50.969  1.00  0.00     0.057 A 
HETATM    3  C5  UNL     1      25.075   3.753  50.303  1.00  0.00     0.042 A 
HETATM    4  C6  UNL     1      25.571   4.577  49.320  1.00  0.00     0.142 A 
HETATM    5  N2  UNL     1      24.687   5.412  48.772  1.00  0.00    -0.224 NA
HETATM    6  C13 UNL     1      23.400   5.491  49.110  1.00  0.00     0.236 A 
HETATM    7  N3  UNL     1      22.940   4.689  50.059  1.00  0.00    -0.241 NA
HETATM    8  C14 UNL     1      23.770   3.804  50.674  1.00  0.00     0.075 A 
HETATM    9  C15 UNL     1      23.257   2.985  51.659  1.00  0.00     0.072 A 
HETATM   10  C16 UNL     1      24.048   2.046  52.340  1.00  0.00     0.104 A 
ENDROOT
BRANCH   4  11
HETATM   11  N1  UNL     1      26.930   4.501  48.948  1.00  0.00    -0.340 N 
HETATM   12  H5  UNL     1      27.430   3.597  48.938  1.00  0.00     0.167 HD
BRANCH  11  13
HETATM   13  C7  UNL     1      27.844   5.510  48.544  1.00  0.00     0.035 A 
HETATM   14  C8  UNL     1      29.155   5.305  48.138  1.00  0.00     0.032 A 
HETATM   15  C9  UNL     1      29.984   6.332  47.764  1.00  0.00     0.046 A 
HETATM   16  C10 UNL     1      29.556   7.640  47.771  1.00  0.00     0.138 A 
HETATM   17  F1  UNL     1      30.485   8.544  47.377  1.00  0.00    -0.204 F 
HETATM   18  C11 UNL     1      28.259   7.877  48.168  1.00  0.00     0.074 A 
HETATM   19 CL1  UNL     1      27.782   9.559  48.154  1.00  0.00    -0.081 Cl
HETATM   20  C12 UNL     1      27.449   6.830  48.539  1.00  0.00     0.056 A 
ENDBRANCH  11  13
ENDBRANCH   4  11
BRANCH   1  21
HETATM   21  O2  UNL     1      26.151   1.081  52.625  1.00  0.00    -0.342 OA
BRANCH  21  22
HETATM   22  C2  UNL     1      26.915   1.343  53.771  1.00  0.00     0.245 C 
BRANCH  22  23
HETATM   23  C1  UNL     1      27.710   0.170  54.207  1.00  0.00     0.257 C 
HETATM   24  O1  UNL     1      28.431  -0.371  55.019  1.00  0.00    -0.305 OA
ENDBRANCH  22  23
ENDBRANCH  21  22
ENDBRANCH   1  21
BRANCH  10  25
HETATM   25  O3  UNL     1      23.369   1.336  53.271  1.00  0.00    -0.343 OA
BRANCH  25  26
HETATM   26  C17 UNL     1      22.704   0.146  53.263  1.00  0.00     0.133 C 
HETATM   27  C18 UNL     1      21.399   0.147  54.033  1.00  0.00     0.058 C 
HETATM   28  C19 UNL     1      20.992  -1.277  54.298  1.00  0.00     0.170 C 
HETATM   29  O4  UNL     1      21.849  -1.919  55.184  1.00  0.00    -0.391 OA
HETATM   30  C20 UNL     1      23.053  -1.237  55.337  1.00  0.00     0.170 C 
HETATM   31  C21 UNL     1      23.608  -0.875  53.974  1.00  0.00     0.058 C 
ENDBRANCH  25  26
ENDBRANCH  10  25
TORSDOF 7
ENDMDL
MODEL 6
REMARK VINA RESULT:      -7.6      5.022      9.119
REMARK  7 active torsions:
REMARK  status: ('A' for Active; 'I' for Inactive)
REMARK    1  A    between atoms: C1_2  and  C2_3 
REMARK    2  A    between atoms: C2_3  and  O2_4 
REMARK    3  A    between atoms: O2_4  and  C3_5 
REMARK    4  A    between atoms: C6_8  and  N1_9 
REMARK    5  A    between atoms: N1_9  and  C7_10 
REMARK    6  A    between atoms: C16_23  and  O3_24 
REMARK    7  A    between atoms: O3_24  and  C17_25 
ROOT
HETATM    1  C3  UNL     1      23.511   1.328  51.563  1.00  0.00     0.103 A 
HETATM    2  C4  UNL     1      22.149   1.149  51.500  1.00  0.00     0.057 A 
HETATM    3  C5  UNL     1      21.450   0.325  52.349  1.00  0.00     0.042 A 
HETATM    4  C6  UNL     1      20.088   0.157  52.275  1.00  0.00     0.142 A 
HETATM    5  N2  UNL     1      19.563  -0.678  53.173  1.00  0.00    -0.224 NA
HETATM    6  C13 UNL     1      20.257  -1.333  54.103  1.00  0.00     0.236 A 
HETATM    7  N3  UNL     1      21.568  -1.159  54.160  1.00  0.00    -0.241 NA
HETATM    8  C14 UNL     1      22.192  -0.325  53.283  1.00  0.00     0.075 A 
HETATM    9  C15 UNL     1      23.559  -0.168  53.371  1.00  0.00     0.072 A 
HETATM   10  C16 UNL     1      24.274   0.674  52.504  1.00  0.00     0.104 A 
ENDROOT
BRANCH   4  11
HETATM   11  N1  UNL     1      19.340   0.841  51.292  1.00  0.00    -0.340 N 
HETATM   12  H5  UNL     1      19.557   0.734  50.287  1.00  0.00     0.167 HD
BRANCH  11  13
HETATM   13  C7  UNL     1      18.242   1.733  51.409  1.00  0.00     0.035 A 
HETATM   14  C8  UNL     1      18.320   3.118  51.450  1.00  0.00     0.032 A 
HETATM   15  C9  UNL     1      17.213   3.920  51.569  1.00  0.00     0.046 A 
HETATM   16  C10 UNL     1      15.946   3.388  51.655  1.00  0.00     0.138 A 
HETATM   17  F1  UNL     1      14.953   4.301  51.768  1.00  0.00    -0.204 F 
HETATM   18  C11 UNL     1      15.835   2.016  51.617  1.00  0.00     0.074 A 
HETATM   19 CL1  UNL     1      14.199   1.408  51.732  1.00  0.00    -0.081 Cl
HETATM   20  C12 UNL     1      16.960   1.235  51.498  1.00  0.00     0.056 A 
ENDBRANCH  11  13
ENDBRANCH   4  11
BRANCH   1  21
HETATM   21  O2  UNL     1      24.213   2.158  50.707  1.00  0.00    -0.342 OA
BRANCH  21  22
HETATM   22  C2  UNL     1      24.518   3.504  50.951  1.00  0.00     0.245 C 
BRANCH  22  23
HETATM   23  C1  UNL     1      25.797   3.922  50.326  1.00  0.00     0.257 C 
HETATM   24  O1  UNL     1      26.580   3.880  49.401  1.00  0.00    -0.305 OA
ENDBRANCH  22  23
ENDBRANCH  21  22
ENDBRANCH   1  21
BRANCH  10  25
HETATM   25  O3  UNL     1      25.605   0.699  52.746  1.00  0.00    -0.343 OA
BRANCH  25  26
HETATM   26  C17 UNL     1      26.423   1.493  53.495  1.00  0.00     0.133 C 
HETATM   27  C18 UNL     1      27.701   1.917  52.800  1.00  0.00     0.058 C 
HETATM   28  C19 UNL     1      28.673   2.412  53.836  1.00  0.00     0.170 C 
HETATM   29  O4  UNL     1      29.122   1.397  54.673  1.00  0.00    -0.391 OA
HETATM   30  C20 UNL     1      28.320   0.261  54.596  1.00  0.00     0.170 C 
HETATM   31  C21 UNL     1      26.862   0.659  54.710  1.00  0.00     0.058 C 
ENDBRANCH  25  26
ENDBRANCH  10  25
TORSDOF 7
ENDMDL
MODEL 7
REMARK VINA RESULT:      -7.5      4.520      8.365
REMARK  7 active torsions:
REMARK  status: ('A' for Active; 'I' for Inactive)
REMARK    1  A    between atoms: C1_2  and  C2_3 
REMARK    2  A    between atoms: C2_3  and  O2_4 
REMARK    3  A    between atoms: O2_4  and  C3_5 
REMARK    4  A    between atoms: C6_8  and  N1_9 
REMARK    5  A    between atoms: N1_9  and  C7_10 
REMARK    6  A    between atoms: C16_23  and  O3_24 
REMARK    7  A    between atoms: O3_24  and  C17_25 
ROOT
HETATM    1  C3  UNL     1      23.541   0.817  52.863  1.00  0.00     0.103 A 
HETATM    2  C4  UNL     1      22.279   1.338  52.696  1.00  0.00     0.057 A 
HETATM    3  C5  UNL     1      22.037   2.618  52.260  1.00  0.00     0.042 A 
HETATM    4  C6  UNL     1      20.769   3.125  52.097  1.00  0.00     0.142 A 
HETATM    5  N2  UNL     1      20.707   4.386  51.666  1.00  0.00    -0.224 NA
HETATM    6  C13 UNL     1      21.762   5.153  51.395  1.00  0.00     0.236 A 
HETATM    7  N3  UNL     1      22.975   4.648  51.558  1.00  0.00    -0.241 NA
HETATM    8  C14 UNL     1      23.137   3.370  51.994  1.00  0.00     0.075 A 
HETATM    9  C15 UNL     1      24.416   2.877  52.153  1.00  0.00     0.072 A 
HETATM   10  C16 UNL     1      24.665   1.569  52.598  1.00  0.00     0.104 A 
ENDROOT
BRANCH   4  11
HETATM   11  N1  UNL     1      19.642   2.326  52.385  1.00  0.00    -0.340 N 
HETATM   12  H5  UNL     1      19.418   2.052  53.355  1.00  0.00     0.167 HD
BRANCH  11  13
HETATM   13  C7  UNL     1      18.655   1.765  51.533  1.00  0.00     0.035 A 
HETATM   14  C8  UNL     1      18.622   0.455  51.077  1.00  0.00     0.032 A 
HETATM   15  C9  UNL     1      17.635  -0.018  50.249  1.00  0.00     0.046 A 
HETATM   16  C10 UNL     1      16.609   0.792  49.819  1.00  0.00     0.138 A 
HETATM   17  F1  UNL     1      15.710   0.186  49.007  1.00  0.00    -0.204 F 
HETATM   18  C11 UNL     1      16.613   2.099  50.253  1.00  0.00     0.074 A 
HETATM   19 CL1  UNL     1      15.282   3.071  49.668  1.00  0.00    -0.081 Cl
HETATM   20  C12 UNL     1      17.613   2.548  51.082  1.00  0.00     0.056 A 
ENDBRANCH  11  13
ENDBRANCH   4  11
BRANCH   1  21
HETATM   21  O2  UNL     1      23.784  -0.472  53.302  1.00  0.00    -0.342 OA
BRANCH  21  22
HETATM   22  C2  UNL     1      23.844  -0.874  54.644  1.00  0.00     0.245 C 
BRANCH  22  23
HETATM   23  C1  UNL     1      22.559  -1.431  55.131  1.00  0.00     0.257 C 
HETATM   24  O1  UNL     1      21.361  -1.579  55.008  1.00  0.00    -0.305 OA
ENDBRANCH  22  23
ENDBRANCH  21  22
ENDBRANCH   1  21
BRANCH  10  25
HETATM   25  O3  UNL     1      25.980   1.267  52.689  1.00  0.00    -0.343 OA
BRANCH  25  26
HETATM   26  C17 UNL     1      26.907   1.334  53.688  1.00  0.00     0.133 C 
HETATM   27  C18 UNL     1      28.151   2.126  53.343  1.00  0.00     0.058 C 
HETATM   28  C19 UNL     1      29.233   1.780  54.328  1.00  0.00     0.170 C 
HETATM   29  O4  UNL     1      29.678   0.471  54.192  1.00  0.00    -0.391 OA
HETATM   30  C20 UNL     1      28.798  -0.307  53.444  1.00  0.00     0.170 C 
HETATM   31  C21 UNL     1      27.384  -0.104  53.950  1.00  0.00     0.058 C 
ENDBRANCH  25  26
ENDBRANCH  10  25
TORSDOF 7
ENDMDL
MODEL 8
REMARK VINA RESULT:      -7.5      4.891      6.781
REMARK  7 active torsions:
REMARK  status: ('A' for Active; 'I' for Inactive)
REMARK    1  A    between atoms: C1_2  and  C2_3 
REMARK    2  A    between atoms: C2_3  and  O2_4 
REMARK    3  A    between atoms: O2_4  and  C3_5 
REMARK    4  A    between atoms: C6_8  and  N1_9 
REMARK    5  A    between atoms: N1_9  and  C7_10 
REMARK    6  A    between atoms: C16_23  and  O3_24 
REMARK    7  A    between atoms: O3_24  and  C17_25 
ROOT
HETATM    1  C3  UNL     1      25.854   2.548  50.887  1.00  0.00     0.103 A 
HETATM    2  C4  UNL     1      26.396   3.641  50.251  1.00  0.00     0.057 A 
HETATM    3  C5  UNL     1      25.647   4.582  49.586  1.00  0.00     0.042 A 
HETATM    4  C6  UNL     1      26.202   5.670  48.956  1.00  0.00     0.142 A 
HETATM    5  N2  UNL     1      25.336   6.489  48.356  1.00  0.00    -0.224 NA
HETATM    6  C13 UNL     1      24.015   6.319  48.335  1.00  0.00     0.236 A 
HETATM    7  N3  UNL     1      23.497   5.265  48.948  1.00  0.00    -0.241 NA
HETATM    8  C14 UNL     1      24.304   4.374  49.586  1.00  0.00     0.075 A 
HETATM    9  C15 UNL     1      23.731   3.288  50.214  1.00  0.00     0.072 A 
HETATM   10  C16 UNL     1      24.495   2.326  50.893  1.00  0.00     0.104 A 
ENDROOT
BRANCH   4  11
HETATM   11  N1  UNL     1      27.601   5.860  48.965  1.00  0.00    -0.340 N 
HETATM   12  H5  UNL     1      28.225   5.192  49.446  1.00  0.00     0.167 HD
BRANCH  11  13
HETATM   13  C7  UNL     1      28.407   6.879  48.395  1.00  0.00     0.035 A 
HETATM   14  C8  UNL     1      29.358   6.703  47.400  1.00  0.00     0.032 A 
HETATM   15  C9  UNL     1      30.106   7.738  46.897  1.00  0.00     0.046 A 
HETATM   16  C10 UNL     1      29.952   9.026  47.358  1.00  0.00     0.138 A 
HETATM   17  F1  UNL     1      30.758   9.940  46.769  1.00  0.00    -0.204 F 
HETATM   18  C11 UNL     1      29.015   9.234  48.346  1.00  0.00     0.074 A 
HETATM   19 CL1  UNL     1      28.872  10.892  48.886  1.00  0.00    -0.081 Cl
HETATM   20  C12 UNL     1      28.279   8.180  48.833  1.00  0.00     0.056 A 
ENDBRANCH  11  13
ENDBRANCH   4  11
BRANCH   1  21
HETATM   21  O2  UNL     1      26.610   1.601  51.556  1.00  0.00    -0.342 OA
BRANCH  21  22
HETATM   22  C2  UNL     1      27.460   1.860  52.640  1.00  0.00     0.245 C 
BRANCH  22  23
HETATM   23  C1  UNL     1      26.823   1.567  53.947  1.00  0.00     0.257 C 
HETATM   24  O1  UNL     1      26.801   0.956  54.994  1.00  0.00    -0.305 OA
ENDBRANCH  22  23
ENDBRANCH  21  22
ENDBRANCH   1  21
BRANCH  10  25
HETATM   25  O3  UNL     1      23.757   1.336  51.446  1.00  0.00    -0.343 OA
BRANCH  25  26
HETATM   26  C17 UNL     1      23.365   1.035  52.717  1.00  0.00     0.133 C 
HETATM   27  C18 UNL     1      23.682  -0.379  53.157  1.00  0.00     0.058 C 
HETATM   28  C19 UNL     1      22.852  -0.706  54.369  1.00  0.00     0.170 C 
HETATM   29  O4  UNL     1      21.496  -0.791  54.079  1.00  0.00    -0.391 OA
HETATM   30  C20 UNL     1      21.186  -0.216  52.849  1.00  0.00     0.170 C 
HETATM   31  C21 UNL     1      21.832   1.151  52.749  1.00  0.00     0.058 C 
ENDBRANCH  25  26
ENDBRANCH  10  25
TORSDOF 7
ENDMDL
MODEL 9
REMARK VINA RESULT:      -7.4      3.887      6.054
REMARK  7 active torsions:
REMARK  status: ('A' for Active; 'I' for Inactive)
REMARK    1  A    between atoms: C1_2  and  C2_3 
REMARK    2  A    between atoms: C2_3  and  O2_4 
REMARK    3  A    between atoms: O2_4  and  C3_5 
REMARK    4  A    between atoms: C6_8  and  N1_9 
REMARK    5  A    between atoms: N1_9  and  C7_10 
REMARK    6  A    between atoms: C16_23  and  O3_24 
REMARK    7  A    between atoms: O3_24  and  C17_25 
ROOT
HETATM    1  C3  UNL     1      22.833   2.725  50.864  1.00  0.00     0.103 A 
HETATM    2  C4  UNL     1      24.110   2.951  50.406  1.00  0.00     0.057 A 
HETATM    3  C5  UNL     1      25.238   2.729  51.159  1.00  0.00     0.042 A 
HETATM    4  C6  UNL     1      26.508   2.959  50.688  1.00  0.00     0.142 A 
HETATM    5  N2  UNL     1      27.495   2.693  51.545  1.00  0.00    -0.224 NA
HETATM    6  C13 UNL     1      27.326   2.234  52.785  1.00  0.00     0.236 A 
HETATM    7  N3  UNL     1      26.095   2.019  53.222  1.00  0.00    -0.241 NA
HETATM    8  C14 UNL     1      25.025   2.262  52.417  1.00  0.00     0.075 A 
HETATM    9  C15 UNL     1      23.756   2.026  52.906  1.00  0.00     0.072 A 
HETATM   10  C16 UNL     1      22.604   2.252  52.137  1.00  0.00     0.104 A 
ENDROOT
BRANCH   4  11
HETATM   11  N1  UNL     1      26.703   3.450  49.379  1.00  0.00    -0.340 N 
HETATM   12  H5  UNL     1      26.586   2.835  48.557  1.00  0.00     0.167 HD
BRANCH  11  13
HETATM   13  C7  UNL     1      27.060   4.741  48.911  1.00  0.00     0.035 A 
HETATM   14  C8  UNL     1      28.310   5.119  48.439  1.00  0.00     0.032 A 
HETATM   15  C9  UNL     1      28.586   6.391  48.005  1.00  0.00     0.046 A 
HETATM   16  C10 UNL     1      27.625   7.377  48.014  1.00  0.00     0.138 A 
HETATM   17  F1  UNL     1      28.044   8.581  47.557  1.00  0.00    -0.204 F 
HETATM   18  C11 UNL     1      26.374   7.034  48.477  1.00  0.00     0.074 A 
HETATM   19 CL1  UNL     1      25.204   8.334  48.461  1.00  0.00    -0.081 Cl
HETATM   20  C12 UNL     1      26.124   5.753  48.906  1.00  0.00     0.056 A 
ENDBRANCH  11  13
ENDBRANCH   4  11
BRANCH   1  21
HETATM   21  O2  UNL     1      21.698   2.949  50.105  1.00  0.00    -0.342 OA
BRANCH  21  22
HETATM   22  C2  UNL     1      21.334   4.175  49.531  1.00  0.00     0.245 C 
BRANCH  22  23
HETATM   23  C1  UNL     1      21.182   5.253  50.538  1.00  0.00     0.257 C 
HETATM   24  O1  UNL     1      21.252   6.424  50.846  1.00  0.00    -0.305 OA
ENDBRANCH  22  23
ENDBRANCH  21  22
ENDBRANCH   1  21
BRANCH  10  25
HETATM   25  O3  UNL     1      21.453   1.962  52.786  1.00  0.00    -0.343 OA
BRANCH  25  26
HETATM   26  C17 UNL     1      20.789   0.807  53.080  1.00  0.00     0.133 C 
HETATM   27  C18 UNL     1      20.926   0.351  54.519  1.00  0.00     0.058 C 
HETATM   28  C19 UNL     1      20.523  -1.096  54.607  1.00  0.00     0.170 C 
HETATM   29  O4  UNL     1      21.413  -1.938  53.952  1.00  0.00    -0.391 OA
HETATM   30  C20 UNL     1      22.250  -1.242  53.084  1.00  0.00     0.170 C 
HETATM   31  C21 UNL     1      21.426  -0.302  52.227  1.00  0.00     0.058 C 
ENDBRANCH  25  26
ENDBRANCH  10  25
TORSDOF 7
ENDMDL
