MODEL 1
REMARK VINA RESULT:      -9.3      0.000      0.000
REMARK  2 active torsions:
REMARK  status: ('A' for Active; 'I' for Inactive)
REMARK    1  A    between atoms: C2_2  and  C3_3 
REMARK    2  A    between atoms: C15_18  and  O1_19 
ROOT
HETATM    1  C3  UNL     1      25.734   4.596  49.293  1.00  0.00     0.018 C 
HETATM    2  C4  UNL     1      26.263   3.765  50.171  1.00  0.00     0.025 C 
HETATM    3  C5  UNL     1      26.664   2.848  51.179  1.00  0.00     0.002 C 
HETATM    4  C6  UNL     1      26.018   2.178  52.127  1.00  0.00     0.007 C 
HETATM    5  C7  UNL     1      26.623   1.300  52.994  1.00  0.00    -0.052 C 
HETATM    6  C8  UNL     1      27.335   1.097  54.017  1.00  0.00     0.009 C 
HETATM    7  C9  UNL     1      26.932  -0.062  54.913  1.00  0.00     0.025 C 
HETATM    8  C10 UNL     1      25.833  -0.514  54.168  1.00  0.00     0.010 C 
HETATM    9  C11 UNL     1      26.149  -0.140  52.741  1.00  0.00     0.095 C 
HETATM   10  N1  UNL     1      24.876  -1.191  55.071  1.00  0.00    -0.376 N 
HETATM   11  C12 UNL     1      23.450  -1.066  54.693  1.00  0.00     0.263 C 
HETATM   12  N2  UNL     1      23.508   0.111  53.779  1.00  0.00    -0.297 N 
HETATM   13  N3  UNL     1      22.313   0.379  53.310  1.00  0.00    -0.194 NA
HETATM   14  C13 UNL     1      21.166  -0.247  53.396  1.00  0.00     0.119 C 
HETATM   15  C14 UNL     1      19.650  -0.324  53.039  1.00  0.00     0.127 C 
HETATM   16  C15 UNL     1      19.414   0.835  52.053  1.00  0.00     0.025 C 
HETATM   17  C17 UNL     1      20.681   1.888  51.545  1.00  0.00     0.088 C 
HETATM   18  C18 UNL     1      19.634   2.473  50.787  1.00  0.00     0.023 C 
HETATM   19  C19 UNL     1      19.379   3.572  49.794  1.00  0.00     0.175 C 
HETATM   20  O2  UNL     1      20.661   4.161  49.578  1.00  0.00    -0.372 OA
HETATM   21  C20 UNL     1      20.674   4.859  48.423  1.00  0.00     0.294 C 
HETATM   22  N4  UNL     1      21.982   5.558  48.355  1.00  0.00    -0.322 N 
HETATM   23  C21 UNL     1      23.095   4.888  48.779  1.00  0.00     0.322 C 
HETATM   24  O3  UNL     1      23.081   3.811  49.288  1.00  0.00    -0.247 OA
HETATM   25  N5  UNL     1      24.478   5.061  48.846  1.00  0.00    -0.312 N 
HETATM   26  H11 UNL     1      25.088  -1.750  55.915  1.00  0.00     0.161 HD
HETATM   27  H14 UNL     1      23.424   0.921  53.131  1.00  0.00     0.184 HD
HETATM   28  H26 UNL     1      22.489   6.428  48.138  1.00  0.00     0.166 HD
HETATM   29  H27 UNL     1      24.533   5.893  48.258  1.00  0.00     0.170 HD
ENDROOT
BRANCH   1  30
HETATM   30  C2  UNL     1      27.160   4.703  48.932  1.00  0.00     0.045 C 
HETATM   31  C1  UNL     1      28.060   5.667  48.300  1.00  0.00     0.012 C 
ENDBRANCH   1  30
BRANCH  16  32
HETATM   32  O1  UNL     1      17.956   0.759  51.719  1.00  0.00    -0.396 OA
HETATM   33  C16 UNL     1      17.458  -0.566  51.979  1.00  0.00     0.201 C 
ENDBRANCH  16  32
TORSDOF 2
ENDMDL
MODEL 2
REMARK VINA RESULT:      -9.0      2.545      8.031
REMARK  2 active torsions:
REMARK  status: ('A' for Active; 'I' for Inactive)
REMARK    1  A    between atoms: C2_2  and  C3_3 
REMARK    2  A    between atoms: C15_18  and  O1_19 
ROOT
HETATM    1  C3  UNL     1      19.070   0.648  51.588  1.00  0.00     0.018 C 
HETATM    2  C4  UNL     1      19.584   1.570  50.794  1.00  0.00     0.025 C 
HETATM    3  C5  UNL     1      20.283   2.555  50.048  1.00  0.00     0.002 C 
HETATM    4  C6  UNL     1      21.475   3.130  50.165  1.00  0.00     0.007 C 
HETATM    5  C7  UNL     1      21.967   4.063  49.285  1.00  0.00    -0.052 C 
HETATM    6  C8  UNL     1      21.981   5.249  48.851  1.00  0.00     0.009 C 
HETATM    7  C9  UNL     1      23.331   5.813  48.443  1.00  0.00     0.025 C 
HETATM    8  C10 UNL     1      24.109   4.677  48.711  1.00  0.00     0.010 C 
HETATM    9  C11 UNL     1      23.174   3.510  48.511  1.00  0.00     0.095 C 
HETATM   10  N1  UNL     1      25.494   5.095  49.022  1.00  0.00    -0.376 N 
HETATM   11  C12 UNL     1      26.212   4.238  49.991  1.00  0.00     0.263 C 
HETATM   12  N2  UNL     1      25.069   3.532  50.638  1.00  0.00    -0.297 N 
HETATM   13  N3  UNL     1      25.509   2.690  51.542  1.00  0.00    -0.194 NA
HETATM   14  C13 UNL     1      26.712   2.286  51.867  1.00  0.00     0.119 C 
HETATM   15  C14 UNL     1      27.634   1.396  52.753  1.00  0.00     0.127 C 
HETATM   16  C15 UNL     1      26.671   0.514  53.570  1.00  0.00     0.025 C 
HETATM   17  C17 UNL     1      24.958   0.614  53.397  1.00  0.00     0.088 C 
HETATM   18  C18 UNL     1      24.989  -0.410  54.379  1.00  0.00     0.023 C 
HETATM   19  C19 UNL     1      24.077  -1.311  55.162  1.00  0.00     0.175 C 
HETATM   20  O2  UNL     1      22.768  -0.983  54.698  1.00  0.00    -0.372 OA
HETATM   21  C20 UNL     1      21.900  -1.976  54.984  1.00  0.00     0.294 C 
HETATM   22  N4  UNL     1      20.549  -1.491  54.607  1.00  0.00    -0.322 N 
HETATM   23  C21 UNL     1      20.421  -0.760  53.460  1.00  0.00     0.322 C 
HETATM   24  O3  UNL     1      21.334  -0.404  52.782  1.00  0.00    -0.247 OA
HETATM   25  N5  UNL     1      19.424  -0.176  52.678  1.00  0.00    -0.312 N 
HETATM   26  H11 UNL     1      26.017   5.896  48.630  1.00  0.00     0.161 HD
HETATM   27  H14 UNL     1      24.356   2.985  51.163  1.00  0.00     0.184 HD
HETATM   28  H26 UNL     1      19.553  -1.418  54.862  1.00  0.00     0.166 HD
HETATM   29  H27 UNL     1      18.626  -0.615  53.137  1.00  0.00     0.170 HD
ENDROOT
BRANCH   1  30
HETATM   30  C2  UNL     1      17.948   0.846  50.652  1.00  0.00     0.045 C 
HETATM   31  C1  UNL     1      17.040   0.033  49.845  1.00  0.00     0.012 C 
ENDBRANCH   1  30
BRANCH  16  32
HETATM   32  O1  UNL     1      27.562  -0.334  54.423  1.00  0.00    -0.396 OA
HETATM   33  C16 UNL     1      28.801   0.352  54.677  1.00  0.00     0.201 C 
ENDBRANCH  16  32
TORSDOF 2
ENDMDL
MODEL 3
REMARK VINA RESULT:      -8.5      1.819      6.163
REMARK  2 active torsions:
REMARK  status: ('A' for Active; 'I' for Inactive)
REMARK    1  A    between atoms: C2_2  and  C3_3 
REMARK    2  A    between atoms: C15_18  and  O1_19 
ROOT
HETATM    1  C3  UNL     1      26.044   0.305  52.986  1.00  0.00     0.018 C 
HETATM    2  C4  UNL     1      26.354   1.365  52.263  1.00  0.00     0.025 C 
HETATM    3  C5  UNL     1      26.514   2.506  51.433  1.00  0.00     0.002 C 
HETATM    4  C6  UNL     1      25.698   3.197  50.645  1.00  0.00     0.007 C 
HETATM    5  C7  UNL     1      26.075   4.315  49.940  1.00  0.00    -0.052 C 
HETATM    6  C8  UNL     1      26.671   4.830  48.953  1.00  0.00     0.009 C 
HETATM    7  C9  UNL     1      26.005   6.030  48.302  1.00  0.00     0.025 C 
HETATM    8  C10 UNL     1      24.892   6.122  49.148  1.00  0.00     0.010 C 
HETATM    9  C11 UNL     1      25.361   5.568  50.471  1.00  0.00     0.095 C 
HETATM   10  N1  UNL     1      23.770   6.752  48.415  1.00  0.00    -0.376 N 
HETATM   11  C12 UNL     1      22.420   6.289  48.803  1.00  0.00     0.263 C 
HETATM   12  N2  UNL     1      22.750   5.002  49.480  1.00  0.00    -0.297 N 
HETATM   13  N3  UNL     1      21.657   4.430  49.924  1.00  0.00    -0.194 NA
HETATM   14  C13 UNL     1      20.412   4.828  49.990  1.00  0.00     0.119 C 
HETATM   15  C14 UNL     1      18.934   4.548  50.397  1.00  0.00     0.127 C 
HETATM   16  C15 UNL     1      18.977   3.208  51.157  1.00  0.00     0.025 C 
HETATM   17  C17 UNL     1      20.447   2.345  51.423  1.00  0.00     0.088 C 
HETATM   18  C18 UNL     1      19.576   1.444  52.088  1.00  0.00     0.023 C 
HETATM   19  C19 UNL     1      19.590   0.159  52.865  1.00  0.00     0.175 C 
HETATM   20  O2  UNL     1      20.970  -0.202  52.931  1.00  0.00    -0.372 OA
HETATM   21  C20 UNL     1      21.184  -1.078  53.935  1.00  0.00     0.294 C 
HETATM   22  N4  UNL     1      22.600  -1.512  53.834  1.00  0.00    -0.322 N 
HETATM   23  C21 UNL     1      23.541  -0.576  53.511  1.00  0.00     0.322 C 
HETATM   24  O3  UNL     1      23.297   0.551  53.213  1.00  0.00    -0.247 OA
HETATM   25  N5  UNL     1      24.926  -0.465  53.374  1.00  0.00    -0.312 N 
HETATM   26  H11 UNL     1      23.822   7.482  47.685  1.00  0.00     0.161 HD
HETATM   27  H14 UNL     1      22.859   4.089  49.967  1.00  0.00     0.184 HD
HETATM   28  H26 UNL     1      23.271  -2.294  53.870  1.00  0.00     0.166 HD
HETATM   29  H27 UNL     1      25.170  -1.362  53.794  1.00  0.00     0.170 HD
ENDROOT
BRANCH   1  30
HETATM   30  C2  UNL     1      27.485   0.412  53.279  1.00  0.00     0.045 C 
HETATM   31  C1  UNL     1      28.626  -0.475  53.499  1.00  0.00     0.012 C 
ENDBRANCH   1  30
BRANCH  16  32
HETATM   32  O1  UNL     1      17.554   2.941  51.540  1.00  0.00    -0.396 OA
HETATM   33  C16 UNL     1      16.809   4.172  51.558  1.00  0.00     0.201 C 
ENDBRANCH  16  32
TORSDOF 2
ENDMDL
MODEL 4
REMARK VINA RESULT:      -8.5      2.306      4.500
REMARK  2 active torsions:
REMARK  status: ('A' for Active; 'I' for Inactive)
REMARK    1  A    between atoms: C2_2  and  C3_3 
REMARK    2  A    between atoms: C15_18  and  O1_19 
ROOT
HETATM    1  C3  UNL     1      26.893   2.054  52.011  1.00  0.00     0.018 C 
HETATM    2  C4  UNL     1      26.110   1.176  52.609  1.00  0.00     0.025 C 
HETATM    3  C5  UNL     1      25.129   0.336  53.200  1.00  0.00     0.002 C 
HETATM    4  C6  UNL     1      23.805   0.389  53.296  1.00  0.00     0.007 C 
HETATM    5  C7  UNL     1      23.040  -0.577  53.906  1.00  0.00    -0.052 C 
HETATM    6  C8  UNL     1      22.607  -1.116  54.963  1.00  0.00     0.009 C 
HETATM    7  C9  UNL     1      21.163  -1.587  54.948  1.00  0.00     0.025 C 
HETATM    8  C10 UNL     1      20.851  -1.227  53.630  1.00  0.00     0.010 C 
HETATM    9  C11 UNL     1      22.159  -1.311  52.883  1.00  0.00     0.095 C 
HETATM   10  N1  UNL     1      19.397  -0.969  53.525  1.00  0.00    -0.376 N 
HETATM   11  C12 UNL     1      19.006   0.066  52.542  1.00  0.00     0.263 C 
HETATM   12  N2  UNL     1      20.300   0.786  52.367  1.00  0.00    -0.297 N 
HETATM   13  N3  UNL     1      20.164   1.757  51.496  1.00  0.00    -0.194 NA
HETATM   14  C13 UNL     1      19.183   2.104  50.701  1.00  0.00     0.119 C 
HETATM   15  C14 UNL     1      18.619   3.057  49.604  1.00  0.00     0.127 C 
HETATM   16  C15 UNL     1      19.804   3.960  49.214  1.00  0.00     0.025 C 
HETATM   17  C17 UNL     1      21.364   3.797  49.930  1.00  0.00     0.088 C 
HETATM   18  C18 UNL     1      21.671   4.867  49.050  1.00  0.00     0.023 C 
HETATM   19  C19 UNL     1      22.817   5.738  48.619  1.00  0.00     0.175 C 
HETATM   20  O2  UNL     1      23.931   5.259  49.373  1.00  0.00    -0.372 OA
HETATM   21  C20 UNL     1      25.092   5.643  48.801  1.00  0.00     0.294 C 
HETATM   22  N4  UNL     1      26.182   5.239  49.723  1.00  0.00    -0.322 N 
HETATM   23  C21 UNL     1      26.080   4.032  50.355  1.00  0.00     0.322 C 
HETATM   24  O3  UNL     1      25.131   3.315  50.290  1.00  0.00    -0.247 OA
HETATM   25  N5  UNL     1      26.823   3.210  51.204  1.00  0.00    -0.312 N 
HETATM   26  H11 UNL     1      18.632  -1.437  54.039  1.00  0.00     0.161 HD
HETATM   27  H14 UNL     1      21.142   1.365  52.168  1.00  0.00     0.184 HD
HETATM   28  H26 UNL     1      27.068   5.496  50.182  1.00  0.00     0.166 HD
HETATM   29  H27 UNL     1      27.706   3.716  51.132  1.00  0.00     0.170 HD
ENDROOT
BRANCH   1  30
HETATM   30  C2  UNL     1      27.902   1.116  52.537  1.00  0.00     0.045 C 
HETATM   31  C1  UNL     1      28.814   1.014  53.675  1.00  0.00     0.012 C 
ENDBRANCH   1  30
BRANCH  16  32
HETATM   32  O1  UNL     1      19.254   4.877  48.165  1.00  0.00    -0.396 OA
HETATM   33  C16 UNL     1      17.822   4.755  48.104  1.00  0.00     0.201 C 
ENDBRANCH  16  32
TORSDOF 2
ENDMDL
MODEL 5
REMARK VINA RESULT:      -8.1      3.007      6.046
REMARK  2 active torsions:
REMARK  status: ('A' for Active; 'I' for Inactive)
REMARK    1  A    between atoms: C2_2  and  C3_3 
REMARK    2  A    between atoms: C15_18  and  O1_19 
ROOT
HETATM    1  C3  UNL     1      26.460   2.386  51.421  1.00  0.00     0.018 C 
HETATM    2  C4  UNL     1      25.385   1.690  51.742  1.00  0.00     0.025 C 
HETATM    3  C5  UNL     1      24.133   1.080  52.019  1.00  0.00     0.002 C 
HETATM    4  C6  UNL     1      22.868   1.443  51.836  1.00  0.00     0.007 C 
HETATM    5  C7  UNL     1      21.789   0.657  52.164  1.00  0.00    -0.052 C 
HETATM    6  C8  UNL     1      21.015   0.183  53.042  1.00  0.00     0.009 C 
HETATM    7  C9  UNL     1      19.546   0.072  52.671  1.00  0.00     0.025 C 
HETATM    8  C10 UNL     1      19.635   0.565  51.362  1.00  0.00     0.010 C 
HETATM    9  C11 UNL     1      21.029   0.210  50.905  1.00  0.00     0.095 C 
HETATM   10  N1  UNL     1      18.339   1.168  50.977  1.00  0.00    -0.376 N 
HETATM   11  C12 UNL     1      18.425   2.317  50.048  1.00  0.00     0.263 C 
HETATM   12  N2  UNL     1      19.851   2.714  50.229  1.00  0.00    -0.297 N 
HETATM   13  N3  UNL     1      20.139   3.734  49.456  1.00  0.00    -0.194 NA
HETATM   14  C13 UNL     1      19.471   4.346  48.511  1.00  0.00     0.119 C 
HETATM   15  C14 UNL     1      19.401   5.463  47.426  1.00  0.00     0.127 C 
HETATM   16  C15 UNL     1      20.814   6.076  47.393  1.00  0.00     0.025 C 
HETATM   17  C17 UNL     1      22.090   5.507  48.404  1.00  0.00     0.088 C 
HETATM   18  C18 UNL     1      22.821   6.517  47.727  1.00  0.00     0.023 C 
HETATM   19  C19 UNL     1      24.199   7.110  47.644  1.00  0.00     0.175 C 
HETATM   20  O2  UNL     1      24.974   6.340  48.563  1.00  0.00    -0.372 OA
HETATM   21  C20 UNL     1      26.291   6.464  48.295  1.00  0.00     0.294 C 
HETATM   22  N4  UNL     1      27.021   5.763  49.381  1.00  0.00    -0.322 N 
HETATM   23  C21 UNL     1      26.510   4.584  49.846  1.00  0.00     0.322 C 
HETATM   24  O3  UNL     1      25.468   4.120  49.505  1.00  0.00    -0.247 OA
HETATM   25  N5  UNL     1      26.836   3.566  50.743  1.00  0.00    -0.312 N 
HETATM   26  H11 UNL     1      17.392   0.870  51.264  1.00  0.00     0.161 HD
HETATM   27  H14 UNL     1      20.823   3.085  50.276  1.00  0.00     0.184 HD
HETATM   28  H26 UNL     1      27.811   5.777  50.042  1.00  0.00     0.166 HD
HETATM   29  H27 UNL     1      27.801   3.848  50.914  1.00  0.00     0.170 HD
ENDROOT
BRANCH   1  30
HETATM   30  C2  UNL     1      27.086   1.208  52.048  1.00  0.00     0.045 C 
HETATM   31  C1  UNL     1      27.783   0.868  53.287  1.00  0.00     0.012 C 
ENDBRANCH   1  30
BRANCH  16  32
HETATM   32  O1  UNL     1      20.738   7.151  46.353  1.00  0.00    -0.396 OA
HETATM   33  C16 UNL     1      19.916   6.719  45.255  1.00  0.00     0.201 C 
ENDBRANCH  16  32
TORSDOF 2
ENDMDL
MODEL 6
REMARK VINA RESULT:      -7.7      3.331      6.861
REMARK  2 active torsions:
REMARK  status: ('A' for Active; 'I' for Inactive)
REMARK    1  A    between atoms: C2_2  and  C3_3 
REMARK    2  A    between atoms: C15_18  and  O1_19 
ROOT
HETATM    1  C3  UNL     1      24.041   3.242  52.684  1.00  0.00     0.018 C 
HETATM    2  C4  UNL     1      23.092   2.338  52.520  1.00  0.00     0.025 C 
HETATM    3  C5  UNL     1      21.969   1.503  52.283  1.00  0.00     0.002 C 
HETATM    4  C6  UNL     1      20.736   1.717  51.837  1.00  0.00     0.007 C 
HETATM    5  C7  UNL     1      19.802   0.726  51.657  1.00  0.00    -0.052 C 
HETATM    6  C8  UNL     1      18.960  -0.078  52.146  1.00  0.00     0.009 C 
HETATM    7  C9  UNL     1      17.678  -0.291  51.358  1.00  0.00     0.025 C 
HETATM    8  C10 UNL     1      17.969   0.553  50.277  1.00  0.00     0.010 C 
HETATM    9  C11 UNL     1      19.473   0.540  50.166  1.00  0.00     0.095 C 
HETATM   10  N1  UNL     1      16.704   1.047  49.688  1.00  0.00    -0.376 N 
HETATM   11  C12 UNL     1      16.763   2.408  49.109  1.00  0.00     0.263 C 
HETATM   12  N2  UNL     1      17.988   2.939  49.773  1.00  0.00    -0.297 N 
HETATM   13  N3  UNL     1      18.229   4.163  49.367  1.00  0.00    -0.194 NA
HETATM   14  C13 UNL     1      17.690   4.911  48.438  1.00  0.00     0.119 C 
HETATM   15  C14 UNL     1      17.644   6.262  47.662  1.00  0.00     0.127 C 
HETATM   16  C15 UNL     1      18.863   7.055  48.172  1.00  0.00     0.025 C 
HETATM   17  C17 UNL     1      19.953   6.417  49.347  1.00  0.00     0.088 C 
HETATM   18  C18 UNL     1      20.593   7.668  49.153  1.00  0.00     0.023 C 
HETATM   19  C19 UNL     1      21.794   8.452  49.603  1.00  0.00     0.175 C 
HETATM   20  O2  UNL     1      22.474   7.577  50.503  1.00  0.00    -0.372 OA
HETATM   21  C20 UNL     1      23.760   7.957  50.655  1.00  0.00     0.294 C 
HETATM   22  N4  UNL     1      24.343   7.095  51.714  1.00  0.00    -0.322 N 
HETATM   23  C21 UNL     1      23.997   5.774  51.733  1.00  0.00     0.322 C 
HETATM   24  O3  UNL     1      23.188   5.277  51.014  1.00  0.00    -0.247 OA
HETATM   25  N5  UNL     1      24.309   4.604  52.429  1.00  0.00    -0.312 N 
HETATM   26  H11 UNL     1      15.801   0.549  49.619  1.00  0.00     0.161 HD
HETATM   27  H14 UNL     1      18.820   3.417  50.177  1.00  0.00     0.184 HD
HETATM   28  H26 UNL     1      24.932   7.038  52.557  1.00  0.00     0.166 HD
HETATM   29  H27 UNL     1      25.124   4.963  52.926  1.00  0.00     0.170 HD
ENDROOT
BRANCH   1  30
HETATM   30  C2  UNL     1      24.735   2.038  53.177  1.00  0.00     0.045 C 
HETATM   31  C1  UNL     1      25.965   1.699  53.891  1.00  0.00     0.012 C 
ENDBRANCH   1  30
BRANCH  16  32
HETATM   32  O1  UNL     1      18.810   8.353  47.428  1.00  0.00    -0.396 OA
HETATM   33  C16 UNL     1      17.465   8.865  47.421  1.00  0.00     0.201 C 
ENDBRANCH  16  32
TORSDOF 2
ENDMDL
MODEL 7
REMARK VINA RESULT:      -7.6      6.422     11.768
REMARK  2 active torsions:
REMARK  status: ('A' for Active; 'I' for Inactive)
REMARK    1  A    between atoms: C2_2  and  C3_3 
REMARK    2  A    between atoms: C15_18  and  O1_19 
ROOT
HETATM    1  C3  UNL     1      26.381   6.097  48.610  1.00  0.00     0.018 C 
HETATM    2  C4  UNL     1      27.591   5.572  48.546  1.00  0.00     0.025 C 
HETATM    3  C5  UNL     1      28.935   5.147  48.372  1.00  0.00     0.002 C 
HETATM    4  C6  UNL     1      29.976   5.629  47.702  1.00  0.00     0.007 C 
HETATM    5  C7  UNL     1      31.222   5.051  47.701  1.00  0.00    -0.052 C 
HETATM    6  C8  UNL     1      32.001   4.143  47.293  1.00  0.00     0.009 C 
HETATM    7  C9  UNL     1      33.434   4.553  46.999  1.00  0.00     0.025 C 
HETATM    8  C10 UNL     1      33.330   5.905  47.353  1.00  0.00     0.010 C 
HETATM    9  C11 UNL     1      32.250   5.951  48.405  1.00  0.00     0.095 C 
HETATM   10  N1  UNL     1      34.333   6.688  46.596  1.00  0.00    -0.376 N 
HETATM   11  C12 UNL     1      33.931   8.070  46.253  1.00  0.00     0.263 C 
HETATM   12  N2  UNL     1      32.451   7.978  46.414  1.00  0.00    -0.297 N 
HETATM   13  N3  UNL     1      31.895   9.139  46.165  1.00  0.00    -0.194 NA
HETATM   14  C13 UNL     1      32.391  10.330  45.941  1.00  0.00     0.119 C 
HETATM   15  C14 UNL     1      32.165  11.843  45.644  1.00  0.00     0.127 C 
HETATM   16  C15 UNL     1      30.641  12.046  45.750  1.00  0.00     0.025 C 
HETATM   17  C17 UNL     1      29.564  10.758  46.143  1.00  0.00     0.088 C 
HETATM   18  C18 UNL     1      28.594  11.786  46.024  1.00  0.00     0.023 C 
HETATM   19  C19 UNL     1      27.116  12.024  46.157  1.00  0.00     0.175 C 
HETATM   20  O2  UNL     1      26.586  10.760  46.555  1.00  0.00    -0.372 OA
HETATM   21  C20 UNL     1      25.368  10.911  47.117  1.00  0.00     0.294 C 
HETATM   22  N4  UNL     1      24.831   9.548  47.358  1.00  0.00    -0.322 N 
HETATM   23  C21 UNL     1      25.692   8.585  47.802  1.00  0.00     0.322 C 
HETATM   24  O3  UNL     1      26.867   8.734  47.926  1.00  0.00    -0.247 OA
HETATM   25  N5  UNL     1      25.671   7.254  48.225  1.00  0.00    -0.312 N 
HETATM   26  H11 UNL     1      35.276   6.388  46.299  1.00  0.00     0.161 HD
HETATM   27  H14 UNL     1      31.414   8.032  46.488  1.00  0.00     0.184 HD
HETATM   28  H26 UNL     1      24.019   8.916  47.306  1.00  0.00     0.166 HD
HETATM   29  H27 UNL     1      24.658   7.158  48.297  1.00  0.00     0.170 HD
ENDROOT
BRANCH   1  30
HETATM   30  C2  UNL     1      26.181   4.877  49.412  1.00  0.00     0.045 C 
HETATM   31  C1  UNL     1      25.378   3.656  49.367  1.00  0.00     0.012 C 
ENDBRANCH   1  30
BRANCH  16  32
HETATM   32  O1  UNL     1      30.430  13.499  45.458  1.00  0.00    -0.396 OA
HETATM   33  C16 UNL     1      31.179  13.883  44.291  1.00  0.00     0.201 C 
ENDBRANCH  16  32
TORSDOF 2
ENDMDL
MODEL 8
REMARK VINA RESULT:      -7.5      2.379      3.327
REMARK  2 active torsions:
REMARK  status: ('A' for Active; 'I' for Inactive)
REMARK    1  A    between atoms: C2_2  and  C3_3 
REMARK    2  A    between atoms: C15_18  and  O1_19 
ROOT
HETATM    1  C3  UNL     1      24.269   4.110  50.202  1.00  0.00     0.018 C 
HETATM    2  C4  UNL     1      24.244   3.071  51.015  1.00  0.00     0.025 C 
HETATM    3  C5  UNL     1      24.038   1.974  51.894  1.00  0.00     0.002 C 
HETATM    4  C6  UNL     1      22.964   1.432  52.458  1.00  0.00     0.007 C 
HETATM    5  C7  UNL     1      23.001   0.326  53.273  1.00  0.00    -0.052 C 
HETATM    6  C8  UNL     1      23.250  -0.187  54.399  1.00  0.00     0.009 C 
HETATM    7  C9  UNL     1      22.292  -1.261  54.888  1.00  0.00     0.025 C 
HETATM    8  C10 UNL     1      21.436  -1.282  53.779  1.00  0.00     0.010 C 
HETATM    9  C11 UNL     1      22.299  -0.871  52.612  1.00  0.00     0.095 C 
HETATM   10  N1  UNL     1      20.092  -1.733  54.207  1.00  0.00    -0.376 N 
HETATM   11  C12 UNL     1      18.958  -1.148  53.457  1.00  0.00     0.263 C 
HETATM   12  N2  UNL     1      19.613   0.048  52.852  1.00  0.00    -0.297 N 
HETATM   13  N3  UNL     1      18.754   0.709  52.114  1.00  0.00    -0.194 NA
HETATM   14  C13 UNL     1      17.529   0.450  51.731  1.00  0.00     0.119 C 
HETATM   15  C14 UNL     1      16.256   0.867  50.935  1.00  0.00     0.127 C 
HETATM   16  C15 UNL     1      16.663   2.142  50.172  1.00  0.00     0.025 C 
HETATM   17  C17 UNL     1      18.247   2.815  50.280  1.00  0.00     0.088 C 
HETATM   18  C18 UNL     1      17.700   3.764  49.378  1.00  0.00     0.023 C 
HETATM   19  C19 UNL     1      18.078   4.987  48.591  1.00  0.00     0.175 C 
HETATM   20  O2  UNL     1      19.461   5.185  48.884  1.00  0.00    -0.372 OA
HETATM   21  C20 UNL     1      20.037   5.966  47.946  1.00  0.00     0.294 C 
HETATM   22  N4  UNL     1      21.421   6.244  48.407  1.00  0.00    -0.322 N 
HETATM   23  C21 UNL     1      22.120   5.231  49.000  1.00  0.00     0.322 C 
HETATM   24  O3  UNL     1      21.668   4.160  49.258  1.00  0.00    -0.247 OA
HETATM   25  N5  UNL     1      23.396   4.974  49.505  1.00  0.00    -0.312 N 
HETATM   26  H11 UNL     1      19.860  -2.416  54.947  1.00  0.00     0.161 HD
HETATM   27  H14 UNL     1      19.958   0.910  52.382  1.00  0.00     0.184 HD
HETATM   28  H26 UNL     1      22.170   6.941  48.526  1.00  0.00     0.166 HD
HETATM   29  H27 UNL     1      23.851   5.809  49.136  1.00  0.00     0.170 HD
ENDROOT
BRANCH   1  30
HETATM   30  C2  UNL     1      25.711   3.824  50.307  1.00  0.00     0.045 C 
HETATM   31  C1  UNL     1      26.777   3.255  49.483  1.00  0.00     0.012 C 
ENDBRANCH   1  30
BRANCH  16  32
HETATM   32  O1  UNL     1      15.435   2.541  49.415  1.00  0.00    -0.396 OA
HETATM   33  C16 UNL     1      14.257   2.131  50.132  1.00  0.00     0.201 C 
ENDBRANCH  16  32
TORSDOF 2
ENDMDL
MODEL 9
REMARK VINA RESULT:      -7.4      4.004      6.577
REMARK  2 active torsions:
REMARK  status: ('A' for Active; 'I' for Inactive)
REMARK    1  A    between atoms: C2_2  and  C3_3 
REMARK    2  A    between atoms: C15_18  and  O1_19 
ROOT
HETATM    1  C3  UNL     1      28.424   6.501  48.043  1.00  0.00     0.018 C 
HETATM    2  C4  UNL     1      27.835   5.450  48.582  1.00  0.00     0.025 C 
HETATM    3  C5  UNL     1      27.063   4.431  49.199  1.00  0.00     0.002 C 
HETATM    4  C6  UNL     1      25.869   4.401  49.782  1.00  0.00     0.007 C 
HETATM    5  C7  UNL     1      25.295   3.264  50.298  1.00  0.00    -0.052 C 
HETATM    6  C8  UNL     1      25.223   2.402  51.218  1.00  0.00     0.009 C 
HETATM    7  C9  UNL     1      23.835   1.907  51.586  1.00  0.00     0.025 C 
HETATM    8  C10 UNL     1      23.105   2.656  50.653  1.00  0.00     0.010 C 
HETATM    9  C11 UNL     1      24.048   2.862  49.494  1.00  0.00     0.095 C 
HETATM   10  N1  UNL     1      21.735   2.880  51.169  1.00  0.00    -0.376 N 
HETATM   11  C12 UNL     1      21.108   4.158  50.767  1.00  0.00     0.263 C 
HETATM   12  N2  UNL     1      22.309   4.944  50.364  1.00  0.00    -0.297 N 
HETATM   13  N3  UNL     1      21.954   6.135  49.948  1.00  0.00    -0.194 NA
HETATM   14  C13 UNL     1      20.786   6.680  49.714  1.00  0.00     0.119 C 
HETATM   15  C14 UNL     1      19.950   7.911  49.250  1.00  0.00     0.127 C 
HETATM   16  C15 UNL     1      20.989   8.935  48.754  1.00  0.00     0.025 C 
HETATM   17  C17 UNL     1      22.682   8.610  48.765  1.00  0.00     0.088 C 
HETATM   18  C18 UNL     1      22.743   9.914  48.210  1.00  0.00     0.023 C 
HETATM   19  C19 UNL     1      23.729  10.919  47.684  1.00  0.00     0.175 C 
HETATM   20  O2  UNL     1      24.994  10.267  47.792  1.00  0.00    -0.372 OA
HETATM   21  C20 UNL     1      25.902  10.855  46.985  1.00  0.00     0.294 C 
HETATM   22  N4  UNL     1      27.212  10.219  47.274  1.00  0.00    -0.322 N 
HETATM   23  C21 UNL     1      27.241   8.871  47.494  1.00  0.00     0.322 C 
HETATM   24  O3  UNL     1      26.275   8.177  47.561  1.00  0.00    -0.247 OA
HETATM   25  N5  UNL     1      28.168   7.850  47.716  1.00  0.00    -0.312 N 
HETATM   26  H11 UNL     1      21.168   2.245  51.755  1.00  0.00     0.161 HD
HETATM   27  H14 UNL     1      23.070   5.586  50.062  1.00  0.00     0.184 HD
HETATM   28  H26 UNL     1      28.222  10.350  47.434  1.00  0.00     0.166 HD
HETATM   29  H27 UNL     1      29.005   8.385  47.487  1.00  0.00     0.170 HD
ENDROOT
BRANCH   1  30
HETATM   30  C2  UNL     1      29.472   5.483  47.848  1.00  0.00     0.045 C 
HETATM   31  C1  UNL     1      30.932   5.402  47.834  1.00  0.00     0.012 C 
ENDBRANCH   1  30
BRANCH  16  32
HETATM   32  O1  UNL     1      20.179  10.116  48.316  1.00  0.00    -0.396 OA
HETATM   33  C16 UNL     1      19.044  10.286  49.183  1.00  0.00     0.201 C 
ENDBRANCH  16  32
TORSDOF 2
ENDMDL
