MODEL 1
REMARK VINA RESULT:      -7.9      0.000      0.000
REMARK  7 active torsions:
REMARK  status: ('A' for Active; 'I' for Inactive)
REMARK    1  A    between atoms: N2_11  and  C9_12 
REMARK    2  A    between atoms: C10_13  and  C11_14 
REMARK    3  A    between atoms: C11_14  and  N3_15 
REMARK    4  A    between atoms: N3_15  and  C12_16 
REMARK    5  A    between atoms: C15_19  and  S1_20 
REMARK    6  A    between atoms: S1_20  and  N4_23 
REMARK    7  A    between atoms: N4_23  and  C16_24 
ROOT
HETATM    1  N3  UNL     1      20.407  -0.097  54.055  1.00  0.00    -0.385 N 
HETATM    2  H16 UNL     1      20.236   0.555  54.827  1.00  0.00     0.160 HD
ENDROOT
BRANCH   1   3
HETATM    3  C11 UNL     1      21.441  -1.115  53.819  1.00  0.00     0.148 C 
BRANCH   3   4
HETATM    4  C10 UNL     1      22.199  -1.377  55.065  1.00  0.00     0.012 C 
HETATM    5  C9  UNL     1      23.477  -1.244  55.345  1.00  0.00     0.113 C 
BRANCH   5   6
HETATM    6  N2  UNL     1      24.423  -0.785  54.403  1.00  0.00    -0.249 N 
HETATM    7  N1  UNL     1      24.779   0.121  53.352  1.00  0.00    -0.249 N 
HETATM    8  C6  UNL     1      25.141   1.028  52.298  1.00  0.00     0.112 C 
HETATM    9  C7  UNL     1      25.772  -0.901  53.794  1.00  0.00     0.372 A 
HETATM   10  C5  UNL     1      26.272   1.596  51.947  1.00  0.00    -0.002 C 
HETATM   11  C4  UNL     1      27.339   1.167  52.885  1.00  0.00     0.022 C 
HETATM   12  C3  UNL     1      28.663   1.357  53.045  1.00  0.00     0.005 C 
HETATM   13  C2  UNL     1      29.009   0.567  54.276  1.00  0.00     0.011 C 
HETATM   14  C1  UNL     1      29.782  -0.647  53.744  1.00  0.00     0.012 C 
HETATM   15  C8  UNL     1      27.745   0.064  54.962  1.00  0.00     0.177 C 
HETATM   16  O1  UNL     1      26.764  -0.412  54.383  1.00  0.00    -0.346 OA
ENDBRANCH   5   6
ENDBRANCH   3   4
ENDBRANCH   1   3
BRANCH   1  17
HETATM   17  C12 UNL     1      19.505  -0.090  52.922  1.00  0.00     0.051 A 
HETATM   18  C13 UNL     1      18.320  -0.596  52.550  1.00  0.00     0.032 A 
HETATM   19  C14 UNL     1      18.391   0.047  51.245  1.00  0.00     0.030 A 
HETATM   20  C15 UNL     1      19.580   0.561  51.606  1.00  0.00     0.105 A 
BRANCH  20  21
HETATM   21  S1  UNL     1      20.794   1.586  50.875  1.00  0.00     0.261 S 
HETATM   22  O2  UNL     1      21.790   0.675  50.170  1.00  0.00    -0.200 OA
HETATM   23  O3  UNL     1      20.141   2.382  49.778  1.00  0.00    -0.200 OA
BRANCH  21  24
HETATM   24  N4  UNL     1      21.610   2.540  52.008  1.00  0.00    -0.307 N 
HETATM   25  H19 UNL     1      21.258   2.554  52.969  1.00  0.00     0.173 HD
BRANCH  24  26
HETATM   26  C16 UNL     1      22.285   3.692  51.528  1.00  0.00     0.029 C 
HETATM   27  C17 UNL     1      23.041   3.539  50.251  1.00  0.00     0.038 C 
HETATM   28  C18 UNL     1      23.301   4.151  52.589  1.00  0.00     0.038 C 
HETATM   29  C19 UNL     1      21.246   4.806  51.351  1.00  0.00     0.038 C 
ENDBRANCH  24  26
ENDBRANCH  21  24
ENDBRANCH  20  21
ENDBRANCH   1  17
TORSDOF 7
ENDMDL
MODEL 2
REMARK VINA RESULT:      -7.8      2.355      3.091
REMARK  7 active torsions:
REMARK  status: ('A' for Active; 'I' for Inactive)
REMARK    1  A    between atoms: N2_11  and  C9_12 
REMARK    2  A    between atoms: C10_13  and  C11_14 
REMARK    3  A    between atoms: C11_14  and  N3_15 
REMARK    4  A    between atoms: N3_15  and  C12_16 
REMARK    5  A    between atoms: C15_19  and  S1_20 
REMARK    6  A    between atoms: S1_20  and  N4_23 
REMARK    7  A    between atoms: N4_23  and  C16_24 
ROOT
HETATM    1  N3  UNL     1      21.931   1.442  52.492  1.00  0.00    -0.385 N 
HETATM    2  H16 UNL     1      22.046   2.139  53.234  1.00  0.00     0.160 HD
ENDROOT
BRANCH   1   3
HETATM    3  C11 UNL     1      21.552   0.022  52.507  1.00  0.00     0.148 C 
BRANCH   3   4
HETATM    4  C10 UNL     1      22.001  -0.617  53.767  1.00  0.00     0.012 C 
HETATM    5  C9  UNL     1      23.206  -0.828  54.249  1.00  0.00     0.113 C 
BRANCH   5   6
HETATM    6  N2  UNL     1      24.381  -0.440  53.569  1.00  0.00    -0.249 N 
HETATM    7  N1  UNL     1      25.068   0.491  52.725  1.00  0.00    -0.249 N 
HETATM    8  C6  UNL     1      25.762   1.423  51.880  1.00  0.00     0.112 C 
HETATM    9  C7  UNL     1      25.798  -0.713  53.220  1.00  0.00     0.372 A 
HETATM   10  C5  UNL     1      27.008   1.834  51.824  1.00  0.00    -0.002 C 
HETATM   11  C4  UNL     1      27.788   1.155  52.890  1.00  0.00     0.022 C 
HETATM   12  C3  UNL     1      29.063   1.116  53.322  1.00  0.00     0.005 C 
HETATM   13  C2  UNL     1      29.034   0.170  54.489  1.00  0.00     0.011 C 
HETATM   14  C1  UNL     1      29.727  -1.096  53.970  1.00  0.00     0.012 C 
HETATM   15  C8  UNL     1      27.599  -0.186  54.854  1.00  0.00     0.177 C 
HETATM   16  O1  UNL     1      26.703  -0.444  54.044  1.00  0.00    -0.346 OA
ENDBRANCH   5   6
ENDBRANCH   3   4
ENDBRANCH   1   3
BRANCH   1  17
HETATM   17  C12 UNL     1      22.171   1.837  51.119  1.00  0.00     0.051 A 
HETATM   18  C13 UNL     1      21.999   1.374  49.873  1.00  0.00     0.032 A 
HETATM   19  C14 UNL     1      22.590   2.568  49.286  1.00  0.00     0.030 A 
HETATM   20  C15 UNL     1      22.768   3.045  50.530  1.00  0.00     0.105 A 
BRANCH  20  21
HETATM   21  S1  UNL     1      23.435   4.491  51.252  1.00  0.00     0.261 S 
HETATM   22  O2  UNL     1      22.576   5.662  50.794  1.00  0.00    -0.200 OA
HETATM   23  O3  UNL     1      23.230   4.411  52.742  1.00  0.00    -0.200 OA
BRANCH  21  24
HETATM   24  N4  UNL     1      25.043   4.763  50.805  1.00  0.00    -0.307 N 
HETATM   25  H19 UNL     1      25.764   4.679  51.526  1.00  0.00     0.173 HD
BRANCH  24  26
HETATM   26  C16 UNL     1      25.280   5.651  49.724  1.00  0.00     0.029 C 
HETATM   27  C17 UNL     1      24.216   5.730  48.680  1.00  0.00     0.038 C 
HETATM   28  C18 UNL     1      26.572   5.225  49.005  1.00  0.00     0.038 C 
HETATM   29  C19 UNL     1      25.499   7.052  50.306  1.00  0.00     0.038 C 
ENDBRANCH  24  26
ENDBRANCH  21  24
ENDBRANCH  20  21
ENDBRANCH   1  17
TORSDOF 7
ENDMDL
MODEL 3
REMARK VINA RESULT:      -7.7      1.588      1.988
REMARK  7 active torsions:
REMARK  status: ('A' for Active; 'I' for Inactive)
REMARK    1  A    between atoms: N2_11  and  C9_12 
REMARK    2  A    between atoms: C10_13  and  C11_14 
REMARK    3  A    between atoms: C11_14  and  N3_15 
REMARK    4  A    between atoms: N3_15  and  C12_16 
REMARK    5  A    between atoms: C15_19  and  S1_20 
REMARK    6  A    between atoms: S1_20  and  N4_23 
REMARK    7  A    between atoms: N4_23  and  C16_24 
ROOT
HETATM    1  N3  UNL     1      21.149  -0.184  52.430  1.00  0.00    -0.385 N 
HETATM    2  H16 UNL     1      21.740  -0.837  51.907  1.00  0.00     0.160 HD
ENDROOT
BRANCH   1   3
HETATM    3  C11 UNL     1      21.223   0.356  53.795  1.00  0.00     0.148 C 
BRANCH   3   4
HETATM    4  C10 UNL     1      21.814  -0.646  54.713  1.00  0.00     0.012 C 
HETATM    5  C9  UNL     1      23.046  -1.090  54.832  1.00  0.00     0.113 C 
BRANCH   5   6
HETATM    6  N2  UNL     1      24.105  -0.636  54.018  1.00  0.00    -0.249 N 
HETATM    7  N1  UNL     1      24.607   0.294  53.049  1.00  0.00    -0.249 N 
HETATM    8  C6  UNL     1      25.115   1.223  52.079  1.00  0.00     0.112 C 
HETATM    9  C7  UNL     1      25.508  -0.783  53.554  1.00  0.00     0.372 A 
HETATM   10  C5  UNL     1      26.297   1.759  51.876  1.00  0.00    -0.002 C 
HETATM   11  C4  UNL     1      27.238   1.253  52.906  1.00  0.00     0.022 C 
HETATM   12  C3  UNL     1      28.542   1.384  53.217  1.00  0.00     0.005 C 
HETATM   13  C2  UNL     1      28.723   0.536  54.444  1.00  0.00     0.011 C 
HETATM   14  C1  UNL     1      29.506  -0.687  53.950  1.00  0.00     0.012 C 
HETATM   15  C8  UNL     1      27.374   0.060  54.968  1.00  0.00     0.177 C 
HETATM   16  O1  UNL     1      26.446  -0.355  54.268  1.00  0.00    -0.346 OA
ENDBRANCH   5   6
ENDBRANCH   3   4
ENDBRANCH   1   3
BRANCH   1  17
HETATM   17  C12 UNL     1      19.978   0.370  51.782  1.00  0.00     0.051 A 
HETATM   18  C13 UNL     1      18.712   0.037  51.489  1.00  0.00     0.032 A 
HETATM   19  C14 UNL     1      18.464   1.319  50.843  1.00  0.00     0.030 A 
HETATM   20  C15 UNL     1      19.730   1.666  51.131  1.00  0.00     0.105 A 
BRANCH  20  21
HETATM   21  S1  UNL     1      20.756   3.059  50.872  1.00  0.00     0.261 S 
HETATM   22  O2  UNL     1      20.099   4.240  51.573  1.00  0.00    -0.200 OA
HETATM   23  O3  UNL     1      22.051   2.834  51.606  1.00  0.00    -0.200 OA
BRANCH  21  24
HETATM   24  N4  UNL     1      20.963   3.421  49.233  1.00  0.00    -0.307 N 
HETATM   25  H19 UNL     1      20.167   3.814  48.722  1.00  0.00     0.173 HD
BRANCH  24  26
HETATM   26  C16 UNL     1      21.907   2.651  48.507  1.00  0.00     0.029 C 
HETATM   27  C17 UNL     1      21.738   1.169  48.554  1.00  0.00     0.038 C 
HETATM   28  C18 UNL     1      23.315   2.951  49.049  1.00  0.00     0.038 C 
HETATM   29  C19 UNL     1      21.855   3.102  47.042  1.00  0.00     0.038 C 
ENDBRANCH  24  26
ENDBRANCH  21  24
ENDBRANCH  20  21
ENDBRANCH   1  17
TORSDOF 7
ENDMDL
MODEL 4
REMARK VINA RESULT:      -7.7      3.200      7.096
REMARK  7 active torsions:
REMARK  status: ('A' for Active; 'I' for Inactive)
REMARK    1  A    between atoms: N2_11  and  C9_12 
REMARK    2  A    between atoms: C10_13  and  C11_14 
REMARK    3  A    between atoms: C11_14  and  N3_15 
REMARK    4  A    between atoms: N3_15  and  C12_16 
REMARK    5  A    between atoms: C15_19  and  S1_20 
REMARK    6  A    between atoms: S1_20  and  N4_23 
REMARK    7  A    between atoms: N4_23  and  C16_24 
ROOT
HETATM    1  N3  UNL     1      23.342   0.679  52.095  1.00  0.00    -0.385 N 
HETATM    2  H16 UNL     1      23.591  -0.287  51.860  1.00  0.00     0.160 HD
ENDROOT
BRANCH   1   3
HETATM    3  C11 UNL     1      22.160   1.503  51.805  1.00  0.00     0.148 C 
BRANCH   3   4
HETATM    4  C10 UNL     1      21.872   1.497  50.351  1.00  0.00     0.012 C 
HETATM    5  C9  UNL     1      22.451   2.125  49.351  1.00  0.00     0.113 C 
BRANCH   5   6
HETATM    6  N2  UNL     1      23.549   2.995  49.527  1.00  0.00    -0.249 N 
HETATM    7  N1  UNL     1      24.964   3.218  49.501  1.00  0.00    -0.249 N 
HETATM    8  C6  UNL     1      26.382   3.446  49.477  1.00  0.00     0.112 C 
HETATM    9  C7  UNL     1      24.060   4.346  49.872  1.00  0.00     0.372 A 
HETATM   10  C5  UNL     1      27.122   4.485  49.163  1.00  0.00    -0.002 C 
HETATM   11  C4  UNL     1      26.236   5.604  48.757  1.00  0.00     0.022 C 
HETATM   12  C3  UNL     1      26.363   6.888  48.371  1.00  0.00     0.005 C 
HETATM   13  C2  UNL     1      24.953   7.345  48.119  1.00  0.00     0.011 C 
HETATM   14  C1  UNL     1      24.640   8.280  49.294  1.00  0.00     0.012 C 
HETATM   15  C8  UNL     1      23.990   6.166  48.177  1.00  0.00     0.177 C 
HETATM   16  O1  UNL     1      24.026   5.260  49.015  1.00  0.00    -0.346 OA
ENDBRANCH   5   6
ENDBRANCH   3   4
ENDBRANCH   1   3
BRANCH   1  17
HETATM   17  C12 UNL     1      24.279   1.475  52.860  1.00  0.00     0.051 A 
HETATM   18  C13 UNL     1      24.554   2.759  53.131  1.00  0.00     0.032 A 
HETATM   19  C14 UNL     1      25.674   2.398  53.988  1.00  0.00     0.030 A 
HETATM   20  C15 UNL     1      25.410   1.107  53.726  1.00  0.00     0.105 A 
BRANCH  20  21
HETATM   21  S1  UNL     1      26.083  -0.444  54.174  1.00  0.00     0.261 S 
HETATM   22  O2  UNL     1      25.196  -1.022  55.268  1.00  0.00    -0.200 OA
HETATM   23  O3  UNL     1      25.930  -1.380  53.005  1.00  0.00    -0.200 OA
BRANCH  21  24
HETATM   24  N4  UNL     1      27.671  -0.326  54.742  1.00  0.00    -0.307 N 
HETATM   25  H19 UNL     1      27.815  -0.171  55.743  1.00  0.00     0.173 HD
BRANCH  24  26
HETATM   26  C16 UNL     1      28.653   0.166  53.843  1.00  0.00     0.029 C 
HETATM   27  C17 UNL     1      28.195   0.470  52.456  1.00  0.00     0.038 C 
HETATM   28  C18 UNL     1      29.779  -0.875  53.717  1.00  0.00     0.038 C 
HETATM   29  C19 UNL     1      29.249   1.441  54.451  1.00  0.00     0.038 C 
ENDBRANCH  24  26
ENDBRANCH  21  24
ENDBRANCH  20  21
ENDBRANCH   1  17
TORSDOF 7
ENDMDL
MODEL 5
REMARK VINA RESULT:      -7.7      4.669      7.422
REMARK  7 active torsions:
REMARK  status: ('A' for Active; 'I' for Inactive)
REMARK    1  A    between atoms: N2_11  and  C9_12 
REMARK    2  A    between atoms: C10_13  and  C11_14 
REMARK    3  A    between atoms: C11_14  and  N3_15 
REMARK    4  A    between atoms: N3_15  and  C12_16 
REMARK    5  A    between atoms: C15_19  and  S1_20 
REMARK    6  A    between atoms: S1_20  and  N4_23 
REMARK    7  A    between atoms: N4_23  and  C16_24 
ROOT
HETATM    1  N3  UNL     1      24.704   2.898  53.072  1.00  0.00    -0.385 N 
HETATM    2  H16 UNL     1      25.233   3.182  53.903  1.00  0.00     0.160 HD
ENDROOT
BRANCH   1   3
HETATM    3  C11 UNL     1      24.464   3.543  51.773  1.00  0.00     0.148 C 
BRANCH   3   4
HETATM    4  C10 UNL     1      25.238   2.861  50.709  1.00  0.00     0.012 C 
HETATM    5  C9  UNL     1      25.925   3.342  49.696  1.00  0.00     0.113 C 
BRANCH   5   6
HETATM    6  N2  UNL     1      26.042   4.725  49.438  1.00  0.00    -0.249 N 
HETATM    7  N1  UNL     1      25.899   6.080  49.881  1.00  0.00    -0.249 N 
HETATM    8  C6  UNL     1      25.758   7.440  50.320  1.00  0.00     0.112 C 
HETATM    9  C7  UNL     1      26.406   5.819  48.502  1.00  0.00     0.372 A 
HETATM   10  C5  UNL     1      26.435   8.539  50.081  1.00  0.00    -0.002 C 
HETATM   11  C4  UNL     1      27.562   8.222  49.168  1.00  0.00     0.022 C 
HETATM   12  C3  UNL     1      28.558   8.881  48.546  1.00  0.00     0.005 C 
HETATM   13  C2  UNL     1      29.300   7.815  47.791  1.00  0.00     0.011 C 
HETATM   14  C1  UNL     1      28.930   8.060  46.323  1.00  0.00     0.012 C 
HETATM   15  C8  UNL     1      28.796   6.432  48.185  1.00  0.00     0.177 C 
HETATM   16  O1  UNL     1      27.611   6.127  48.347  1.00  0.00    -0.346 OA
ENDBRANCH   5   6
ENDBRANCH   3   4
ENDBRANCH   1   3
BRANCH   1  17
HETATM   17  C12 UNL     1      24.016   1.623  53.084  1.00  0.00     0.051 A 
HETATM   18  C13 UNL     1      22.853   1.080  52.696  1.00  0.00     0.032 A 
HETATM   19  C14 UNL     1      23.232  -0.232  53.200  1.00  0.00     0.030 A 
HETATM   20  C15 UNL     1      24.403   0.298  53.594  1.00  0.00     0.105 A 
BRANCH  20  21
HETATM   21  S1  UNL     1      25.848  -0.270  54.397  1.00  0.00     0.261 S 
HETATM   22  O2  UNL     1      25.417  -0.885  55.722  1.00  0.00    -0.200 OA
HETATM   23  O3  UNL     1      26.414  -1.412  53.597  1.00  0.00    -0.200 OA
BRANCH  21  24
HETATM   24  N4  UNL     1      26.963   0.969  54.688  1.00  0.00    -0.307 N 
HETATM   25  H19 UNL     1      26.635   1.807  55.174  1.00  0.00     0.173 HD
BRANCH  24  26
HETATM   26  C16 UNL     1      28.043   1.104  53.778  1.00  0.00     0.029 C 
HETATM   27  C17 UNL     1      28.664   2.457  53.675  1.00  0.00     0.038 C 
HETATM   28  C18 UNL     1      27.553   0.736  52.367  1.00  0.00     0.038 C 
HETATM   29  C19 UNL     1      29.127   0.098  54.183  1.00  0.00     0.038 C 
ENDBRANCH  24  26
ENDBRANCH  21  24
ENDBRANCH  20  21
ENDBRANCH   1  17
TORSDOF 7
ENDMDL
MODEL 6
REMARK VINA RESULT:      -7.5      3.450      6.828
REMARK  7 active torsions:
REMARK  status: ('A' for Active; 'I' for Inactive)
REMARK    1  A    between atoms: N2_11  and  C9_12 
REMARK    2  A    between atoms: C10_13  and  C11_14 
REMARK    3  A    between atoms: C11_14  and  N3_15 
REMARK    4  A    between atoms: N3_15  and  C12_16 
REMARK    5  A    between atoms: C15_19  and  S1_20 
REMARK    6  A    between atoms: S1_20  and  N4_23 
REMARK    7  A    between atoms: N4_23  and  C16_24 
ROOT
HETATM    1  N3  UNL     1      23.734   1.970  52.530  1.00  0.00    -0.385 N 
HETATM    2  H16 UNL     1      24.693   2.294  52.687  1.00  0.00     0.160 HD
ENDROOT
BRANCH   1   3
HETATM    3  C11 UNL     1      22.625   2.491  51.716  1.00  0.00     0.148 C 
BRANCH   3   4
HETATM    4  C10 UNL     1      22.809   2.116  50.295  1.00  0.00     0.012 C 
HETATM    5  C9  UNL     1      23.171   2.829  49.251  1.00  0.00     0.113 C 
BRANCH   5   6
HETATM    6  N2  UNL     1      23.469   4.207  49.333  1.00  0.00    -0.249 N 
HETATM    7  N1  UNL     1      23.402   5.444  50.052  1.00  0.00    -0.249 N 
HETATM    8  C6  UNL     1      23.337   6.687  50.770  1.00  0.00     0.112 C 
HETATM    9  C7  UNL     1      24.085   5.414  48.726  1.00  0.00     0.372 A 
HETATM   10  C5  UNL     1      24.155   7.710  50.876  1.00  0.00    -0.002 C 
HETATM   11  C4  UNL     1      25.369   7.443  50.064  1.00  0.00     0.022 C 
HETATM   12  C3  UNL     1      26.512   8.078  49.741  1.00  0.00     0.005 C 
HETATM   13  C2  UNL     1      27.245   7.104  48.862  1.00  0.00     0.011 C 
HETATM   14  C1  UNL     1      27.133   7.703  47.454  1.00  0.00     0.012 C 
HETATM   15  C8  UNL     1      26.546   5.751  48.863  1.00  0.00     0.177 C 
HETATM   16  O1  UNL     1      25.324   5.582  48.799  1.00  0.00    -0.346 OA
ENDBRANCH   5   6
ENDBRANCH   3   4
ENDBRANCH   1   3
BRANCH   1  17
HETATM   17  C12 UNL     1      23.283   0.768  53.201  1.00  0.00     0.051 A 
HETATM   18  C13 UNL     1      22.159   0.067  53.407  1.00  0.00     0.032 A 
HETATM   19  C14 UNL     1      22.860  -0.934  54.198  1.00  0.00     0.030 A 
HETATM   20  C15 UNL     1      23.995  -0.242  53.999  1.00  0.00     0.105 A 
BRANCH  20  21
HETATM   21  S1  UNL     1      25.674  -0.395  54.464  1.00  0.00     0.261 S 
HETATM   22  O2  UNL     1      25.701  -0.882  55.906  1.00  0.00    -0.200 OA
HETATM   23  O3  UNL     1      26.286  -1.509  53.658  1.00  0.00    -0.200 OA
BRANCH  21  24
HETATM   24  N4  UNL     1      26.519   1.066  54.347  1.00  0.00    -0.307 N 
HETATM   25  H19 UNL     1      26.012   1.933  54.545  1.00  0.00     0.173 HD
BRANCH  24  26
HETATM   26  C16 UNL     1      27.607   1.121  53.439  1.00  0.00     0.029 C 
HETATM   27  C17 UNL     1      28.664   0.079  53.598  1.00  0.00     0.038 C 
HETATM   28  C18 UNL     1      28.308   2.484  53.585  1.00  0.00     0.038 C 
HETATM   29  C19 UNL     1      27.039   1.028  52.018  1.00  0.00     0.038 C 
ENDBRANCH  24  26
ENDBRANCH  21  24
ENDBRANCH  20  21
ENDBRANCH   1  17
TORSDOF 7
ENDMDL
MODEL 7
REMARK VINA RESULT:      -7.5      6.625      9.867
REMARK  7 active torsions:
REMARK  status: ('A' for Active; 'I' for Inactive)
REMARK    1  A    between atoms: N2_11  and  C9_12 
REMARK    2  A    between atoms: C10_13  and  C11_14 
REMARK    3  A    between atoms: C11_14  and  N3_15 
REMARK    4  A    between atoms: N3_15  and  C12_16 
REMARK    5  A    between atoms: C15_19  and  S1_20 
REMARK    6  A    between atoms: S1_20  and  N4_23 
REMARK    7  A    between atoms: N4_23  and  C16_24 
ROOT
HETATM    1  N3  UNL     1      28.475   5.520  49.028  1.00  0.00    -0.385 N 
HETATM    2  H16 UNL     1      29.036   5.301  49.857  1.00  0.00     0.160 HD
ENDROOT
BRANCH   1   3
HETATM    3  C11 UNL     1      27.146   5.081  48.578  1.00  0.00     0.148 C 
BRANCH   3   4
HETATM    4  C10 UNL     1      26.089   5.706  49.406  1.00  0.00     0.012 C 
HETATM    5  C9  UNL     1      25.266   5.192  50.293  1.00  0.00     0.113 C 
BRANCH   5   6
HETATM    6  N2  UNL     1      25.261   3.820  50.626  1.00  0.00    -0.249 N 
HETATM    7  N1  UNL     1      25.955   2.666  51.116  1.00  0.00    -0.249 N 
HETATM    8  C6  UNL     1      26.646   1.506  51.607  1.00  0.00     0.112 C 
HETATM    9  C7  UNL     1      24.522   2.535  50.721  1.00  0.00     0.372 A 
HETATM   10  C5  UNL     1      26.273   0.470  52.323  1.00  0.00    -0.002 C 
HETATM   11  C4  UNL     1      24.833   0.609  52.657  1.00  0.00     0.022 C 
HETATM   12  C3  UNL     1      23.887  -0.096  53.307  1.00  0.00     0.005 C 
HETATM   13  C2  UNL     1      22.653   0.755  53.211  1.00  0.00     0.011 C 
HETATM   14  C1  UNL     1      21.761   0.021  52.203  1.00  0.00     0.012 C 
HETATM   15  C8  UNL     1      22.992   2.126  52.639  1.00  0.00     0.177 C 
HETATM   16  O1  UNL     1      23.754   2.331  51.690  1.00  0.00    -0.346 OA
ENDBRANCH   5   6
ENDBRANCH   3   4
ENDBRANCH   1   3
BRANCH   1  17
HETATM   17  C12 UNL     1      29.014   6.433  48.041  1.00  0.00     0.051 A 
HETATM   18  C13 UNL     1      28.600   7.368  47.173  1.00  0.00     0.032 A 
HETATM   19  C14 UNL     1      29.959   7.625  46.716  1.00  0.00     0.030 A 
HETATM   20  C15 UNL     1      30.387   6.690  47.582  1.00  0.00     0.105 A 
BRANCH  20  21
HETATM   21  S1  UNL     1      31.923   5.992  48.039  1.00  0.00     0.261 S 
HETATM   22  O2  UNL     1      32.769   7.109  48.635  1.00  0.00    -0.200 OA
HETATM   23  O3  UNL     1      31.685   5.030  49.172  1.00  0.00    -0.200 OA
BRANCH  21  24
HETATM   24  N4  UNL     1      32.743   5.303  46.730  1.00  0.00    -0.307 N 
HETATM   25  H19 UNL     1      32.284   5.311  45.816  1.00  0.00     0.173 HD
BRANCH  24  26
HETATM   26  C16 UNL     1      33.655   4.253  47.009  1.00  0.00     0.029 C 
HETATM   27  C17 UNL     1      34.647   4.501  48.096  1.00  0.00     0.038 C 
HETATM   28  C18 UNL     1      34.465   3.947  45.737  1.00  0.00     0.038 C 
HETATM   29  C19 UNL     1      32.840   3.004  47.366  1.00  0.00     0.038 C 
ENDBRANCH  24  26
ENDBRANCH  21  24
ENDBRANCH  20  21
ENDBRANCH   1  17
TORSDOF 7
ENDMDL
MODEL 8
REMARK VINA RESULT:      -7.3      2.843      7.560
REMARK  7 active torsions:
REMARK  status: ('A' for Active; 'I' for Inactive)
REMARK    1  A    between atoms: N2_11  and  C9_12 
REMARK    2  A    between atoms: C10_13  and  C11_14 
REMARK    3  A    between atoms: C11_14  and  N3_15 
REMARK    4  A    between atoms: N3_15  and  C12_16 
REMARK    5  A    between atoms: C15_19  and  S1_20 
REMARK    6  A    between atoms: S1_20  and  N4_23 
REMARK    7  A    between atoms: N4_23  and  C16_24 
ROOT
HETATM    1  N3  UNL     1      24.516   5.876  51.286  1.00  0.00    -0.385 N 
HETATM    2  H16 UNL     1      24.379   5.737  52.292  1.00  0.00     0.160 HD
ENDROOT
BRANCH   1   3
HETATM    3  C11 UNL     1      24.186   6.983  50.378  1.00  0.00     0.148 C 
BRANCH   3   4
HETATM    4  C10 UNL     1      22.809   7.467  50.634  1.00  0.00     0.012 C 
HETATM    5  C9  UNL     1      21.640   6.915  50.398  1.00  0.00     0.113 C 
BRANCH   5   6
HETATM    6  N2  UNL     1      21.500   5.644  49.799  1.00  0.00    -0.249 N 
HETATM    7  N1  UNL     1      21.967   4.661  48.867  1.00  0.00    -0.249 N 
HETATM    8  C6  UNL     1      22.430   3.672  47.934  1.00  0.00     0.112 C 
HETATM    9  C7  UNL     1      20.758   4.363  49.690  1.00  0.00     0.372 A 
HETATM   10  C5  UNL     1      22.441   2.359  47.944  1.00  0.00    -0.002 C 
HETATM   11  C4  UNL     1      21.842   1.881  49.215  1.00  0.00     0.022 C 
HETATM   12  C3  UNL     1      21.544   0.704  49.798  1.00  0.00     0.005 C 
HETATM   13  C2  UNL     1      20.952   1.082  51.126  1.00  0.00     0.011 C 
HETATM   14  C1  UNL     1      19.455   0.786  50.975  1.00  0.00     0.012 C 
HETATM   15  C8  UNL     1      21.120   2.575  51.381  1.00  0.00     0.177 C 
HETATM   16  O1  UNL     1      20.945   3.463  50.542  1.00  0.00    -0.346 OA
ENDBRANCH   5   6
ENDBRANCH   3   4
ENDBRANCH   1   3
BRANCH   1  17
HETATM   17  C12 UNL     1      25.148   4.824  50.516  1.00  0.00     0.051 A 
HETATM   18  C13 UNL     1      25.691   4.622  49.307  1.00  0.00     0.032 A 
HETATM   19  C14 UNL     1      25.999   3.233  49.615  1.00  0.00     0.030 A 
HETATM   20  C15 UNL     1      25.458   3.421  50.830  1.00  0.00     0.105 A 
BRANCH  20  21
HETATM   21  S1  UNL     1      25.181   2.455  52.261  1.00  0.00     0.261 S 
HETATM   22  O2  UNL     1      24.202   3.220  53.141  1.00  0.00    -0.200 OA
HETATM   23  O3  UNL     1      24.450   1.204  51.851  1.00  0.00    -0.200 OA
BRANCH  21  24
HETATM   24  N4  UNL     1      26.600   2.153  53.130  1.00  0.00    -0.307 N 
HETATM   25  H19 UNL     1      27.343   2.857  53.098  1.00  0.00     0.173 HD
BRANCH  24  26
HETATM   26  C16 UNL     1      26.972   0.798  53.326  1.00  0.00     0.029 C 
HETATM   27  C17 UNL     1      26.786  -0.120  52.164  1.00  0.00     0.038 C 
HETATM   28  C18 UNL     1      26.142   0.217  54.483  1.00  0.00     0.038 C 
HETATM   29  C19 UNL     1      28.449   0.771  53.738  1.00  0.00     0.038 C 
ENDBRANCH  24  26
ENDBRANCH  21  24
ENDBRANCH  20  21
ENDBRANCH   1  17
TORSDOF 7
ENDMDL
MODEL 9
REMARK VINA RESULT:      -7.3      5.277      7.296
REMARK  7 active torsions:
REMARK  status: ('A' for Active; 'I' for Inactive)
REMARK    1  A    between atoms: N2_11  and  C9_12 
REMARK    2  A    between atoms: C10_13  and  C11_14 
REMARK    3  A    between atoms: C11_14  and  N3_15 
REMARK    4  A    between atoms: N3_15  and  C12_16 
REMARK    5  A    between atoms: C15_19  and  S1_20 
REMARK    6  A    between atoms: S1_20  and  N4_23 
REMARK    7  A    between atoms: N4_23  and  C16_24 
ROOT
HETATM    1  N3  UNL     1      25.368   5.250  50.627  1.00  0.00    -0.385 N 
HETATM    2  H16 UNL     1      25.945   4.933  51.412  1.00  0.00     0.160 HD
ENDROOT
BRANCH   1   3
HETATM    3  C11 UNL     1      24.512   4.538  49.667  1.00  0.00     0.148 C 
BRANCH   3   4
HETATM    4  C10 UNL     1      23.110   4.512  50.148  1.00  0.00     0.012 C 
HETATM    5  C9  UNL     1      22.542   3.832  51.119  1.00  0.00     0.113 C 
BRANCH   5   6
HETATM    6  N2  UNL     1      23.251   2.926  51.937  1.00  0.00    -0.249 N 
HETATM    7  N1  UNL     1      23.396   1.611  52.486  1.00  0.00    -0.249 N 
HETATM    8  C6  UNL     1      23.544   0.293  53.040  1.00  0.00     0.112 C 
HETATM    9  C7  UNL     1      24.394   2.659  52.847  1.00  0.00     0.372 A 
HETATM   10  C5  UNL     1      24.588  -0.440  53.353  1.00  0.00    -0.002 C 
HETATM   11  C4  UNL     1      25.824   0.319  53.033  1.00  0.00     0.022 C 
HETATM   12  C3  UNL     1      27.155   0.149  53.143  1.00  0.00     0.005 C 
HETATM   13  C2  UNL     1      27.742   1.406  52.565  1.00  0.00     0.011 C 
HETATM   14  C1  UNL     1      28.271   2.174  53.783  1.00  0.00     0.012 C 
HETATM   15  C8  UNL     1      26.658   2.247  51.903  1.00  0.00     0.177 C 
HETATM   16  O1  UNL     1      25.533   2.450  52.369  1.00  0.00    -0.346 OA
ENDBRANCH   5   6
ENDBRANCH   3   4
ENDBRANCH   1   3
BRANCH   1  17
HETATM   17  C12 UNL     1      25.325   6.664  50.317  1.00  0.00     0.051 A 
HETATM   18  C13 UNL     1      24.594   7.754  50.594  1.00  0.00     0.032 A 
HETATM   19  C14 UNL     1      25.439   8.601  49.765  1.00  0.00     0.030 A 
HETATM   20  C15 UNL     1      26.181   7.517  49.479  1.00  0.00     0.105 A 
BRANCH  20  21
HETATM   21  S1  UNL     1      27.595   7.165  48.512  1.00  0.00     0.261 S 
HETATM   22  O2  UNL     1      27.690   5.650  48.386  1.00  0.00    -0.200 OA
HETATM   23  O3  UNL     1      27.345   7.662  47.114  1.00  0.00    -0.200 OA
BRANCH  21  24
HETATM   24  N4  UNL     1      29.020   7.763  49.198  1.00  0.00    -0.307 N 
HETATM   25  H19 UNL     1      28.943   8.499  49.905  1.00  0.00     0.173 HD
BRANCH  24  26
HETATM   26  C16 UNL     1      30.195   7.721  48.404  1.00  0.00     0.029 C 
HETATM   27  C17 UNL     1      30.405   6.490  47.586  1.00  0.00     0.038 C 
HETATM   28  C18 UNL     1      31.422   7.851  49.324  1.00  0.00     0.038 C 
HETATM   29  C19 UNL     1      30.173   8.933  47.466  1.00  0.00     0.038 C 
ENDBRANCH  24  26
ENDBRANCH  21  24
ENDBRANCH  20  21
ENDBRANCH   1  17
TORSDOF 7
ENDMDL
