MODEL 1
REMARK VINA RESULT:      -8.0      0.000      0.000
REMARK  7 active torsions:
REMARK  status: ('A' for Active; 'I' for Inactive)
REMARK    1  A    between atoms: N1_7  and  C6_8 
REMARK    2  A    between atoms: C6_8  and  C7_9 
REMARK    3  A    between atoms: C7_9  and  N2_10 
REMARK    4  A    between atoms: N2_10  and  C8_11 
REMARK    5  A    between atoms: N2_10  and  C9_13 
REMARK    6  A    between atoms: C9_13  and  N3_14 
REMARK    7  A    between atoms: C14_21  and  C15_22 
ROOT
HETATM    1  C9  UNL     1      23.907   3.814  51.443  1.00  0.00     0.282 A 
HETATM    2  C10 UNL     1      23.142   4.985  50.867  1.00  0.00     0.044 A 
HETATM    3  C11 UNL     1      23.780   5.660  49.927  1.00  0.00     0.033 A 
HETATM    4  C12 UNL     1      25.078   4.971  49.791  1.00  0.00     0.071 A 
HETATM    5  N4  UNL     1      26.012   5.410  48.906  1.00  0.00    -0.241 NA
HETATM    6  C13 UNL     1      27.159   4.693  48.897  1.00  0.00     0.234 A 
HETATM    7  N5  UNL     1      27.294   3.646  49.727  1.00  0.00    -0.241 NA
HETATM    8  C14 UNL     1      26.326   3.251  50.592  1.00  0.00     0.081 A 
HETATM    9  C21 UNL     1      25.142   3.905  50.674  1.00  0.00     0.063 A 
ENDROOT
BRANCH   1  10
HETATM   10  N2  UNL     1      23.153   2.614  51.344  1.00  0.00    -0.316 N 
BRANCH  10  11
HETATM   11  C7  UNL     1      22.646   1.941  52.522  1.00  0.00     0.148 C 
BRANCH  11  12
HETATM   12  C6  UNL     1      21.573   0.913  52.201  1.00  0.00     0.137 C 
BRANCH  12  13
HETATM   13  N1  UNL     1      21.807  -0.342  52.826  1.00  0.00    -0.403 N 
HETATM   14  C2  UNL     1      20.890  -0.775  53.807  1.00  0.00     0.099 C 
HETATM   15  C1  UNL     1      20.557   0.237  54.882  1.00  0.00     0.034 C 
HETATM   16  C3  UNL     1      21.542  -1.955  54.542  1.00  0.00     0.192 C 
HETATM   17  O1  UNL     1      22.537  -1.374  55.323  1.00  0.00    -0.388 OA
HETATM   18  C4  UNL     1      23.475  -0.805  54.513  1.00  0.00     0.187 C 
HETATM   19  C5  UNL     1      23.150  -0.716  53.063  1.00  0.00     0.143 C 
ENDBRANCH  12  13
ENDBRANCH  11  12
ENDBRANCH  10  11
BRANCH  10  20
HETATM   20  C8  UNL     1      22.915   2.092  50.066  1.00  0.00     0.353 C 
HETATM   21  O2  UNL     1      22.196   2.398  49.098  1.00  0.00    -0.283 OA
ENDBRANCH  10  20
ENDBRANCH   1  10
BRANCH   1  22
HETATM   22  N3  UNL     1      24.219   4.173  52.817  1.00  0.00     0.116 N 
HETATM   23  H16 UNL     1      24.867   5.002  52.763  1.00  0.00     0.317 HD
HETATM   24  H17 UNL     1      24.734   3.371  53.223  1.00  0.00     0.317 HD
ENDBRANCH   1  22
BRANCH   8  25
HETATM   25  C15 UNL     1      26.701   2.113  51.411  1.00  0.00    -0.006 A 
HETATM   26  C16 UNL     1      26.314   0.791  51.435  1.00  0.00     0.017 A 
HETATM   27  C17 UNL     1      26.778  -0.141  52.323  1.00  0.00     0.043 A 
HETATM   28  C18 UNL     1      27.690   0.215  53.269  1.00  0.00     0.116 A 
HETATM   29  F1  UNL     1      28.085  -0.782  54.099  1.00  0.00    -0.206 F 
HETATM   30  C19 UNL     1      28.136   1.502  53.325  1.00  0.00     0.043 A 
HETATM   31  C20 UNL     1      27.642   2.410  52.412  1.00  0.00     0.017 A 
ENDBRANCH   8  25
TORSDOF 7
ENDMDL
MODEL 2
REMARK VINA RESULT:      -8.0      3.114      5.104
REMARK  7 active torsions:
REMARK  status: ('A' for Active; 'I' for Inactive)
REMARK    1  A    between atoms: N1_7  and  C6_8 
REMARK    2  A    between atoms: C6_8  and  C7_9 
REMARK    3  A    between atoms: C7_9  and  N2_10 
REMARK    4  A    between atoms: N2_10  and  C8_11 
REMARK    5  A    between atoms: N2_10  and  C9_13 
REMARK    6  A    between atoms: C9_13  and  N3_14 
REMARK    7  A    between atoms: C14_21  and  C15_22 
ROOT
HETATM    1  C9  UNL     1      22.249   3.006  51.822  1.00  0.00     0.282 A 
HETATM    2  C10 UNL     1      21.152   2.103  52.340  1.00  0.00     0.044 A 
HETATM    3  C11 UNL     1      20.632   1.285  51.442  1.00  0.00     0.033 A 
HETATM    4  C12 UNL     1      21.365   1.586  50.197  1.00  0.00     0.071 A 
HETATM    5  N4  UNL     1      21.080   0.929  49.041  1.00  0.00    -0.241 NA
HETATM    6  C13 UNL     1      21.819   1.316  47.977  1.00  0.00     0.234 A 
HETATM    7  N5  UNL     1      22.743   2.280  48.125  1.00  0.00    -0.241 NA
HETATM    8  C14 UNL     1      22.988   2.903  49.305  1.00  0.00     0.081 A 
HETATM    9  C21 UNL     1      22.299   2.585  50.428  1.00  0.00     0.063 A 
ENDROOT
BRANCH   1  10
HETATM   10  N2  UNL     1      23.431   2.867  52.598  1.00  0.00    -0.316 N 
BRANCH  10  11
HETATM   11  C7  UNL     1      23.915   1.566  53.013  1.00  0.00     0.148 C 
BRANCH  11  12
HETATM   12  C6  UNL     1      25.027   1.036  52.123  1.00  0.00     0.137 C 
BRANCH  12  13
HETATM   13  N1  UNL     1      26.283   0.979  52.784  1.00  0.00    -0.403 N 
HETATM   14  C2  UNL     1      27.172  -0.059  52.433  1.00  0.00     0.099 C 
HETATM   15  C1  UNL     1      26.578  -1.451  52.420  1.00  0.00     0.034 C 
HETATM   16  C3  UNL     1      28.272  -0.092  53.505  1.00  0.00     0.192 C 
HETATM   17  O1  UNL     1      27.648  -0.623  54.629  1.00  0.00    -0.388 OA
HETATM   18  C4  UNL     1      26.668   0.228  55.050  1.00  0.00     0.187 C 
HETATM   19  C5  UNL     1      26.324   1.360  54.146  1.00  0.00     0.143 C 
ENDBRANCH  12  13
ENDBRANCH  11  12
ENDBRANCH  10  11
BRANCH  10  20
HETATM   20  C8  UNL     1      24.119   4.032  52.959  1.00  0.00     0.353 C 
HETATM   21  O2  UNL     1      23.879   5.027  53.666  1.00  0.00    -0.283 OA
ENDBRANCH  10  20
ENDBRANCH   1  10
BRANCH   1  22
HETATM   22  N3  UNL     1      21.709   4.355  51.853  1.00  0.00     0.116 N 
HETATM   23  H16 UNL     1      21.836   4.744  50.882  1.00  0.00     0.317 HD
HETATM   24  H17 UNL     1      22.299   4.896  52.510  1.00  0.00     0.317 HD
ENDBRANCH   1  22
BRANCH   8  25
HETATM   25  C15 UNL     1      24.008   3.931  49.225  1.00  0.00    -0.006 A 
HETATM   26  C16 UNL     1      23.978   5.281  48.952  1.00  0.00     0.017 A 
HETATM   27  C17 UNL     1      25.080   6.090  48.901  1.00  0.00     0.043 A 
HETATM   28  C18 UNL     1      26.318   5.572  49.129  1.00  0.00     0.116 A 
HETATM   29  F1  UNL     1      27.342   6.457  49.054  1.00  0.00    -0.206 F 
HETATM   30  C19 UNL     1      26.450   4.244  49.409  1.00  0.00     0.043 A 
HETATM   31  C20 UNL     1      25.314   3.464  49.451  1.00  0.00     0.017 A 
ENDBRANCH   8  25
TORSDOF 7
ENDMDL
MODEL 3
REMARK VINA RESULT:      -7.9      3.004      4.874
REMARK  7 active torsions:
REMARK  status: ('A' for Active; 'I' for Inactive)
REMARK    1  A    between atoms: N1_7  and  C6_8 
REMARK    2  A    between atoms: C6_8  and  C7_9 
REMARK    3  A    between atoms: C7_9  and  N2_10 
REMARK    4  A    between atoms: N2_10  and  C8_11 
REMARK    5  A    between atoms: N2_10  and  C9_13 
REMARK    6  A    between atoms: C9_13  and  N3_14 
REMARK    7  A    between atoms: C14_21  and  C15_22 
ROOT
HETATM    1  C9  UNL     1      23.110   4.114  51.650  1.00  0.00     0.282 A 
HETATM    2  C10 UNL     1      21.725   4.043  52.255  1.00  0.00     0.044 A 
HETATM    3  C11 UNL     1      20.754   4.491  51.479  1.00  0.00     0.033 A 
HETATM    4  C12 UNL     1      21.435   4.920  50.241  1.00  0.00     0.071 A 
HETATM    5  N4  UNL     1      20.733   5.454  49.207  1.00  0.00    -0.241 NA
HETATM    6  C13 UNL     1      21.487   5.815  48.144  1.00  0.00     0.234 A 
HETATM    7  N5  UNL     1      22.817   5.632  48.179  1.00  0.00    -0.241 NA
HETATM    8  C14 UNL     1      23.467   5.092  49.240  1.00  0.00     0.081 A 
HETATM    9  C21 UNL     1      22.799   4.698  50.352  1.00  0.00     0.063 A 
ENDROOT
BRANCH   1  10
HETATM   10  N2  UNL     1      23.740   2.842  51.670  1.00  0.00    -0.316 N 
BRANCH  10  11
HETATM   11  C7  UNL     1      24.854   2.564  52.553  1.00  0.00     0.148 C 
BRANCH  11  12
HETATM   12  C6  UNL     1      25.224   1.089  52.594  1.00  0.00     0.137 C 
BRANCH  12  13
HETATM   13  N1  UNL     1      26.624   0.875  52.706  1.00  0.00    -0.403 N 
HETATM   14  C2  UNL     1      27.079  -0.034  53.685  1.00  0.00     0.099 C 
HETATM   15  C1  UNL     1      26.517   0.167  55.074  1.00  0.00     0.034 C 
HETATM   16  C3  UNL     1      28.595   0.174  53.820  1.00  0.00     0.192 C 
HETATM   17  O1  UNL     1      28.723   1.390  54.484  1.00  0.00    -0.388 OA
HETATM   18  C4  UNL     1      28.224   2.390  53.700  1.00  0.00     0.187 C 
HETATM   19  C5  UNL     1      27.476   1.980  52.480  1.00  0.00     0.143 C 
ENDBRANCH  12  13
ENDBRANCH  11  12
ENDBRANCH  10  11
BRANCH  10  20
HETATM   20  C8  UNL     1      23.256   1.856  50.801  1.00  0.00     0.353 C 
HETATM   21  O2  UNL     1      22.242   1.138  50.744  1.00  0.00    -0.283 OA
ENDBRANCH  10  20
ENDBRANCH   1  10
BRANCH   1  22
HETATM   22  N3  UNL     1      23.833   5.114  52.419  1.00  0.00     0.116 N 
HETATM   23  H16 UNL     1      24.242   4.608  53.248  1.00  0.00     0.317 HD
HETATM   24  H17 UNL     1      23.130   5.795  52.756  1.00  0.00     0.317 HD
ENDBRANCH   1  22
BRANCH   8  25
HETATM   25  C15 UNL     1      24.906   5.015  49.070  1.00  0.00    -0.006 A 
HETATM   26  C16 UNL     1      25.836   4.020  49.278  1.00  0.00     0.017 A 
HETATM   27  C17 UNL     1      27.182   4.157  49.075  1.00  0.00     0.043 A 
HETATM   28  C18 UNL     1      27.687   5.342  48.634  1.00  0.00     0.116 A 
HETATM   29  F1  UNL     1      29.032   5.374  48.466  1.00  0.00    -0.206 F 
HETATM   30  C19 UNL     1      26.845   6.388  48.398  1.00  0.00     0.043 A 
HETATM   31  C20 UNL     1      25.495   6.208  48.616  1.00  0.00     0.017 A 
ENDBRANCH   8  25
TORSDOF 7
ENDMDL
MODEL 4
REMARK VINA RESULT:      -7.8      2.643      5.373
REMARK  7 active torsions:
REMARK  status: ('A' for Active; 'I' for Inactive)
REMARK    1  A    between atoms: N1_7  and  C6_8 
REMARK    2  A    between atoms: C6_8  and  C7_9 
REMARK    3  A    between atoms: C7_9  and  N2_10 
REMARK    4  A    between atoms: N2_10  and  C8_11 
REMARK    5  A    between atoms: N2_10  and  C9_13 
REMARK    6  A    between atoms: C9_13  and  N3_14 
REMARK    7  A    between atoms: C14_21  and  C15_22 
ROOT
HETATM    1  C9  UNL     1      22.917   2.964  50.749  1.00  0.00     0.282 A 
HETATM    2  C10 UNL     1      22.883   4.201  49.879  1.00  0.00     0.044 A 
HETATM    3  C11 UNL     1      21.719   4.825  49.841  1.00  0.00     0.033 A 
HETATM    4  C12 UNL     1      20.840   4.024  50.715  1.00  0.00     0.071 A 
HETATM    5  N4  UNL     1      19.539   4.371  50.905  1.00  0.00    -0.241 NA
HETATM    6  C13 UNL     1      18.849   3.540  51.719  1.00  0.00     0.234 A 
HETATM    7  N5  UNL     1      19.464   2.475  52.259  1.00  0.00    -0.241 NA
HETATM    8  C14 UNL     1      20.768   2.176  52.035  1.00  0.00     0.081 A 
HETATM    9  C21 UNL     1      21.544   2.948  51.235  1.00  0.00     0.063 A 
ENDROOT
BRANCH   1  10
HETATM   10  N2  UNL     1      23.959   3.047  51.711  1.00  0.00    -0.316 N 
BRANCH  10  11
HETATM   11  C7  UNL     1      25.186   2.290  51.564  1.00  0.00     0.148 C 
BRANCH  11  12
HETATM   12  C6  UNL     1      25.944   2.132  52.872  1.00  0.00     0.137 C 
BRANCH  12  13
HETATM   13  N1  UNL     1      26.986   1.170  52.792  1.00  0.00    -0.403 N 
HETATM   14  C2  UNL     1      26.632  -0.196  52.837  1.00  0.00     0.099 C 
HETATM   15  C1  UNL     1      25.703  -0.594  53.962  1.00  0.00     0.034 C 
HETATM   16  C3  UNL     1      27.927  -0.988  53.073  1.00  0.00     0.192 C 
HETATM   17  O1  UNL     1      28.251  -0.738  54.403  1.00  0.00    -0.388 OA
HETATM   18  C4  UNL     1      28.528   0.588  54.561  1.00  0.00     0.187 C 
HETATM   19  C5  UNL     1      28.217   1.484  53.414  1.00  0.00     0.143 C 
ENDBRANCH  12  13
ENDBRANCH  11  12
ENDBRANCH  10  11
BRANCH  10  20
HETATM   20  C8  UNL     1      23.764   3.882  52.818  1.00  0.00     0.353 C 
HETATM   21  O2  UNL     1      23.531   5.091  52.993  1.00  0.00    -0.283 OA
ENDBRANCH  10  20
ENDBRANCH   1  10
BRANCH   1  22
HETATM   22  N3  UNL     1      23.074   1.839  49.842  1.00  0.00     0.116 N 
HETATM   23  H16 UNL     1      23.159   0.982  50.450  1.00  0.00     0.317 HD
HETATM   24  H17 UNL     1      23.969   1.983  49.342  1.00  0.00     0.317 HD
ENDBRANCH   1  22
BRANCH   8  25
HETATM   25  C15 UNL     1      21.214   0.964  52.697  1.00  0.00    -0.006 A 
HETATM   26  C16 UNL     1      21.918  -0.144  52.278  1.00  0.00     0.017 A 
HETATM   27  C17 UNL     1      22.225  -1.217  53.070  1.00  0.00     0.043 A 
HETATM   28  C18 UNL     1      21.829  -1.238  54.373  1.00  0.00     0.116 A 
HETATM   29  F1  UNL     1      22.182  -2.345  55.070  1.00  0.00    -0.206 F 
HETATM   30  C19 UNL     1      21.127  -0.185  54.880  1.00  0.00     0.043 A 
HETATM   31  C20 UNL     1      20.839   0.876  54.049  1.00  0.00     0.017 A 
ENDBRANCH   8  25
TORSDOF 7
ENDMDL
MODEL 5
REMARK VINA RESULT:      -7.8      2.840      6.021
REMARK  7 active torsions:
REMARK  status: ('A' for Active; 'I' for Inactive)
REMARK    1  A    between atoms: N1_7  and  C6_8 
REMARK    2  A    between atoms: C6_8  and  C7_9 
REMARK    3  A    between atoms: C7_9  and  N2_10 
REMARK    4  A    between atoms: N2_10  and  C8_11 
REMARK    5  A    between atoms: N2_10  and  C9_13 
REMARK    6  A    between atoms: C9_13  and  N3_14 
REMARK    7  A    between atoms: C14_21  and  C15_22 
ROOT
HETATM    1  C9  UNL     1      26.734   1.706  53.535  1.00  0.00     0.282 A 
HETATM    2  C10 UNL     1      28.159   2.204  53.448  1.00  0.00     0.044 A 
HETATM    3  C11 UNL     1      29.072   1.261  53.296  1.00  0.00     0.033 A 
HETATM    4  C12 UNL     1      28.304   0.001  53.269  1.00  0.00     0.071 A 
HETATM    5  N4  UNL     1      28.931  -1.197  53.135  1.00  0.00    -0.241 NA
HETATM    6  C13 UNL     1      28.105  -2.268  53.140  1.00  0.00     0.234 A 
HETATM    7  N5  UNL     1      26.781  -2.085  53.273  1.00  0.00    -0.241 NA
HETATM    8  C14 UNL     1      26.207  -0.863  53.404  1.00  0.00     0.081 A 
HETATM    9  C21 UNL     1      26.951   0.270  53.409  1.00  0.00     0.063 A 
ENDROOT
BRANCH   1  10
HETATM   10  N2  UNL     1      25.913   2.338  52.563  1.00  0.00    -0.316 N 
BRANCH  10  11
HETATM   11  C7  UNL     1      24.641   2.933  52.920  1.00  0.00     0.148 C 
BRANCH  11  12
HETATM   12  C6  UNL     1      23.569   2.715  51.864  1.00  0.00     0.137 C 
BRANCH  12  13
HETATM   13  N1  UNL     1      23.077   3.931  51.320  1.00  0.00    -0.403 N 
HETATM   14  C2  UNL     1      22.598   3.917  49.992  1.00  0.00     0.099 C 
HETATM   15  C1  UNL     1      23.516   3.278  48.973  1.00  0.00     0.034 C 
HETATM   16  C3  UNL     1      22.452   5.382  49.551  1.00  0.00     0.192 C 
HETATM   17  O1  UNL     1      23.759   5.825  49.375  1.00  0.00    -0.388 OA
HETATM   18  C4  UNL     1      24.412   5.803  50.573  1.00  0.00     0.187 C 
HETATM   19  C5  UNL     1      23.719   5.130  51.706  1.00  0.00     0.143 C 
ENDBRANCH  12  13
ENDBRANCH  11  12
ENDBRANCH  10  11
BRANCH  10  20
HETATM   20  C8  UNL     1      26.368   2.367  51.239  1.00  0.00     0.353 C 
HETATM   21  O2  UNL     1      26.859   3.225  50.483  1.00  0.00    -0.283 OA
ENDBRANCH  10  20
ENDBRANCH   1  10
BRANCH   1  22
HETATM   22  N3  UNL     1      26.298   1.965  54.897  1.00  0.00     0.116 N 
HETATM   23  H16 UNL     1      25.343   1.529  54.988  1.00  0.00     0.317 HD
HETATM   24  H17 UNL     1      26.206   2.993  54.988  1.00  0.00     0.317 HD
ENDBRANCH   1  22
BRANCH   8  25
HETATM   25  C15 UNL     1      24.765  -0.906  53.563  1.00  0.00    -0.006 A 
HETATM   26  C16 UNL     1      23.708  -0.724  52.698  1.00  0.00     0.017 A 
HETATM   27  C17 UNL     1      22.389  -0.785  53.057  1.00  0.00     0.043 A 
HETATM   28  C18 UNL     1      22.046  -1.041  54.350  1.00  0.00     0.116 A 
HETATM   29  F1  UNL     1      20.714  -1.078  54.601  1.00  0.00    -0.206 F 
HETATM   30  C19 UNL     1      23.023  -1.236  55.280  1.00  0.00     0.043 A 
HETATM   31  C20 UNL     1      24.339  -1.166  54.877  1.00  0.00     0.017 A 
ENDBRANCH   8  25
TORSDOF 7
ENDMDL
MODEL 6
REMARK VINA RESULT:      -7.8      1.948      3.129
REMARK  7 active torsions:
REMARK  status: ('A' for Active; 'I' for Inactive)
REMARK    1  A    between atoms: N1_7  and  C6_8 
REMARK    2  A    between atoms: C6_8  and  C7_9 
REMARK    3  A    between atoms: C7_9  and  N2_10 
REMARK    4  A    between atoms: N2_10  and  C8_11 
REMARK    5  A    between atoms: N2_10  and  C9_13 
REMARK    6  A    between atoms: C9_13  and  N3_14 
REMARK    7  A    between atoms: C14_21  and  C15_22 
ROOT
HETATM    1  C9  UNL     1      23.830   3.192  51.943  1.00  0.00     0.282 A 
HETATM    2  C10 UNL     1      22.895   4.262  51.425  1.00  0.00     0.044 A 
HETATM    3  C11 UNL     1      23.378   4.995  50.437  1.00  0.00     0.033 A 
HETATM    4  C12 UNL     1      24.732   4.456  50.203  1.00  0.00     0.071 A 
HETATM    5  N4  UNL     1      25.540   4.987  49.247  1.00  0.00    -0.241 NA
HETATM    6  C13 UNL     1      26.757   4.405  49.153  1.00  0.00     0.234 A 
HETATM    7  N5  UNL     1      27.073   3.389  49.972  1.00  0.00    -0.241 NA
HETATM    8  C14 UNL     1      26.226   2.897  50.910  1.00  0.00     0.081 A 
HETATM    9  C21 UNL     1      24.984   3.413  51.081  1.00  0.00     0.063 A 
ENDROOT
BRANCH   1  10
HETATM   10  N2  UNL     1      23.212   1.914  51.906  1.00  0.00    -0.316 N 
BRANCH  10  11
HETATM   11  C7  UNL     1      22.647   1.383  50.682  1.00  0.00     0.148 C 
BRANCH  11  12
HETATM   12  C6  UNL     1      21.271   0.767  50.883  1.00  0.00     0.137 C 
BRANCH  12  13
HETATM   13  N1  UNL     1      20.241   1.740  50.982  1.00  0.00    -0.403 N 
HETATM   14  C2  UNL     1      19.113   1.434  51.774  1.00  0.00     0.099 C 
HETATM   15  C1  UNL     1      18.473   0.090  51.507  1.00  0.00     0.034 C 
HETATM   16  C3  UNL     1      18.035   2.477  51.443  1.00  0.00     0.192 C 
HETATM   17  O1  UNL     1      17.590   2.127  50.171  1.00  0.00    -0.388 OA
HETATM   18  C4  UNL     1      18.611   2.270  49.278  1.00  0.00     0.187 C 
HETATM   19  C5  UNL     1      19.966   2.523  49.837  1.00  0.00     0.143 C 
ENDBRANCH  12  13
ENDBRANCH  11  12
ENDBRANCH  10  11
BRANCH  10  20
HETATM   20  C8  UNL     1      23.157   1.177  53.095  1.00  0.00     0.353 C 
HETATM   21  O2  UNL     1      23.459   0.021  53.442  1.00  0.00    -0.283 OA
ENDBRANCH  10  20
ENDBRANCH   1  10
BRANCH   1  22
HETATM   22  N3  UNL     1      24.202   3.600  53.288  1.00  0.00     0.116 N 
HETATM   23  H16 UNL     1      23.300   3.715  53.820  1.00  0.00     0.317 HD
HETATM   24  H17 UNL     1      24.660   4.525  53.201  1.00  0.00     0.317 HD
ENDBRANCH   1  22
BRANCH   8  25
HETATM   25  C15 UNL     1      26.788   1.818  51.701  1.00  0.00    -0.006 A 
HETATM   26  C16 UNL     1      26.562   0.461  51.754  1.00  0.00     0.017 A 
HETATM   27  C17 UNL     1      27.195  -0.402  52.606  1.00  0.00     0.043 A 
HETATM   28  C18 UNL     1      28.124   0.066  53.484  1.00  0.00     0.116 A 
HETATM   29  F1  UNL     1      28.691  -0.869  54.285  1.00  0.00    -0.206 F 
HETATM   30  C19 UNL     1      28.418   1.398  53.507  1.00  0.00     0.043 A 
HETATM   31  C20 UNL     1      27.757   2.233  52.631  1.00  0.00     0.017 A 
ENDBRANCH   8  25
TORSDOF 7
ENDMDL
MODEL 7
REMARK VINA RESULT:      -7.6      2.636      6.254
REMARK  7 active torsions:
REMARK  status: ('A' for Active; 'I' for Inactive)
REMARK    1  A    between atoms: N1_7  and  C6_8 
REMARK    2  A    between atoms: C6_8  and  C7_9 
REMARK    3  A    between atoms: C7_9  and  N2_10 
REMARK    4  A    between atoms: N2_10  and  C8_11 
REMARK    5  A    between atoms: N2_10  and  C9_13 
REMARK    6  A    between atoms: C9_13  and  N3_14 
REMARK    7  A    between atoms: C14_21  and  C15_22 
ROOT
HETATM    1  C9  UNL     1      26.446   1.821  53.386  1.00  0.00     0.282 A 
HETATM    2  C10 UNL     1      27.846   2.376  53.249  1.00  0.00     0.044 A 
HETATM    3  C11 UNL     1      28.797   1.467  53.127  1.00  0.00     0.033 A 
HETATM    4  C12 UNL     1      28.085   0.175  53.176  1.00  0.00     0.071 A 
HETATM    5  N4  UNL     1      28.763  -1.001  53.091  1.00  0.00    -0.241 NA
HETATM    6  C13 UNL     1      27.985  -2.104  53.165  1.00  0.00     0.234 A 
HETATM    7  N5  UNL     1      26.657  -1.973  53.313  1.00  0.00    -0.241 NA
HETATM    8  C14 UNL     1      26.031  -0.772  53.393  1.00  0.00     0.081 A 
HETATM    9  C21 UNL     1      26.724   0.392  53.328  1.00  0.00     0.063 A 
ENDROOT
BRANCH   1  10
HETATM   10  N2  UNL     1      25.582   2.367  52.399  1.00  0.00    -0.316 N 
BRANCH  10  11
HETATM   11  C7  UNL     1      25.930   2.341  50.992  1.00  0.00     0.148 C 
BRANCH  11  12
HETATM   12  C6  UNL     1      26.192   3.726  50.422  1.00  0.00     0.137 C 
BRANCH  12  13
HETATM   13  N1  UNL     1      25.242   4.105  49.436  1.00  0.00    -0.403 N 
HETATM   14  C2  UNL     1      25.031   5.483  49.213  1.00  0.00     0.099 C 
HETATM   15  C1  UNL     1      24.788   6.316  50.451  1.00  0.00     0.034 C 
HETATM   16  C3  UNL     1      23.751   5.612  48.373  1.00  0.00     0.192 C 
HETATM   17  O1  UNL     1      22.721   5.309  49.258  1.00  0.00    -0.388 OA
HETATM   18  C4  UNL     1      22.837   4.012  49.663  1.00  0.00     0.187 C 
HETATM   19  C5  UNL     1      24.089   3.298  49.292  1.00  0.00     0.143 C 
ENDBRANCH  12  13
ENDBRANCH  11  12
ENDBRANCH  10  11
BRANCH  10  20
HETATM   20  C8  UNL     1      24.379   2.942  52.826  1.00  0.00     0.353 C 
HETATM   21  O2  UNL     1      23.981   4.093  53.079  1.00  0.00    -0.283 OA
ENDBRANCH  10  20
ENDBRANCH   1  10
BRANCH   1  22
HETATM   22  N3  UNL     1      26.021   2.130  54.741  1.00  0.00     0.116 N 
HETATM   23  H16 UNL     1      26.387   1.350  55.348  1.00  0.00     0.317 HD
HETATM   24  H17 UNL     1      24.986   2.097  54.742  1.00  0.00     0.317 HD
ENDBRANCH   1  22
BRANCH   8  25
HETATM   25  C15 UNL     1      24.595  -0.869  53.580  1.00  0.00    -0.006 A 
HETATM   26  C16 UNL     1      23.514  -0.693  52.745  1.00  0.00     0.017 A 
HETATM   27  C17 UNL     1      22.206  -0.811  53.129  1.00  0.00     0.043 A 
HETATM   28  C18 UNL     1      21.900  -1.124  54.418  1.00  0.00     0.116 A 
HETATM   29  F1  UNL     1      20.576  -1.215  54.695  1.00  0.00    -0.206 F 
HETATM   30  C19 UNL     1      22.903  -1.318  55.320  1.00  0.00     0.043 A 
HETATM   31  C20 UNL     1      24.207  -1.190  54.892  1.00  0.00     0.017 A 
ENDBRANCH   8  25
TORSDOF 7
ENDMDL
MODEL 8
REMARK VINA RESULT:      -7.5      2.307      5.966
REMARK  7 active torsions:
REMARK  status: ('A' for Active; 'I' for Inactive)
REMARK    1  A    between atoms: N1_7  and  C6_8 
REMARK    2  A    between atoms: C6_8  and  C7_9 
REMARK    3  A    between atoms: C7_9  and  N2_10 
REMARK    4  A    between atoms: N2_10  and  C8_11 
REMARK    5  A    between atoms: N2_10  and  C9_13 
REMARK    6  A    between atoms: C9_13  and  N3_14 
REMARK    7  A    between atoms: C14_21  and  C15_22 
ROOT
HETATM    1  C9  UNL     1      23.088   1.973  52.102  1.00  0.00     0.282 A 
HETATM    2  C10 UNL     1      21.653   2.433  51.983  1.00  0.00     0.044 A 
HETATM    3  C11 UNL     1      20.793   1.780  52.745  1.00  0.00     0.033 A 
HETATM    4  C12 UNL     1      21.614   0.786  53.463  1.00  0.00     0.071 A 
HETATM    5  N4  UNL     1      21.048  -0.084  54.341  1.00  0.00    -0.241 NA
HETATM    6  C13 UNL     1      21.916  -0.947  54.916  1.00  0.00     0.234 A 
HETATM    7  N5  UNL     1      23.219  -0.892  54.595  1.00  0.00    -0.241 NA
HETATM    8  C14 UNL     1      23.731  -0.000  53.710  1.00  0.00     0.081 A 
HETATM    9  C21 UNL     1      22.941   0.906  53.083  1.00  0.00     0.063 A 
ENDROOT
BRANCH   1  10
HETATM   10  N2  UNL     1      23.946   3.058  52.428  1.00  0.00    -0.316 N 
BRANCH  10  11
HETATM   11  C7  UNL     1      23.418   4.335  52.861  1.00  0.00     0.148 C 
BRANCH  11  12
HETATM   12  C6  UNL     1      23.792   5.478  51.930  1.00  0.00     0.137 C 
BRANCH  12  13
HETATM   13  N1  UNL     1      23.130   5.407  50.676  1.00  0.00    -0.403 N 
HETATM   14  C2  UNL     1      23.863   4.941  49.564  1.00  0.00     0.099 C 
HETATM   15  C1  UNL     1      25.213   5.591  49.352  1.00  0.00     0.034 C 
HETATM   16  C3  UNL     1      23.043   5.279  48.310  1.00  0.00     0.192 C 
HETATM   17  O1  UNL     1      23.169   6.658  48.173  1.00  0.00    -0.388 OA
HETATM   18  C4  UNL     1      22.588   7.276  49.241  1.00  0.00     0.187 C 
HETATM   19  C5  UNL     1      22.177   6.409  50.380  1.00  0.00     0.143 C 
ENDBRANCH  12  13
ENDBRANCH  11  12
ENDBRANCH  10  11
BRANCH  10  20
HETATM   20  C8  UNL     1      25.327   2.859  52.312  1.00  0.00     0.353 C 
HETATM   21  O2  UNL     1      26.135   2.738  51.374  1.00  0.00    -0.283 OA
ENDBRANCH  10  20
ENDBRANCH   1  10
BRANCH   1  22
HETATM   22  N3  UNL     1      23.419   1.355  50.828  1.00  0.00     0.116 N 
HETATM   23  H16 UNL     1      24.247   0.729  51.012  1.00  0.00     0.317 HD
HETATM   24  H17 UNL     1      23.713   2.120  50.195  1.00  0.00     0.317 HD
ENDBRANCH   1  22
BRANCH   8  25
HETATM   25  C15 UNL     1      25.159  -0.141  53.495  1.00  0.00    -0.006 A 
HETATM   26  C16 UNL     1      25.920  -0.627  52.454  1.00  0.00     0.017 A 
HETATM   27  C17 UNL     1      27.286  -0.696  52.455  1.00  0.00     0.043 A 
HETATM   28  C18 UNL     1      27.990  -0.267  53.538  1.00  0.00     0.116 A 
HETATM   29  F1  UNL     1      29.337  -0.380  53.438  1.00  0.00    -0.206 F 
HETATM   30  C19 UNL     1      27.325   0.232  54.618  1.00  0.00     0.043 A 
HETATM   31  C20 UNL     1      25.948   0.285  54.577  1.00  0.00     0.017 A 
ENDBRANCH   8  25
TORSDOF 7
ENDMDL
MODEL 9
REMARK VINA RESULT:      -7.4      2.565      6.407
REMARK  7 active torsions:
REMARK  status: ('A' for Active; 'I' for Inactive)
REMARK    1  A    between atoms: N1_7  and  C6_8 
REMARK    2  A    between atoms: C6_8  and  C7_9 
REMARK    3  A    between atoms: C7_9  and  N2_10 
REMARK    4  A    between atoms: N2_10  and  C8_11 
REMARK    5  A    between atoms: N2_10  and  C9_13 
REMARK    6  A    between atoms: C9_13  and  N3_14 
REMARK    7  A    between atoms: C14_21  and  C15_22 
ROOT
HETATM    1  C9  UNL     1      20.767   1.203  50.999  1.00  0.00     0.282 A 
HETATM    2  C10 UNL     1      19.357   0.678  50.848  1.00  0.00     0.044 A 
HETATM    3  C11 UNL     1      18.959  -0.138  51.809  1.00  0.00     0.033 A 
HETATM    4  C12 UNL     1      20.118  -0.232  52.718  1.00  0.00     0.071 A 
HETATM    5  N4  UNL     1      20.070  -1.011  53.832  1.00  0.00    -0.241 NA
HETATM    6  C13 UNL     1      21.207  -1.014  54.565  1.00  0.00     0.234 A 
HETATM    7  N5  UNL     1      22.259  -0.284  54.162  1.00  0.00    -0.241 NA
HETATM    8  C14 UNL     1      22.252   0.478  53.039  1.00  0.00     0.081 A 
HETATM    9  C21 UNL     1      21.160   0.547  52.239  1.00  0.00     0.063 A 
ENDROOT
BRANCH   1  10
HETATM   10  N2  UNL     1      20.788   2.623  50.966  1.00  0.00    -0.316 N 
BRANCH  10  11
HETATM   11  C7  UNL     1      21.457   3.345  49.903  1.00  0.00     0.148 C 
BRANCH  11  12
HETATM   12  C6  UNL     1      21.651   4.820  50.219  1.00  0.00     0.137 C 
BRANCH  12  13
HETATM   13  N1  UNL     1      23.019   5.180  50.351  1.00  0.00    -0.403 N 
HETATM   14  C2  UNL     1      23.323   6.411  50.972  1.00  0.00     0.099 C 
HETATM   15  C1  UNL     1      22.564   7.611  50.451  1.00  0.00     0.034 C 
HETATM   16  C3  UNL     1      24.803   6.705  50.685  1.00  0.00     0.192 C 
HETATM   17  O1  UNL     1      24.835   7.053  49.339  1.00  0.00    -0.388 OA
HETATM   18  C4  UNL     1      24.460   5.981  48.583  1.00  0.00     0.187 C 
HETATM   19  C5  UNL     1      23.898   4.809  49.308  1.00  0.00     0.143 C 
ENDBRANCH  12  13
ENDBRANCH  11  12
ENDBRANCH  10  11
BRANCH  10  20
HETATM   20  C8  UNL     1      20.144   3.313  52.001  1.00  0.00     0.353 C 
HETATM   21  O2  UNL     1      18.969   3.614  52.276  1.00  0.00    -0.283 OA
ENDBRANCH  10  20
ENDBRANCH   1  10
BRANCH   1  22
HETATM   22  N3  UNL     1      21.538   0.603  49.923  1.00  0.00     0.116 N 
HETATM   23  H16 UNL     1      22.543   0.609  50.242  1.00  0.00     0.317 HD
HETATM   24  H17 UNL     1      21.443   1.230  49.104  1.00  0.00     0.317 HD
ENDBRANCH   1  22
BRANCH   8  25
HETATM   25  C15 UNL     1      23.508   1.159  52.784  1.00  0.00    -0.006 A 
HETATM   26  C16 UNL     1      23.854   2.481  52.612  1.00  0.00     0.017 A 
HETATM   27  C17 UNL     1      25.121   2.927  52.351  1.00  0.00     0.043 A 
HETATM   28  C18 UNL     1      26.147   2.040  52.244  1.00  0.00     0.116 A 
HETATM   29  F1  UNL     1      27.361   2.583  51.983  1.00  0.00    -0.206 F 
HETATM   30  C19 UNL     1      25.904   0.707  52.400  1.00  0.00     0.043 A 
HETATM   31  C20 UNL     1      24.613   0.300  52.662  1.00  0.00     0.017 A 
ENDBRANCH   8  25
TORSDOF 7
ENDMDL
