MODEL 1
REMARK VINA RESULT:      -7.4      0.000      0.000
REMARK  5 active torsions:
REMARK  status: ('A' for Active; 'I' for Inactive)
REMARK    1  A    between atoms: O1_2  and  C2_3 
REMARK    2  A    between atoms: C6_9  and  O2_10 
REMARK    3  A    between atoms: O2_10  and  C7_11 
REMARK    4  A    between atoms: C10_14  and  N3_15 
REMARK       I    between atoms: N3_15  and  C11_16 
REMARK    5  A    between atoms: C16_22  and  O4_23 
ROOT
HETATM    1  C2  UNL     1      26.931  -0.141  53.723  1.00  0.00     0.104 A 
HETATM    2  C3  UNL     1      25.750  -0.717  53.928  1.00  0.00     0.072 A 
HETATM    3  C4  UNL     1      24.718   0.130  53.330  1.00  0.00     0.074 A 
HETATM    4  N1  UNL     1      23.427   0.115  53.201  1.00  0.00    -0.242 NA
HETATM    5  C5  UNL     1      22.759   1.186  52.514  1.00  0.00     0.230 A 
HETATM    6  N2  UNL     1      23.361   2.202  51.994  1.00  0.00    -0.246 NA
HETATM    7  C6  UNL     1      24.799   2.375  52.049  1.00  0.00     0.291 A 
HETATM    8  C15 UNL     1      25.460   1.251  52.766  1.00  0.00     0.057 A 
HETATM    9  C16 UNL     1      26.759   1.121  52.978  1.00  0.00     0.114 A 
ENDROOT
BRANCH   7  10
HETATM   10  O2  UNL     1      25.241   2.472  50.712  1.00  0.00    -0.320 OA
BRANCH  10  11
HETATM   11  C7  UNL     1      25.413   3.669  50.032  1.00  0.00     0.072 A 
HETATM   12  C8  UNL     1      26.744   3.758  49.610  1.00  0.00     0.039 A 
HETATM   13  C9  UNL     1      27.202   4.870  48.894  1.00  0.00     0.032 A 
HETATM   14  C10 UNL     1      26.323   5.883  48.605  1.00  0.00     0.034 A 
HETATM   15  C13 UNL     1      25.020   5.780  49.025  1.00  0.00     0.032 A 
HETATM   16  C14 UNL     1      24.557   4.696  49.728  1.00  0.00     0.039 A 
BRANCH  14  17
HETATM   17  N3  UNL     1      26.701   7.041  47.887  1.00  0.00    -0.328 N 
HETATM   18  C11 UNL     1      26.903   8.118  48.790  1.00  0.00     0.218 C 
HETATM   19  C12 UNL     1      27.304   9.514  48.500  1.00  0.00     0.117 C 
HETATM   20  O3  UNL     1      26.741   7.952  50.024  1.00  0.00    -0.274 OA
HETATM   21  H9  UNL     1      26.862   7.294  46.896  1.00  0.00     0.169 HD
ENDBRANCH  14  17
ENDBRANCH  10  11
ENDBRANCH   7  10
BRANCH   9  22
HETATM   22  O4  UNL     1      27.824   1.928  52.630  1.00  0.00    -0.352 OA
HETATM   23  C17 UNL     1      28.667   2.548  53.577  1.00  0.00     0.210 C 
ENDBRANCH   9  22
BRANCH   1  24
HETATM   24  O1  UNL     1      28.100  -0.749  54.198  1.00  0.00    -0.353 OA
HETATM   25  C1  UNL     1      29.048  -1.304  53.285  1.00  0.00     0.210 C 
ENDBRANCH   1  24
TORSDOF 5
ENDMDL
MODEL 2
REMARK VINA RESULT:      -7.3      3.126      6.772
REMARK  5 active torsions:
REMARK  status: ('A' for Active; 'I' for Inactive)
REMARK    1  A    between atoms: O1_2  and  C2_3 
REMARK    2  A    between atoms: C6_9  and  O2_10 
REMARK    3  A    between atoms: O2_10  and  C7_11 
REMARK    4  A    between atoms: C10_14  and  N3_15 
REMARK       I    between atoms: N3_15  and  C11_16 
REMARK    5  A    between atoms: C16_22  and  O4_23 
ROOT
HETATM    1  C2  UNL     1      26.724   1.455  53.573  1.00  0.00     0.104 A 
HETATM    2  C3  UNL     1      27.549   2.163  52.806  1.00  0.00     0.072 A 
HETATM    3  C4  UNL     1      26.805   2.613  51.629  1.00  0.00     0.074 A 
HETATM    4  N1  UNL     1      27.039   3.310  50.560  1.00  0.00    -0.242 NA
HETATM    5  C5  UNL     1      25.992   3.537  49.602  1.00  0.00     0.230 A 
HETATM    6  N2  UNL     1      24.789   3.086  49.723  1.00  0.00    -0.246 NA
HETATM    7  C6  UNL     1      24.359   2.290  50.855  1.00  0.00     0.291 A 
HETATM    8  C15 UNL     1      25.465   2.074  51.826  1.00  0.00     0.057 A 
HETATM    9  C16 UNL     1      25.385   1.391  52.956  1.00  0.00     0.114 A 
ENDROOT
BRANCH   7  10
HETATM   10  O2  UNL     1      23.278   2.982  51.442  1.00  0.00    -0.320 OA
BRANCH  10  11
HETATM   11  C7  UNL     1      22.011   2.444  51.620  1.00  0.00     0.072 A 
HETATM   12  C8  UNL     1      21.969   1.185  51.009  1.00  0.00     0.039 A 
HETATM   13  C9  UNL     1      20.803   0.410  51.033  1.00  0.00     0.032 A 
HETATM   14  C10 UNL     1      19.691   0.901  51.669  1.00  0.00     0.034 A 
HETATM   15  C13 UNL     1      19.749   2.137  52.263  1.00  0.00     0.032 A 
HETATM   16  C14 UNL     1      20.884   2.909  52.248  1.00  0.00     0.039 A 
BRANCH  14  17
HETATM   17  N3  UNL     1      18.474   0.185  51.741  1.00  0.00    -0.328 N 
HETATM   18  C11 UNL     1      18.523  -0.732  52.825  1.00  0.00     0.218 C 
HETATM   19  C12 UNL     1      17.488  -1.686  53.284  1.00  0.00     0.117 C 
HETATM   20  O3  UNL     1      19.548  -0.809  53.546  1.00  0.00    -0.274 OA
HETATM   21  H9  UNL     1      17.581   0.161  51.217  1.00  0.00     0.169 HD
ENDBRANCH  14  17
ENDBRANCH  10  11
ENDBRANCH   7  10
BRANCH   9  22
HETATM   22  O4  UNL     1      24.331   0.717  53.540  1.00  0.00    -0.352 OA
HETATM   23  C17 UNL     1      24.174  -0.684  53.467  1.00  0.00     0.210 C 
ENDBRANCH   9  22
BRANCH   1  24
HETATM   24  O1  UNL     1      27.185   0.901  54.774  1.00  0.00    -0.353 OA
HETATM   25  C1  UNL     1      28.464   0.267  54.832  1.00  0.00     0.210 C 
ENDBRANCH   1  24
TORSDOF 5
ENDMDL
MODEL 3
REMARK VINA RESULT:      -7.3      3.386      7.112
REMARK  5 active torsions:
REMARK  status: ('A' for Active; 'I' for Inactive)
REMARK    1  A    between atoms: O1_2  and  C2_3 
REMARK    2  A    between atoms: C6_9  and  O2_10 
REMARK    3  A    between atoms: O2_10  and  C7_11 
REMARK    4  A    between atoms: C10_14  and  N3_15 
REMARK       I    between atoms: N3_15  and  C11_16 
REMARK    5  A    between atoms: C16_22  and  O4_23 
ROOT
HETATM    1  C2  UNL     1      27.761   0.117  53.645  1.00  0.00     0.104 A 
HETATM    2  C3  UNL     1      28.175   1.128  52.885  1.00  0.00     0.072 A 
HETATM    3  C4  UNL     1      27.019   1.662  52.166  1.00  0.00     0.074 A 
HETATM    4  N1  UNL     1      26.779   2.608  51.310  1.00  0.00    -0.242 NA
HETATM    5  C5  UNL     1      25.444   2.819  50.822  1.00  0.00     0.230 A 
HETATM    6  N2  UNL     1      24.422   2.118  51.180  1.00  0.00    -0.246 NA
HETATM    7  C6  UNL     1      24.513   1.024  52.126  1.00  0.00     0.291 A 
HETATM    8  C15 UNL     1      25.906   0.832  52.611  1.00  0.00     0.057 A 
HETATM    9  C16 UNL     1      26.308  -0.082  53.478  1.00  0.00     0.114 A 
ENDROOT
BRANCH   7  10
HETATM   10  O2  UNL     1      23.632   1.336  53.184  1.00  0.00    -0.320 OA
BRANCH  10  11
HETATM   11  C7  UNL     1      22.302   0.945  53.233  1.00  0.00     0.072 A 
HETATM   12  C8  UNL     1      22.248  -0.428  53.501  1.00  0.00     0.039 A 
HETATM   13  C9  UNL     1      21.021  -1.095  53.605  1.00  0.00     0.032 A 
HETATM   14  C10 UNL     1      19.860  -0.383  53.443  1.00  0.00     0.034 A 
HETATM   15  C13 UNL     1      19.930   0.963  53.181  1.00  0.00     0.032 A 
HETATM   16  C14 UNL     1      21.125   1.631  53.075  1.00  0.00     0.039 A 
BRANCH  14  17
HETATM   17  N3  UNL     1      18.580  -0.977  53.533  1.00  0.00    -0.328 N 
HETATM   18  C11 UNL     1      17.914  -0.867  52.284  1.00  0.00     0.218 C 
HETATM   19  C12 UNL     1      16.563  -1.341  51.904  1.00  0.00     0.117 C 
HETATM   20  O3  UNL     1      18.475  -0.305  51.311  1.00  0.00    -0.274 OA
HETATM   21  H9  UNL     1      18.022  -1.458  54.260  1.00  0.00     0.169 HD
ENDBRANCH  14  17
ENDBRANCH  10  11
ENDBRANCH   7  10
BRANCH   9  22
HETATM   22  O4  UNL     1      25.614  -1.068  54.151  1.00  0.00    -0.352 OA
HETATM   23  C17 UNL     1      25.151  -0.921  55.476  1.00  0.00     0.210 C 
ENDBRANCH   9  22
BRANCH   1  24
HETATM   24  O1  UNL     1      28.676  -0.579  54.445  1.00  0.00    -0.353 OA
HETATM   25  C1  UNL     1      29.918  -1.027  53.900  1.00  0.00     0.210 C 
ENDBRANCH   1  24
TORSDOF 5
ENDMDL
MODEL 4
REMARK VINA RESULT:      -7.1      2.873      7.109
REMARK  5 active torsions:
REMARK  status: ('A' for Active; 'I' for Inactive)
REMARK    1  A    between atoms: O1_2  and  C2_3 
REMARK    2  A    between atoms: C6_9  and  O2_10 
REMARK    3  A    between atoms: O2_10  and  C7_11 
REMARK    4  A    between atoms: C10_14  and  N3_15 
REMARK       I    between atoms: N3_15  and  C11_16 
REMARK    5  A    between atoms: C16_22  and  O4_23 
ROOT
HETATM    1  C2  UNL     1      22.276   5.468  50.675  1.00  0.00     0.104 A 
HETATM    2  C3  UNL     1      21.015   5.349  51.083  1.00  0.00     0.072 A 
HETATM    3  C4  UNL     1      20.848   4.021  51.672  1.00  0.00     0.074 A 
HETATM    4  N1  UNL     1      19.896   3.334  52.224  1.00  0.00    -0.242 NA
HETATM    5  C5  UNL     1      20.148   2.000  52.695  1.00  0.00     0.230 A 
HETATM    6  N2  UNL     1      21.290   1.406  52.612  1.00  0.00    -0.246 NA
HETATM    7  C6  UNL     1      22.459   2.029  52.024  1.00  0.00     0.291 A 
HETATM    8  C15 UNL     1      22.164   3.407  51.547  1.00  0.00     0.057 A 
HETATM    9  C16 UNL     1      23.023   4.229  50.967  1.00  0.00     0.114 A 
ENDROOT
BRANCH   7  10
HETATM   10  O2  UNL     1      23.458   2.026  53.022  1.00  0.00    -0.320 OA
BRANCH  10  11
HETATM   11  C7  UNL     1      24.422   1.038  53.158  1.00  0.00     0.072 A 
HETATM   12  C8  UNL     1      25.424   1.255  52.205  1.00  0.00     0.039 A 
HETATM   13  C9  UNL     1      26.530   0.402  52.113  1.00  0.00     0.032 A 
HETATM   14  C10 UNL     1      26.625  -0.659  52.977  1.00  0.00     0.034 A 
HETATM   15  C13 UNL     1      25.634  -0.859  53.906  1.00  0.00     0.032 A 
HETATM   16  C14 UNL     1      24.544  -0.031  54.008  1.00  0.00     0.039 A 
BRANCH  14  17
HETATM   17  N3  UNL     1      27.707  -1.569  52.954  1.00  0.00    -0.328 N 
HETATM   18  C11 UNL     1      28.841  -0.977  53.572  1.00  0.00     0.218 C 
HETATM   19  C12 UNL     1      30.192  -1.547  53.779  1.00  0.00     0.117 C 
HETATM   20  O3  UNL     1      28.777   0.189  54.035  1.00  0.00    -0.274 OA
HETATM   21  H9  UNL     1      27.877  -2.530  52.610  1.00  0.00     0.169 HD
ENDBRANCH  14  17
ENDBRANCH  10  11
ENDBRANCH   7  10
BRANCH   9  22
HETATM   22  O4  UNL     1      24.358   4.076  50.648  1.00  0.00    -0.352 OA
HETATM   23  C17 UNL     1      24.822   3.900  49.327  1.00  0.00     0.210 C 
ENDBRANCH   9  22
BRANCH   1  24
HETATM   24  O1  UNL     1      22.708   6.654  50.068  1.00  0.00    -0.353 OA
HETATM   25  C1  UNL     1      23.544   7.567  50.781  1.00  0.00     0.210 C 
ENDBRANCH   1  24
TORSDOF 5
ENDMDL
MODEL 5
REMARK VINA RESULT:      -7.0      1.766      2.011
REMARK  5 active torsions:
REMARK  status: ('A' for Active; 'I' for Inactive)
REMARK    1  A    between atoms: O1_2  and  C2_3 
REMARK    2  A    between atoms: C6_9  and  O2_10 
REMARK    3  A    between atoms: O2_10  and  C7_11 
REMARK    4  A    between atoms: C10_14  and  N3_15 
REMARK       I    between atoms: N3_15  and  C11_16 
REMARK    5  A    between atoms: C16_22  and  O4_23 
ROOT
HETATM    1  C2  UNL     1      26.126   0.001  54.351  1.00  0.00     0.104 A 
HETATM    2  C3  UNL     1      25.214  -0.959  54.480  1.00  0.00     0.072 A 
HETATM    3  C4  UNL     1      24.001  -0.533  53.782  1.00  0.00     0.074 A 
HETATM    4  N1  UNL     1      22.815  -1.006  53.554  1.00  0.00    -0.242 NA
HETATM    5  C5  UNL     1      21.867  -0.242  52.789  1.00  0.00     0.230 A 
HETATM    6  N2  UNL     1      22.110   0.923  52.291  1.00  0.00    -0.246 NA
HETATM    7  C6  UNL     1      23.383   1.597  52.452  1.00  0.00     0.291 A 
HETATM    8  C15 UNL     1      24.339   0.780  53.247  1.00  0.00     0.057 A 
HETATM    9  C16 UNL     1      25.577   1.121  53.563  1.00  0.00     0.114 A 
ENDROOT
BRANCH   7  10
HETATM   10  O2  UNL     1      23.869   1.849  51.151  1.00  0.00    -0.320 OA
BRANCH  10  11
HETATM   11  C7  UNL     1      23.883   3.100  50.552  1.00  0.00     0.072 A 
HETATM   12  C8  UNL     1      23.670   4.071  51.537  1.00  0.00     0.039 A 
HETATM   13  C9  UNL     1      23.634   5.433  51.213  1.00  0.00     0.032 A 
HETATM   14  C10 UNL     1      23.814   5.810  49.906  1.00  0.00     0.034 A 
HETATM   15  C13 UNL     1      24.022   4.846  48.952  1.00  0.00     0.032 A 
HETATM   16  C14 UNL     1      24.059   3.507  49.255  1.00  0.00     0.039 A 
BRANCH  14  17
HETATM   17  N3  UNL     1      23.794   7.162  49.492  1.00  0.00    -0.328 N 
HETATM   18  C11 UNL     1      25.065   7.751  49.722  1.00  0.00     0.218 C 
HETATM   19  C12 UNL     1      25.514   9.136  49.448  1.00  0.00     0.117 C 
HETATM   20  O3  UNL     1      25.997   7.076  50.225  1.00  0.00    -0.274 OA
HETATM   21  H9  UNL     1      23.104   7.812  49.075  1.00  0.00     0.169 HD
ENDBRANCH  14  17
ENDBRANCH  10  11
ENDBRANCH   7  10
BRANCH   9  22
HETATM   22  O4  UNL     1      26.311   2.256  53.276  1.00  0.00    -0.352 OA
HETATM   23  C17 UNL     1      27.171   2.359  52.161  1.00  0.00     0.210 C 
ENDBRANCH   9  22
BRANCH   1  24
HETATM   24  O1  UNL     1      27.392  -0.152  54.931  1.00  0.00    -0.353 OA
HETATM   25  C1  UNL     1      28.530  -0.434  54.116  1.00  0.00     0.210 C 
ENDBRANCH   1  24
TORSDOF 5
ENDMDL
MODEL 6
REMARK VINA RESULT:      -6.9      3.540      7.464
REMARK  5 active torsions:
REMARK  status: ('A' for Active; 'I' for Inactive)
REMARK    1  A    between atoms: O1_2  and  C2_3 
REMARK    2  A    between atoms: C6_9  and  O2_10 
REMARK    3  A    between atoms: O2_10  and  C7_11 
REMARK    4  A    between atoms: C10_14  and  N3_15 
REMARK       I    between atoms: N3_15  and  C11_16 
REMARK    5  A    between atoms: C16_22  and  O4_23 
ROOT
HETATM    1  C2  UNL     1      19.394   2.722  51.748  1.00  0.00     0.104 A 
HETATM    2  C3  UNL     1      19.578   3.995  51.410  1.00  0.00     0.072 A 
HETATM    3  C4  UNL     1      20.980   4.334  51.651  1.00  0.00     0.074 A 
HETATM    4  N1  UNL     1      21.747   5.373  51.526  1.00  0.00    -0.242 NA
HETATM    5  C5  UNL     1      23.135   5.293  51.889  1.00  0.00     0.230 A 
HETATM    6  N2  UNL     1      23.705   4.231  52.348  1.00  0.00    -0.246 NA
HETATM    7  C6  UNL     1      22.995   2.984  52.550  1.00  0.00     0.291 A 
HETATM    8  C15 UNL     1      21.562   3.100  52.165  1.00  0.00     0.057 A 
HETATM    9  C16 UNL     1      20.659   2.136  52.233  1.00  0.00     0.114 A 
ENDROOT
BRANCH   7  10
HETATM   10  O2  UNL     1      23.665   2.012  51.776  1.00  0.00    -0.320 OA
BRANCH  10  11
HETATM   11  C7  UNL     1      24.555   1.081  52.292  1.00  0.00     0.072 A 
HETATM   12  C8  UNL     1      25.721   1.098  51.518  1.00  0.00     0.039 A 
HETATM   13  C9  UNL     1      26.796   0.252  51.814  1.00  0.00     0.032 A 
HETATM   14  C10 UNL     1      26.696  -0.602  52.883  1.00  0.00     0.034 A 
HETATM   15  C13 UNL     1      25.546  -0.606  53.633  1.00  0.00     0.032 A 
HETATM   16  C14 UNL     1      24.484   0.217  53.355  1.00  0.00     0.039 A 
BRANCH  14  17
HETATM   17  N3  UNL     1      27.734  -1.488  53.252  1.00  0.00    -0.328 N 
HETATM   18  C11 UNL     1      28.905  -0.748  53.566  1.00  0.00     0.218 C 
HETATM   19  C12 UNL     1      30.231  -1.243  54.000  1.00  0.00     0.117 C 
HETATM   20  O3  UNL     1      28.905   0.506  53.491  1.00  0.00    -0.274 OA
HETATM   21  H9  UNL     1      27.852  -2.512  53.348  1.00  0.00     0.169 HD
ENDBRANCH  14  17
ENDBRANCH  10  11
ENDBRANCH   7  10
BRANCH   9  22
HETATM   22  O4  UNL     1      20.756   0.824  52.653  1.00  0.00    -0.352 OA
HETATM   23  C17 UNL     1      20.684   0.438  54.008  1.00  0.00     0.210 C 
ENDBRANCH   9  22
BRANCH   1  24
HETATM   24  O1  UNL     1      18.128   2.136  51.616  1.00  0.00    -0.353 OA
HETATM   25  C1  UNL     1      16.969   2.953  51.448  1.00  0.00     0.210 C 
ENDBRANCH   1  24
TORSDOF 5
ENDMDL
MODEL 7
REMARK VINA RESULT:      -6.9      4.260      6.458
REMARK  5 active torsions:
REMARK  status: ('A' for Active; 'I' for Inactive)
REMARK    1  A    between atoms: O1_2  and  C2_3 
REMARK    2  A    between atoms: C6_9  and  O2_10 
REMARK    3  A    between atoms: O2_10  and  C7_11 
REMARK    4  A    between atoms: C10_14  and  N3_15 
REMARK       I    between atoms: N3_15  and  C11_16 
REMARK    5  A    between atoms: C16_22  and  O4_23 
ROOT
HETATM    1  C2  UNL     1      26.397   0.903  53.258  1.00  0.00     0.104 A 
HETATM    2  C3  UNL     1      26.626   0.023  54.229  1.00  0.00     0.072 A 
HETATM    3  C4  UNL     1      25.340  -0.520  54.666  1.00  0.00     0.074 A 
HETATM    4  N1  UNL     1      24.913  -1.378  55.540  1.00  0.00    -0.242 NA
HETATM    5  C5  UNL     1      23.505  -1.642  55.665  1.00  0.00     0.230 A 
HETATM    6  N2  UNL     1      22.595  -1.073  54.950  1.00  0.00    -0.246 NA
HETATM    7  C6  UNL     1      22.898  -0.090  53.930  1.00  0.00     0.291 A 
HETATM    8  C15 UNL     1      24.361   0.160  53.826  1.00  0.00     0.057 A 
HETATM    9  C16 UNL     1      24.949   1.000  52.990  1.00  0.00     0.114 A 
ENDROOT
BRANCH   7  10
HETATM   10  O2  UNL     1      22.369  -0.592  52.721  1.00  0.00    -0.320 OA
BRANCH  10  11
HETATM   11  C7  UNL     1      21.349   0.017  52.004  1.00  0.00     0.072 A 
HETATM   12  C8  UNL     1      20.150  -0.137  52.710  1.00  0.00     0.039 A 
HETATM   13  C9  UNL     1      18.948   0.383  52.215  1.00  0.00     0.032 A 
HETATM   14  C10 UNL     1      18.957   1.054  51.018  1.00  0.00     0.034 A 
HETATM   15  C13 UNL     1      20.141   1.196  50.337  1.00  0.00     0.032 A 
HETATM   16  C14 UNL     1      21.326   0.691  50.810  1.00  0.00     0.039 A 
BRANCH  14  17
HETATM   17  N3  UNL     1      17.790   1.611  50.446  1.00  0.00    -0.328 N 
HETATM   18  C11 UNL     1      17.516   2.867  51.049  1.00  0.00     0.218 C 
HETATM   19  C12 UNL     1      16.407   3.809  50.775  1.00  0.00     0.117 C 
HETATM   20  O3  UNL     1      18.267   3.318  51.949  1.00  0.00    -0.274 OA
HETATM   21  H9  UNL     1      17.104   1.341  49.719  1.00  0.00     0.169 HD
ENDBRANCH  14  17
ENDBRANCH  10  11
ENDBRANCH   7  10
BRANCH   9  22
HETATM   22  O4  UNL     1      24.427   1.842  52.028  1.00  0.00    -0.352 OA
HETATM   23  C17 UNL     1      23.871   3.105  52.325  1.00  0.00     0.210 C 
ENDBRANCH   9  22
BRANCH   1  24
HETATM   24  O1  UNL     1      27.467   1.577  52.655  1.00  0.00    -0.353 OA
HETATM   25  C1  UNL     1      28.538   2.087  53.450  1.00  0.00     0.210 C 
ENDBRANCH   1  24
TORSDOF 5
ENDMDL
MODEL 8
REMARK VINA RESULT:      -6.7      4.005      5.333
REMARK  5 active torsions:
REMARK  status: ('A' for Active; 'I' for Inactive)
REMARK    1  A    between atoms: O1_2  and  C2_3 
REMARK    2  A    between atoms: C6_9  and  O2_10 
REMARK    3  A    between atoms: O2_10  and  C7_11 
REMARK    4  A    between atoms: C10_14  and  N3_15 
REMARK       I    between atoms: N3_15  and  C11_16 
REMARK    5  A    between atoms: C16_22  and  O4_23 
ROOT
HETATM    1  C2  UNL     1      25.463   0.135  53.695  1.00  0.00     0.104 A 
HETATM    2  C3  UNL     1      25.067  -0.730  54.625  1.00  0.00     0.072 A 
HETATM    3  C4  UNL     1      23.612  -0.853  54.545  1.00  0.00     0.074 A 
HETATM    4  N1  UNL     1      22.674  -1.510  55.154  1.00  0.00    -0.242 NA
HETATM    5  C5  UNL     1      21.302  -1.345  54.758  1.00  0.00     0.230 A 
HETATM    6  N2  UNL     1      20.911  -0.566  53.807  1.00  0.00    -0.246 NA
HETATM    7  C6  UNL     1      21.827   0.240  53.025  1.00  0.00     0.291 A 
HETATM    8  C15 UNL     1      23.237   0.046  53.460  1.00  0.00     0.057 A 
HETATM    9  C16 UNL     1      24.299   0.640  52.941  1.00  0.00     0.114 A 
ENDROOT
BRANCH   7  10
HETATM   10  O2  UNL     1      21.641  -0.138  51.678  1.00  0.00    -0.320 OA
BRANCH  10  11
HETATM   11  C7  UNL     1      20.886   0.581  50.763  1.00  0.00     0.072 A 
HETATM   12  C8  UNL     1      21.709   0.948  49.692  1.00  0.00     0.039 A 
HETATM   13  C9  UNL     1      21.205   1.687  48.615  1.00  0.00     0.032 A 
HETATM   14  C10 UNL     1      19.883   2.051  48.619  1.00  0.00     0.034 A 
HETATM   15  C13 UNL     1      19.088   1.684  49.677  1.00  0.00     0.032 A 
HETATM   16  C14 UNL     1      19.568   0.960  50.739  1.00  0.00     0.039 A 
BRANCH  14  17
HETATM   17  N3  UNL     1      19.293   2.797  47.572  1.00  0.00    -0.328 N 
HETATM   18  C11 UNL     1      19.502   4.183  47.797  1.00  0.00     0.218 C 
HETATM   19  C12 UNL     1      19.069   5.336  46.974  1.00  0.00     0.117 C 
HETATM   20  O3  UNL     1      20.132   4.576  48.810  1.00  0.00    -0.274 OA
HETATM   21  H9  UNL     1      18.761   2.592  46.707  1.00  0.00     0.169 HD
ENDBRANCH  14  17
ENDBRANCH  10  11
ENDBRANCH   7  10
BRANCH   9  22
HETATM   22  O4  UNL     1      24.420   1.555  51.914  1.00  0.00    -0.352 OA
HETATM   23  C17 UNL     1      24.247   2.944  52.092  1.00  0.00     0.210 C 
ENDBRANCH   9  22
BRANCH   1  24
HETATM   24  O1  UNL     1      26.823   0.440  53.553  1.00  0.00    -0.353 OA
HETATM   25  C1  UNL     1      27.743   0.141  54.604  1.00  0.00     0.210 C 
ENDBRANCH   1  24
TORSDOF 5
ENDMDL
MODEL 9
REMARK VINA RESULT:      -6.6      3.429      5.816
REMARK  5 active torsions:
REMARK  status: ('A' for Active; 'I' for Inactive)
REMARK    1  A    between atoms: O1_2  and  C2_3 
REMARK    2  A    between atoms: C6_9  and  O2_10 
REMARK    3  A    between atoms: O2_10  and  C7_11 
REMARK    4  A    between atoms: C10_14  and  N3_15 
REMARK       I    between atoms: N3_15  and  C11_16 
REMARK    5  A    between atoms: C16_22  and  O4_23 
ROOT
HETATM    1  C2  UNL     1      18.737  -0.089  52.271  1.00  0.00     0.104 A 
HETATM    2  C3  UNL     1      18.831  -0.933  53.295  1.00  0.00     0.072 A 
HETATM    3  C4  UNL     1      20.233  -0.996  53.708  1.00  0.00     0.074 A 
HETATM    4  N1  UNL     1      20.938  -1.611  54.607  1.00  0.00    -0.242 NA
HETATM    5  C5  UNL     1      22.356  -1.392  54.688  1.00  0.00     0.230 A 
HETATM    6  N2  UNL     1      23.013  -0.602  53.908  1.00  0.00    -0.246 NA
HETATM    7  C6  UNL     1      22.381   0.160  52.849  1.00  0.00     0.291 A 
HETATM    8  C15 UNL     1      20.916  -0.088  52.793  1.00  0.00     0.057 A 
HETATM    9  C16 UNL     1      20.066   0.459  51.940  1.00  0.00     0.114 A 
ENDROOT
BRANCH   7  10
HETATM   10  O2  UNL     1      22.669   1.518  53.108  1.00  0.00    -0.320 OA
BRANCH  10  11
HETATM   11  C7  UNL     1      23.506   2.301  52.326  1.00  0.00     0.072 A 
HETATM   12  C8  UNL     1      23.211   3.648  52.563  1.00  0.00     0.039 A 
HETATM   13  C9  UNL     1      23.907   4.668  51.903  1.00  0.00     0.032 A 
HETATM   14  C10 UNL     1      24.894   4.329  51.012  1.00  0.00     0.034 A 
HETATM   15  C13 UNL     1      25.173   3.003  50.791  1.00  0.00     0.032 A 
HETATM   16  C14 UNL     1      24.498   1.993  51.430  1.00  0.00     0.039 A 
BRANCH  14  17
HETATM   17  N3  UNL     1      25.647   5.294  50.304  1.00  0.00    -0.328 N 
HETATM   18  C11 UNL     1      24.933   5.699  49.144  1.00  0.00     0.218 C 
HETATM   19  C12 UNL     1      25.322   6.681  48.107  1.00  0.00     0.117 C 
HETATM   20  O3  UNL     1      23.807   5.205  48.886  1.00  0.00    -0.274 OA
HETATM   21  H9  UNL     1      26.562   5.766  50.414  1.00  0.00     0.169 HD
ENDBRANCH  14  17
ENDBRANCH  10  11
ENDBRANCH   7  10
BRANCH   9  22
HETATM   22  O4  UNL     1      20.261   1.362  50.913  1.00  0.00    -0.352 OA
HETATM   23  C17 UNL     1      19.918   2.727  51.009  1.00  0.00     0.210 C 
ENDBRANCH   9  22
BRANCH   1  24
HETATM   24  O1  UNL     1      17.492   0.157  51.678  1.00  0.00    -0.353 OA
HETATM   25  C1  UNL     1      17.266  -0.177  50.308  1.00  0.00     0.210 C 
ENDBRANCH   1  24
TORSDOF 5
ENDMDL
