MODEL 1
REMARK VINA RESULT:      -8.7      0.000      0.000
REMARK  3 active torsions:
REMARK  status: ('A' for Active; 'I' for Inactive)
REMARK    1  A    between atoms: C4_4  and  C5_5 
REMARK    2  A    between atoms: C5_5  and  N1_6 
REMARK    3  A    between atoms: C8_9  and  N2_10 
ROOT
HETATM    1  C1  UNL     1      22.957  -1.619  54.891  1.00  0.00     0.070 C 
HETATM    2  C2  UNL     1      22.932  -0.392  54.058  1.00  0.00     0.033 A 
HETATM    3  C3  UNL     1      22.138   0.557  53.460  1.00  0.00     0.038 A 
HETATM    4  C4  UNL     1      22.898   1.494  52.811  1.00  0.00    -0.006 A 
HETATM    5  C11 UNL     1      24.191   1.063  53.045  1.00  0.00     0.111 A 
HETATM    6  N3  UNL     1      24.207  -0.114  53.822  1.00  0.00    -0.235 N 
HETATM    7  N4  UNL     1      25.560   0.082  53.633  1.00  0.00    -0.183 NA
HETATM    8  C12 UNL     1      26.326  -0.798  53.149  1.00  0.00     0.117 C 
HETATM    9  C13 UNL     1      27.662  -0.475  52.998  1.00  0.00     0.041 A 
HETATM   10  C14 UNL     1      28.804  -0.719  54.136  1.00  0.00     0.035 A 
HETATM   11  C15 UNL     1      28.856   1.239  53.885  1.00  0.00     0.005 A 
HETATM   12  C16 UNL     1      28.595   2.482  53.458  1.00  0.00     0.035 A 
HETATM   13  C17 UNL     1      27.738   1.502  52.818  1.00  0.00     0.055 A 
HETATM   14  C18 UNL     1      28.323   0.472  53.489  1.00  0.00     0.006 A 
HETATM   15  N5  UNL     1      26.629   1.756  51.910  1.00  0.00    -0.362 N 
HETATM   16  C19 UNL     1      25.323   1.919  52.515  1.00  0.00     0.146 C 
HETATM   17  N6  UNL     1      25.278   3.171  52.570  1.00  0.00    -0.282 NA
HETATM   18  H23 UNL     1      27.014   1.781  50.959  1.00  0.00     0.162 HD
HETATM   19  H24 UNL     1      25.835   3.948  52.316  1.00  0.00     0.188 HD
ENDROOT
BRANCH   4  20
HETATM   20  C5  UNL     1      22.384   2.672  52.099  1.00  0.00     0.158 C 
BRANCH  20  21
HETATM   21  N1  UNL     1      21.266   2.343  51.291  1.00  0.00    -0.408 N 
HETATM   22  C6  UNL     1      21.437   2.103  49.930  1.00  0.00     0.119 C 
HETATM   23  C7  UNL     1      20.254   1.358  49.355  1.00  0.00     0.055 C 
HETATM   24  C8  UNL     1      18.929   1.915  49.791  1.00  0.00     0.221 C 
HETATM   25  C9  UNL     1      18.933   1.938  51.324  1.00  0.00     0.055 C 
HETATM   26  C10 UNL     1      20.040   2.928  51.676  1.00  0.00     0.119 C 
BRANCH  24  27
HETATM   27  N2  UNL     1      17.869   1.063  49.332  1.00  0.00     0.083 N 
HETATM   28  H12 UNL     1      17.000   1.145  49.898  1.00  0.00     0.313 HD
HETATM   29  H13 UNL     1      17.594   1.298  48.326  1.00  0.00     0.313 HD
ENDBRANCH  24  27
ENDBRANCH  20  21
ENDBRANCH   4  20
TORSDOF 3
ENDMDL
MODEL 2
REMARK VINA RESULT:      -8.7      1.352      1.804
REMARK  3 active torsions:
REMARK  status: ('A' for Active; 'I' for Inactive)
REMARK    1  A    between atoms: C4_4  and  C5_5 
REMARK    2  A    between atoms: C5_5  and  N1_6 
REMARK    3  A    between atoms: C8_9  and  N2_10 
ROOT
HETATM    1  C1  UNL     1      22.726  -1.667  54.717  1.00  0.00     0.070 C 
HETATM    2  C2  UNL     1      22.716  -0.375  53.990  1.00  0.00     0.033 A 
HETATM    3  C3  UNL     1      21.935   0.644  53.496  1.00  0.00     0.038 A 
HETATM    4  C4  UNL     1      22.705   1.610  52.905  1.00  0.00    -0.006 A 
HETATM    5  C11 UNL     1      23.990   1.125  53.065  1.00  0.00     0.111 A 
HETATM    6  N3  UNL     1      23.991  -0.114  53.739  1.00  0.00    -0.235 N 
HETATM    7  N4  UNL     1      25.344   0.059  53.528  1.00  0.00    -0.183 NA
HETATM    8  C12 UNL     1      26.070  -0.798  52.950  1.00  0.00     0.117 C 
HETATM    9  C13 UNL     1      27.410  -0.501  52.787  1.00  0.00     0.041 A 
HETATM   10  C14 UNL     1      28.575  -0.872  53.867  1.00  0.00     0.035 A 
HETATM   11  C15 UNL     1      28.680   1.099  53.778  1.00  0.00     0.005 A 
HETATM   12  C16 UNL     1      28.445   2.380  53.463  1.00  0.00     0.035 A 
HETATM   13  C17 UNL     1      27.541   1.481  52.770  1.00  0.00     0.055 A 
HETATM   14  C18 UNL     1      28.113   0.383  53.335  1.00  0.00     0.006 A 
HETATM   15  N5  UNL     1      26.417   1.841  51.919  1.00  0.00    -0.362 N 
HETATM   16  C19 UNL     1      25.133   1.990  52.574  1.00  0.00     0.146 C 
HETATM   17  N6  UNL     1      25.128   3.234  52.734  1.00  0.00    -0.282 NA
HETATM   18  H23 UNL     1      26.776   1.936  50.962  1.00  0.00     0.162 HD
HETATM   19  H24 UNL     1      25.702   4.013  52.529  1.00  0.00     0.188 HD
ENDROOT
BRANCH   4  20
HETATM   20  C5  UNL     1      22.208   2.857  52.309  1.00  0.00     0.158 C 
BRANCH  20  21
HETATM   21  N1  UNL     1      22.250   2.808  50.893  1.00  0.00    -0.408 N 
HETATM   22  C6  UNL     1      22.744   3.892  50.172  1.00  0.00     0.119 C 
HETATM   23  C7  UNL     1      23.111   3.489  48.762  1.00  0.00     0.055 C 
HETATM   24  C8  UNL     1      22.068   2.640  48.094  1.00  0.00     0.221 C 
HETATM   25  C9  UNL     1      21.809   1.439  49.012  1.00  0.00     0.055 C 
HETATM   26  C10 UNL     1      21.224   2.059  50.277  1.00  0.00     0.119 C 
BRANCH  24  27
HETATM   27  N2  UNL     1      22.559   2.172  46.829  1.00  0.00     0.083 N 
HETATM   28  H12 UNL     1      22.479   1.142  46.711  1.00  0.00     0.313 HD
HETATM   29  H13 UNL     1      22.013   2.609  46.019  1.00  0.00     0.313 HD
ENDBRANCH  24  27
ENDBRANCH  20  21
ENDBRANCH   4  20
TORSDOF 3
ENDMDL
MODEL 3
REMARK VINA RESULT:      -8.2      1.719      2.545
REMARK  3 active torsions:
REMARK  status: ('A' for Active; 'I' for Inactive)
REMARK    1  A    between atoms: C4_4  and  C5_5 
REMARK    2  A    between atoms: C5_5  and  N1_6 
REMARK    3  A    between atoms: C8_9  and  N2_10 
ROOT
HETATM    1  C1  UNL     1      22.540  -1.018  55.000  1.00  0.00     0.070 C 
HETATM    2  C2  UNL     1      22.684  -0.266  53.731  1.00  0.00     0.033 A 
HETATM    3  C3  UNL     1      22.027   0.268  52.647  1.00  0.00     0.038 A 
HETATM    4  C4  UNL     1      22.902   0.905  51.808  1.00  0.00    -0.006 A 
HETATM    5  C11 UNL     1      24.122   0.729  52.437  1.00  0.00     0.111 A 
HETATM    6  N3  UNL     1      23.980  -0.004  53.634  1.00  0.00    -0.235 N 
HETATM    7  N4  UNL     1      25.344   0.211  53.629  1.00  0.00    -0.183 NA
HETATM    8  C12 UNL     1      26.192  -0.720  53.721  1.00  0.00     0.117 C 
HETATM    9  C13 UNL     1      27.530  -0.375  53.692  1.00  0.00     0.041 A 
HETATM   10  C14 UNL     1      28.419  -0.015  55.011  1.00  0.00     0.035 A 
HETATM   11  C15 UNL     1      28.521   1.650  53.954  1.00  0.00     0.005 A 
HETATM   12  C16 UNL     1      28.351   2.568  52.992  1.00  0.00     0.035 A 
HETATM   13  C17 UNL     1      27.641   1.338  52.694  1.00  0.00     0.055 A 
HETATM   14  C18 UNL     1      28.079   0.745  53.838  1.00  0.00     0.006 A 
HETATM   15  N5  UNL     1      26.739   1.087  51.580  1.00  0.00    -0.362 N 
HETATM   16  C19 UNL     1      25.337   1.376  51.805  1.00  0.00     0.146 C 
HETATM   17  N6  UNL     1      25.282   2.524  51.305  1.00  0.00    -0.282 NA
HETATM   18  H23 UNL     1      27.308   0.741  50.798  1.00  0.00     0.162 HD
HETATM   19  H24 UNL     1      25.879   3.167  50.847  1.00  0.00     0.188 HD
ENDROOT
BRANCH   4  20
HETATM   20  C5  UNL     1      22.543   1.623  50.578  1.00  0.00     0.158 C 
BRANCH  20  21
HETATM   21  N1  UNL     1      22.311   2.999  50.828  1.00  0.00    -0.408 N 
HETATM   22  C6  UNL     1      21.761   3.404  52.041  1.00  0.00     0.119 C 
HETATM   23  C7  UNL     1      22.001   4.877  52.285  1.00  0.00     0.055 C 
HETATM   24  C8  UNL     1      21.720   5.734  51.084  1.00  0.00     0.221 C 
HETATM   25  C9  UNL     1      22.556   5.175  49.926  1.00  0.00     0.055 C 
HETATM   26  C10 UNL     1      21.984   3.779  49.697  1.00  0.00     0.119 C 
BRANCH  24  27
HETATM   27  N2  UNL     1      22.120   7.087  51.348  1.00  0.00     0.083 N 
HETATM   28  H12 UNL     1      23.119   7.272  51.126  1.00  0.00     0.313 HD
HETATM   29  H13 UNL     1      21.551   7.778  50.762  1.00  0.00     0.313 HD
ENDBRANCH  24  27
ENDBRANCH  20  21
ENDBRANCH   4  20
TORSDOF 3
ENDMDL
MODEL 4
REMARK VINA RESULT:      -8.0      3.051      6.306
REMARK  3 active torsions:
REMARK  status: ('A' for Active; 'I' for Inactive)
REMARK    1  A    between atoms: C4_4  and  C5_5 
REMARK    2  A    between atoms: C5_5  and  N1_6 
REMARK    3  A    between atoms: C8_9  and  N2_10 
ROOT
HETATM    1  C1  UNL     1      26.175   0.412  52.103  1.00  0.00     0.070 C 
HETATM    2  C2  UNL     1      25.211   1.401  51.562  1.00  0.00     0.033 A 
HETATM    3  C3  UNL     1      25.048   2.501  50.754  1.00  0.00     0.038 A 
HETATM    4  C4  UNL     1      23.736   2.892  50.717  1.00  0.00    -0.006 A 
HETATM    5  C11 UNL     1      23.114   1.974  51.544  1.00  0.00     0.111 A 
HETATM    6  N3  UNL     1      24.039   1.048  52.070  1.00  0.00    -0.235 N 
HETATM    7  N4  UNL     1      22.872   0.599  52.655  1.00  0.00    -0.183 NA
HETATM    8  C12 UNL     1      22.736   0.446  53.901  1.00  0.00     0.117 C 
HETATM    9  C13 UNL     1      21.511   0.002  54.364  1.00  0.00     0.041 A 
HETATM   10  C14 UNL     1      21.115  -1.568  54.560  1.00  0.00     0.035 A 
HETATM   11  C15 UNL     1      19.784  -0.948  53.239  1.00  0.00     0.005 A 
HETATM   12  C16 UNL     1      19.088  -0.184  52.385  1.00  0.00     0.035 A 
HETATM   13  C17 UNL     1      20.171   0.554  53.008  1.00  0.00     0.055 A 
HETATM   14  C18 UNL     1      20.556  -0.525  53.742  1.00  0.00     0.006 A 
HETATM   15  N5  UNL     1      20.596   1.915  52.713  1.00  0.00    -0.362 N 
HETATM   16  C19 UNL     1      21.609   2.068  51.689  1.00  0.00     0.146 C 
HETATM   17  N6  UNL     1      20.871   2.320  50.707  1.00  0.00    -0.282 NA
HETATM   18  H23 UNL     1      20.054   2.542  53.319  1.00  0.00     0.162 HD
HETATM   19  H24 UNL     1      19.909   2.438  50.510  1.00  0.00     0.188 HD
ENDROOT
BRANCH   4  20
HETATM   20  C5  UNL     1      23.194   4.003  49.923  1.00  0.00     0.158 C 
BRANCH  20  21
HETATM   21  N1  UNL     1      23.985   5.172  50.060  1.00  0.00    -0.408 N 
HETATM   22  C6  UNL     1      23.527   6.238  50.829  1.00  0.00     0.119 C 
HETATM   23  C7  UNL     1      24.659   7.167  51.205  1.00  0.00     0.055 C 
HETATM   24  C8  UNL     1      25.571   7.492  50.057  1.00  0.00     0.221 C 
HETATM   25  C9  UNL     1      26.058   6.159  49.477  1.00  0.00     0.055 C 
HETATM   26  C10 UNL     1      24.788   5.500  48.946  1.00  0.00     0.119 C 
BRANCH  24  27
HETATM   27  N2  UNL     1      26.698   8.244  50.529  1.00  0.00     0.083 N 
HETATM   28  H12 UNL     1      27.427   7.655  50.980  1.00  0.00     0.313 HD
HETATM   29  H13 UNL     1      27.183   8.757  49.725  1.00  0.00     0.313 HD
ENDBRANCH  24  27
ENDBRANCH  20  21
ENDBRANCH   4  20
TORSDOF 3
ENDMDL
MODEL 5
REMARK VINA RESULT:      -7.9      1.553      3.269
REMARK  3 active torsions:
REMARK  status: ('A' for Active; 'I' for Inactive)
REMARK    1  A    between atoms: C4_4  and  C5_5 
REMARK    2  A    between atoms: C5_5  and  N1_6 
REMARK    3  A    between atoms: C8_9  and  N2_10 
ROOT
HETATM    1  C1  UNL     1      22.985   4.687  51.793  1.00  0.00     0.070 C 
HETATM    2  C2  UNL     1      22.388   3.415  52.264  1.00  0.00     0.033 A 
HETATM    3  C3  UNL     1      21.220   2.730  52.506  1.00  0.00     0.038 A 
HETATM    4  C4  UNL     1      21.479   1.464  52.959  1.00  0.00    -0.006 A 
HETATM    5  C11 UNL     1      22.861   1.417  52.981  1.00  0.00     0.111 A 
HETATM    6  N3  UNL     1      23.423   2.637  52.550  1.00  0.00    -0.235 N 
HETATM    7  N4  UNL     1      24.567   1.913  52.819  1.00  0.00    -0.183 NA
HETATM    8  C12 UNL     1      25.477   2.320  53.594  1.00  0.00     0.117 C 
HETATM    9  C13 UNL     1      26.570   1.496  53.791  1.00  0.00     0.041 A 
HETATM   10  C14 UNL     1      27.923   1.526  52.882  1.00  0.00     0.035 A 
HETATM   11  C15 UNL     1      27.262  -0.315  52.611  1.00  0.00     0.005 A 
HETATM   12  C16 UNL     1      26.519  -1.430  52.666  1.00  0.00     0.035 A 
HETATM   13  C17 UNL     1      25.937  -0.356  53.450  1.00  0.00     0.055 A 
HETATM   14  C18 UNL     1      26.954   0.495  53.138  1.00  0.00     0.006 A 
HETATM   15  N5  UNL     1      24.655  -0.359  54.139  1.00  0.00    -0.362 N 
HETATM   16  C19 UNL     1      23.513   0.109  53.381  1.00  0.00     0.146 C 
HETATM   17  N6  UNL     1      23.059  -0.994  52.993  1.00  0.00    -0.282 NA
HETATM   18  H23 UNL     1      24.818  -0.725  55.084  1.00  0.00     0.162 HD
HETATM   19  H24 UNL     1      23.261  -1.958  53.088  1.00  0.00     0.188 HD
ENDROOT
BRANCH   4  20
HETATM   20  C5  UNL     1      20.471   0.444  53.277  1.00  0.00     0.158 C 
BRANCH  20  21
HETATM   21  N1  UNL     1      19.496   0.340  52.252  1.00  0.00    -0.408 N 
HETATM   22  C6  UNL     1      18.331  -0.390  52.469  1.00  0.00     0.119 C 
HETATM   23  C7  UNL     1      17.261  -0.022  51.466  1.00  0.00     0.055 C 
HETATM   24  C8  UNL     1      17.768   0.056  50.055  1.00  0.00     0.221 C 
HETATM   25  C9  UNL     1      18.951   1.032  50.054  1.00  0.00     0.055 C 
HETATM   26  C10 UNL     1      19.996   0.349  50.931  1.00  0.00     0.119 C 
BRANCH  24  27
HETATM   27  N2  UNL     1      16.736   0.560  49.194  1.00  0.00     0.083 N 
HETATM   28  H12 UNL     1      16.366   1.484  49.493  1.00  0.00     0.313 HD
HETATM   29  H13 UNL     1      17.097   0.691  48.196  1.00  0.00     0.313 HD
ENDBRANCH  24  27
ENDBRANCH  20  21
ENDBRANCH   4  20
TORSDOF 3
ENDMDL
MODEL 6
REMARK VINA RESULT:      -7.7      3.043      4.582
REMARK  3 active torsions:
REMARK  status: ('A' for Active; 'I' for Inactive)
REMARK    1  A    between atoms: C4_4  and  C5_5 
REMARK    2  A    between atoms: C5_5  and  N1_6 
REMARK    3  A    between atoms: C8_9  and  N2_10 
ROOT
HETATM    1  C1  UNL     1      27.476   4.427  48.954  1.00  0.00     0.070 C 
HETATM    2  C2  UNL     1      26.109   4.116  49.434  1.00  0.00     0.033 A 
HETATM    3  C3  UNL     1      24.767   4.379  49.287  1.00  0.00     0.038 A 
HETATM    4  C4  UNL     1      24.021   3.620  50.149  1.00  0.00    -0.006 A 
HETATM    5  C11 UNL     1      24.978   2.885  50.826  1.00  0.00     0.111 A 
HETATM    6  N3  UNL     1      26.278   3.200  50.378  1.00  0.00    -0.235 N 
HETATM    7  N4  UNL     1      26.565   2.256  51.343  1.00  0.00    -0.183 NA
HETATM    8  C12 UNL     1      27.362   2.466  52.301  1.00  0.00     0.117 C 
HETATM    9  C13 UNL     1      27.556   1.443  53.211  1.00  0.00     0.041 A 
HETATM   10  C14 UNL     1      28.702   0.290  53.072  1.00  0.00     0.035 A 
HETATM   11  C15 UNL     1      27.029  -0.760  53.062  1.00  0.00     0.005 A 
HETATM   12  C16 UNL     1      25.734  -1.105  53.080  1.00  0.00     0.035 A 
HETATM   13  C17 UNL     1      25.910   0.333  53.159  1.00  0.00     0.055 A 
HETATM   14  C18 UNL     1      27.266   0.224  53.129  1.00  0.00     0.006 A 
HETATM   15  N5  UNL     1      24.870   1.352  53.139  1.00  0.00    -0.362 N 
HETATM   16  C19 UNL     1      24.495   1.867  51.838  1.00  0.00     0.146 C 
HETATM   17  N6  UNL     1      23.490   1.150  51.617  1.00  0.00    -0.282 NA
HETATM   18  H23 UNL     1      24.580   1.511  54.111  1.00  0.00     0.162 HD
HETATM   19  H24 UNL     1      22.968   0.440  52.066  1.00  0.00     0.188 HD
ENDROOT
BRANCH   4  20
HETATM   20  C5  UNL     1      22.555   3.613  50.237  1.00  0.00     0.158 C 
BRANCH  20  21
HETATM   21  N1  UNL     1      22.021   4.921  50.110  1.00  0.00    -0.408 N 
HETATM   22  C6  UNL     1      21.857   5.719  51.239  1.00  0.00     0.119 C 
HETATM   23  C7  UNL     1      21.706   7.176  50.861  1.00  0.00     0.055 C 
HETATM   24  C8  UNL     1      20.758   7.400  49.718  1.00  0.00     0.221 C 
HETATM   25  C9  UNL     1      21.240   6.526  48.554  1.00  0.00     0.055 C 
HETATM   26  C10 UNL     1      21.082   5.099  49.072  1.00  0.00     0.119 C 
BRANCH  24  27
HETATM   27  N2  UNL     1      20.792   8.779  49.322  1.00  0.00     0.083 N 
HETATM   28  H12 UNL     1      19.994   9.052  48.712  1.00  0.00     0.313 HD
HETATM   29  H13 UNL     1      20.752   9.425  50.173  1.00  0.00     0.313 HD
ENDBRANCH  24  27
ENDBRANCH  20  21
ENDBRANCH   4  20
TORSDOF 3
ENDMDL
MODEL 7
REMARK VINA RESULT:      -7.6      3.006      7.333
REMARK  3 active torsions:
REMARK  status: ('A' for Active; 'I' for Inactive)
REMARK    1  A    between atoms: C4_4  and  C5_5 
REMARK    2  A    between atoms: C5_5  and  N1_6 
REMARK    3  A    between atoms: C8_9  and  N2_10 
ROOT
HETATM    1  C1  UNL     1      21.416   1.224  48.971  1.00  0.00     0.070 C 
HETATM    2  C2  UNL     1      22.225   1.746  50.098  1.00  0.00     0.033 A 
HETATM    3  C3  UNL     1      23.089   1.427  51.119  1.00  0.00     0.038 A 
HETATM    4  C4  UNL     1      23.479   2.549  51.801  1.00  0.00    -0.006 A 
HETATM    5  C11 UNL     1      22.807   3.563  51.143  1.00  0.00     0.111 A 
HETATM    6  N3  UNL     1      22.025   3.057  50.084  1.00  0.00    -0.235 N 
HETATM    7  N4  UNL     1      21.745   4.405  49.983  1.00  0.00    -0.183 NA
HETATM    8  C12 UNL     1      20.571   4.871  49.993  1.00  0.00     0.117 C 
HETATM    9  C13 UNL     1      20.424   6.242  49.897  1.00  0.00     0.041 A 
HETATM   10  C14 UNL     1      20.277   7.058  48.492  1.00  0.00     0.035 A 
HETATM   11  C15 UNL     1      21.920   7.830  49.271  1.00  0.00     0.005 A 
HETATM   12  C16 UNL     1      22.954   8.084  50.086  1.00  0.00     0.035 A 
HETATM   13  C17 UNL     1      22.101   7.032  50.609  1.00  0.00     0.055 A 
HETATM   14  C18 UNL     1      21.251   7.121  49.550  1.00  0.00     0.006 A 
HETATM   15  N5  UNL     1      22.327   6.219  51.795  1.00  0.00    -0.362 N 
HETATM   16  C19 UNL     1      23.059   4.984  51.601  1.00  0.00     0.146 C 
HETATM   17  N6  UNL     1      24.208   5.376  51.919  1.00  0.00    -0.282 NA
HETATM   18  H23 UNL     1      21.906   6.715  52.589  1.00  0.00     0.162 HD
HETATM   19  H24 UNL     1      24.652   6.200  52.239  1.00  0.00     0.188 HD
ENDROOT
BRANCH   4  20
HETATM   20  C5  UNL     1      24.427   2.584  52.922  1.00  0.00     0.158 C 
BRANCH  20  21
HETATM   21  N1  UNL     1      25.163   1.376  53.018  1.00  0.00    -0.408 N 
HETATM   22  C6  UNL     1      24.989   0.539  54.117  1.00  0.00     0.119 C 
HETATM   23  C7  UNL     1      25.501  -0.854  53.829  1.00  0.00     0.055 C 
HETATM   24  C8  UNL     1      26.847  -0.869  53.163  1.00  0.00     0.221 C 
HETATM   25  C9  UNL     1      26.737   0.000  51.905  1.00  0.00     0.055 C 
HETATM   26  C10 UNL     1      26.453   1.399  52.445  1.00  0.00     0.119 C 
BRANCH  24  27
HETATM   27  N2  UNL     1      27.187  -2.211  52.785  1.00  0.00     0.083 N 
HETATM   28  H12 UNL     1      27.182  -2.363  51.756  1.00  0.00     0.313 HD
HETATM   29  H13 UNL     1      28.170  -2.467  53.119  1.00  0.00     0.313 HD
ENDBRANCH  24  27
ENDBRANCH  20  21
ENDBRANCH   4  20
TORSDOF 3
ENDMDL
MODEL 8
REMARK VINA RESULT:      -7.5      3.401      4.954
REMARK  3 active torsions:
REMARK  status: ('A' for Active; 'I' for Inactive)
REMARK    1  A    between atoms: C4_4  and  C5_5 
REMARK    2  A    between atoms: C5_5  and  N1_6 
REMARK    3  A    between atoms: C8_9  and  N2_10 
ROOT
HETATM    1  C1  UNL     1      21.179   2.365  52.652  1.00  0.00     0.070 C 
HETATM    2  C2  UNL     1      22.132   2.883  51.642  1.00  0.00     0.033 A 
HETATM    3  C3  UNL     1      22.280   3.649  50.509  1.00  0.00     0.038 A 
HETATM    4  C4  UNL     1      23.591   3.694  50.116  1.00  0.00    -0.006 A 
HETATM    5  C11 UNL     1      24.229   2.916  51.066  1.00  0.00     0.111 A 
HETATM    6  N3  UNL     1      23.314   2.411  52.013  1.00  0.00    -0.235 N 
HETATM    7  N4  UNL     1      24.492   1.866  52.484  1.00  0.00    -0.183 NA
HETATM    8  C12 UNL     1      24.650   0.630  52.688  1.00  0.00     0.117 C 
HETATM    9  C13 UNL     1      25.883   0.208  53.150  1.00  0.00     0.041 A 
HETATM   10  C14 UNL     1      26.284   0.083  54.726  1.00  0.00     0.035 A 
HETATM   11  C15 UNL     1      27.590   1.402  54.051  1.00  0.00     0.005 A 
HETATM   12  C16 UNL     1      28.270   2.236  53.253  1.00  0.00     0.035 A 
HETATM   13  C17 UNL     1      27.199   1.565  52.541  1.00  0.00     0.055 A 
HETATM   14  C18 UNL     1      26.827   0.867  53.649  1.00  0.00     0.006 A 
HETATM   15  N5  UNL     1      26.768   1.796  51.170  1.00  0.00    -0.362 N 
HETATM   16  C19 UNL     1      25.736   2.794  50.977  1.00  0.00     0.146 C 
HETATM   17  N6  UNL     1      26.456   3.779  50.685  1.00  0.00    -0.282 NA
HETATM   18  H23 UNL     1      27.321   1.175  50.568  1.00  0.00     0.162 HD
HETATM   19  H24 UNL     1      27.415   3.989  50.558  1.00  0.00     0.188 HD
ENDROOT
BRANCH   4  20
HETATM   20  C5  UNL     1      24.119   4.451  48.973  1.00  0.00     0.158 C 
BRANCH  20  21
HETATM   21  N1  UNL     1      24.536   5.750  49.359  1.00  0.00    -0.408 N 
HETATM   22  C6  UNL     1      23.649   6.602  50.012  1.00  0.00     0.119 C 
HETATM   23  C7  UNL     1      24.384   7.722  50.713  1.00  0.00     0.055 C 
HETATM   24  C8  UNL     1      25.448   8.359  49.866  1.00  0.00     0.221 C 
HETATM   25  C9  UNL     1      26.379   7.236  49.394  1.00  0.00     0.055 C 
HETATM   26  C10 UNL     1      25.489   6.362  48.516  1.00  0.00     0.119 C 
BRANCH  24  27
HETATM   27  N2  UNL     1      26.197   9.298  50.652  1.00  0.00     0.083 N 
HETATM   28  H12 UNL     1      26.349   8.986  51.633  1.00  0.00     0.313 HD
HETATM   29  H13 UNL     1      27.169   9.458  50.236  1.00  0.00     0.313 HD
ENDBRANCH  24  27
ENDBRANCH  20  21
ENDBRANCH   4  20
TORSDOF 3
ENDMDL
MODEL 9
REMARK VINA RESULT:      -7.5      3.604      6.491
REMARK  3 active torsions:
REMARK  status: ('A' for Active; 'I' for Inactive)
REMARK    1  A    between atoms: C4_4  and  C5_5 
REMARK    2  A    between atoms: C5_5  and  N1_6 
REMARK    3  A    between atoms: C8_9  and  N2_10 
ROOT
HETATM    1  C1  UNL     1      20.779   3.352  47.659  1.00  0.00     0.070 C 
HETATM    2  C2  UNL     1      21.693   2.992  48.769  1.00  0.00     0.033 A 
HETATM    3  C3  UNL     1      22.209   1.967  49.526  1.00  0.00     0.038 A 
HETATM    4  C4  UNL     1      23.108   2.441  50.444  1.00  0.00    -0.006 A 
HETATM    5  C11 UNL     1      23.109   3.803  50.206  1.00  0.00     0.111 A 
HETATM    6  N3  UNL     1      22.223   4.142  49.162  1.00  0.00    -0.235 N 
HETATM    7  N4  UNL     1      22.711   5.390  49.493  1.00  0.00    -0.183 NA
HETATM    8  C12 UNL     1      21.967   6.365  49.796  1.00  0.00     0.117 C 
HETATM    9  C13 UNL     1      22.579   7.562  50.122  1.00  0.00     0.041 A 
HETATM   10  C14 UNL     1      22.950   8.730  49.047  1.00  0.00     0.035 A 
HETATM   11  C15 UNL     1      24.716   8.246  49.785  1.00  0.00     0.005 A 
HETATM   12  C16 UNL     1      25.690   7.655  50.492  1.00  0.00     0.035 A 
HETATM   13  C17 UNL     1      24.387   7.096  50.798  1.00  0.00     0.055 A 
HETATM   14  C18 UNL     1      23.761   7.941  49.935  1.00  0.00     0.006 A 
HETATM   15  N5  UNL     1      24.094   5.957  51.657  1.00  0.00    -0.362 N 
HETATM   16  C19 UNL     1      24.061   4.657  51.017  1.00  0.00     0.146 C 
HETATM   17  N6  UNL     1      25.227   4.273  51.276  1.00  0.00    -0.282 NA
HETATM   18  H23 UNL     1      23.969   6.317  52.609  1.00  0.00     0.162 HD
HETATM   19  H24 UNL     1      26.028   4.597  51.757  1.00  0.00     0.188 HD
ENDROOT
BRANCH   4  20
HETATM   20  C5  UNL     1      23.881   1.623  51.389  1.00  0.00     0.158 C 
BRANCH  20  21
HETATM   21  N1  UNL     1      23.033   0.938  52.297  1.00  0.00    -0.408 N 
HETATM   22  C6  UNL     1      22.009   1.622  52.945  1.00  0.00     0.119 C 
HETATM   23  C7  UNL     1      20.978   0.664  53.500  1.00  0.00     0.055 C 
HETATM   24  C8  UNL     1      21.581  -0.509  54.218  1.00  0.00     0.221 C 
HETATM   25  C9  UNL     1      22.559  -1.179  53.245  1.00  0.00     0.055 C 
HETATM   26  C10 UNL     1      23.633  -0.121  53.012  1.00  0.00     0.119 C 
BRANCH  24  27
HETATM   27  N2  UNL     1      20.551  -1.443  54.573  1.00  0.00     0.083 N 
HETATM   28  H12 UNL     1      19.704  -1.370  53.974  1.00  0.00     0.313 HD
HETATM   29  H13 UNL     1      20.897  -2.451  54.481  1.00  0.00     0.313 HD
ENDBRANCH  24  27
ENDBRANCH  20  21
ENDBRANCH   4  20
TORSDOF 3
ENDMDL
