MODEL 1
REMARK VINA RESULT:      -8.9      0.000      0.000
REMARK  7 active torsions:
REMARK  status: ('A' for Active; 'I' for Inactive)
REMARK    1  A    between atoms: N1_1  and  C1_2 
REMARK    2  A    between atoms: C1_2  and  N2_3 
REMARK    3  A    between atoms: C3_6  and  N4_7 
REMARK    4  A    between atoms: N4_7  and  C4_8 
REMARK    5  A    between atoms: C10_15  and  C11_16 
REMARK    6  A    between atoms: C12_17  and  C13_18 
REMARK    7  A    between atoms: C13_18  and  C14_19 
ROOT
HETATM    1  N2  UNL     1      27.517   0.159  54.295  1.00  0.00    -0.242 NA
HETATM    2  C2  UNL     1      26.651   1.086  53.962  1.00  0.00     0.140 A 
HETATM    3  N3  UNL     1      26.873   2.487  53.952  1.00  0.00    -0.326 N 
HETATM    4  C3  UNL     1      25.529   2.496  53.525  1.00  0.00     0.121 A 
HETATM    5  C10 UNL     1      25.244   1.233  53.506  1.00  0.00     0.053 A 
HETATM    6  H5  UNL     1      27.630   3.190  54.154  1.00  0.00     0.169 HD
ENDROOT
BRANCH   5   7
HETATM    7  C11 UNL     1      24.387   0.082  53.301  1.00  0.00     0.015 C 
HETATM    8  C12 UNL     1      23.095   0.298  53.243  1.00  0.00    -0.021 C 
BRANCH   8   9
HETATM    9  C13 UNL     1      21.995  -0.650  53.050  1.00  0.00     0.066 C 
BRANCH   9  10
HETATM   10  C14 UNL     1      21.048  -0.078  52.053  1.00  0.00    -0.044 A 
HETATM   11  C15 UNL     1      21.528   0.678  50.973  1.00  0.00     0.008 A 
HETATM   12  C16 UNL     1      20.609   1.188  50.076  1.00  0.00     0.001 A 
HETATM   13  C17 UNL     1      19.257   0.977  50.214  1.00  0.00     0.012 A 
HETATM   14  C18 UNL     1      18.773   0.228  51.284  1.00  0.00    -0.025 A 
HETATM   15  C19 UNL     1      17.406   0.065  51.345  1.00  0.00     0.012 A 
HETATM   16  C23 UNL     1      19.694  -0.279  52.177  1.00  0.00    -0.019 A 
HETATM   17  C20 UNL     1      16.921  -0.688  52.423  1.00  0.00     0.001 A 
HETATM   18  C21 UNL     1      17.812  -1.213  53.339  1.00  0.00     0.001 A 
HETATM   19  C22 UNL     1      19.191  -1.013  53.222  1.00  0.00     0.013 A 
ENDBRANCH   9  10
ENDBRANCH   8   9
ENDBRANCH   5   7
BRANCH   4  20
HETATM   20  N4  UNL     1      24.696   3.589  53.212  1.00  0.00    -0.342 N 
HETATM   21  H6  UNL     1      24.726   4.496  53.756  1.00  0.00     0.167 HD
BRANCH  20  22
HETATM   22  C4  UNL     1      23.686   3.981  52.308  1.00  0.00     0.033 A 
HETATM   23  C5  UNL     1      22.471   4.655  52.443  1.00  0.00     0.031 A 
HETATM   24  C6  UNL     1      21.716   4.893  51.332  1.00  0.00     0.026 A 
HETATM   25  C7  UNL     1      22.096   4.499  50.092  1.00  0.00     0.034 A 
HETATM   26 CL1  UNL     1      21.028   4.871  48.737  1.00  0.00    -0.084 Cl
HETATM   27  C8  UNL     1      23.294   3.825  49.903  1.00  0.00     0.026 A 
HETATM   28  C9  UNL     1      24.078   3.573  51.024  1.00  0.00     0.031 A 
ENDBRANCH  20  22
ENDBRANCH   4  20
BRANCH   1  29
HETATM   29  C1  UNL     1      28.845   0.463  54.707  1.00  0.00     0.417 C 
BRANCH  29  30
HETATM   30  N1  UNL     1      29.787   0.520  53.605  1.00  0.00     0.097 N 
HETATM   31  H1  UNL     1      30.760   0.677  53.923  1.00  0.00     0.315 HD
HETATM   32  H2  UNL     1      29.471   1.109  52.813  1.00  0.00     0.315 HD
ENDBRANCH  29  30
ENDBRANCH   1  29
TORSDOF 7
ENDMDL
MODEL 2
REMARK VINA RESULT:      -8.8      3.004      5.174
REMARK  7 active torsions:
REMARK  status: ('A' for Active; 'I' for Inactive)
REMARK    1  A    between atoms: N1_1  and  C1_2 
REMARK    2  A    between atoms: C1_2  and  N2_3 
REMARK    3  A    between atoms: C3_6  and  N4_7 
REMARK    4  A    between atoms: N4_7  and  C4_8 
REMARK    5  A    between atoms: C10_15  and  C11_16 
REMARK    6  A    between atoms: C12_17  and  C13_18 
REMARK    7  A    between atoms: C13_18  and  C14_19 
ROOT
HETATM    1  N2  UNL     1      25.462   5.867  48.884  1.00  0.00    -0.242 NA
HETATM    2  C2  UNL     1      25.759   4.729  49.467  1.00  0.00     0.140 A 
HETATM    3  N3  UNL     1      27.042   4.315  49.907  1.00  0.00    -0.326 N 
HETATM    4  C3  UNL     1      26.320   3.166  50.290  1.00  0.00     0.121 A 
HETATM    5  C10 UNL     1      25.117   3.467  49.918  1.00  0.00     0.053 A 
HETATM    6  H5  UNL     1      28.037   4.657  49.944  1.00  0.00     0.169 HD
ENDROOT
BRANCH   5   7
HETATM    7  C11 UNL     1      23.698   3.232  49.746  1.00  0.00     0.015 C 
HETATM    8  C12 UNL     1      23.196   2.153  50.296  1.00  0.00    -0.021 C 
BRANCH   8   9
HETATM    9  C13 UNL     1      21.818   1.655  50.293  1.00  0.00     0.066 C 
BRANCH   9  10
HETATM   10  C14 UNL     1      21.577   0.929  51.570  1.00  0.00    -0.044 A 
HETATM   11  C15 UNL     1      22.599   0.814  52.525  1.00  0.00     0.008 A 
HETATM   12  C16 UNL     1      22.324   0.130  53.693  1.00  0.00     0.001 A 
HETATM   13  C17 UNL     1      21.094  -0.432  53.941  1.00  0.00     0.012 A 
HETATM   14  C18 UNL     1      20.075  -0.323  52.999  1.00  0.00    -0.025 A 
HETATM   15  C19 UNL     1      18.874  -0.915  53.328  1.00  0.00     0.012 A 
HETATM   16  C23 UNL     1      20.353   0.360  51.834  1.00  0.00    -0.019 A 
HETATM   17  C20 UNL     1      17.850  -0.804  52.378  1.00  0.00     0.001 A 
HETATM   18  C21 UNL     1      18.090  -0.127  51.198  1.00  0.00     0.001 A 
HETATM   19  C22 UNL     1      19.330   0.453  50.922  1.00  0.00     0.013 A 
ENDBRANCH   9  10
ENDBRANCH   8   9
ENDBRANCH   5   7
BRANCH   4  20
HETATM   20  N4  UNL     1      26.779   1.983  50.904  1.00  0.00    -0.342 N 
HETATM   21  H6  UNL     1      27.642   1.471  50.570  1.00  0.00     0.167 HD
BRANCH  20  22
HETATM   22  C4  UNL     1      26.468   1.097  51.957  1.00  0.00     0.033 A 
HETATM   23  C5  UNL     1      26.388  -0.293  52.064  1.00  0.00     0.031 A 
HETATM   24  C6  UNL     1      26.066  -0.850  53.267  1.00  0.00     0.026 A 
HETATM   25  C7  UNL     1      25.816  -0.106  54.372  1.00  0.00     0.034 A 
HETATM   26 CL1  UNL     1      25.412  -0.950  55.868  1.00  0.00    -0.084 Cl
HETATM   27  C8  UNL     1      25.881   1.279  54.320  1.00  0.00     0.026 A 
HETATM   28  C9  UNL     1      26.209   1.865  53.103  1.00  0.00     0.031 A 
ENDBRANCH  20  22
ENDBRANCH   4  20
BRANCH   1  29
HETATM   29  C1  UNL     1      26.437   6.866  48.610  1.00  0.00     0.417 C 
BRANCH  29  30
HETATM   30  N1  UNL     1      26.836   7.612  49.789  1.00  0.00     0.097 N 
HETATM   31  H1  UNL     1      26.064   7.720  50.470  1.00  0.00     0.315 HD
HETATM   32  H2  UNL     1      27.374   8.473  49.579  1.00  0.00     0.315 HD
ENDBRANCH  29  30
ENDBRANCH   1  29
TORSDOF 7
ENDMDL
MODEL 3
REMARK VINA RESULT:      -8.5      2.364      4.708
REMARK  7 active torsions:
REMARK  status: ('A' for Active; 'I' for Inactive)
REMARK    1  A    between atoms: N1_1  and  C1_2 
REMARK    2  A    between atoms: C1_2  and  N2_3 
REMARK    3  A    between atoms: C3_6  and  N4_7 
REMARK    4  A    between atoms: N4_7  and  C4_8 
REMARK    5  A    between atoms: C10_15  and  C11_16 
REMARK    6  A    between atoms: C12_17  and  C13_18 
REMARK    7  A    between atoms: C13_18  and  C14_19 
ROOT
HETATM    1  N2  UNL     1      28.297  -0.831  52.801  1.00  0.00    -0.242 NA
HETATM    2  C2  UNL     1      27.046  -0.594  53.119  1.00  0.00     0.140 A 
HETATM    3  N3  UNL     1      26.291  -1.248  54.126  1.00  0.00    -0.326 N 
HETATM    4  C3  UNL     1      25.290  -0.368  53.666  1.00  0.00     0.121 A 
HETATM    5  C10 UNL     1      25.908   0.279  52.730  1.00  0.00     0.053 A 
HETATM    6  H5  UNL     1      26.390  -2.001  54.854  1.00  0.00     0.169 HD
ENDROOT
BRANCH   5   7
HETATM    7  C11 UNL     1      26.028   1.258  51.668  1.00  0.00     0.015 C 
HETATM    8  C12 UNL     1      25.100   2.181  51.594  1.00  0.00    -0.021 C 
BRANCH   8   9
HETATM    9  C13 UNL     1      24.953   3.287  50.644  1.00  0.00     0.066 C 
BRANCH   9  10
HETATM   10  C14 UNL     1      23.566   3.819  50.750  1.00  0.00    -0.044 A 
HETATM   11  C15 UNL     1      23.291   4.922  51.572  1.00  0.00     0.008 A 
HETATM   12  C16 UNL     1      21.988   5.376  51.636  1.00  0.00     0.001 A 
HETATM   13  C17 UNL     1      20.970   4.784  50.926  1.00  0.00     0.012 A 
HETATM   14  C18 UNL     1      21.235   3.689  50.109  1.00  0.00    -0.025 A 
HETATM   15  C19 UNL     1      20.158   3.157  49.433  1.00  0.00     0.012 A 
HETATM   16  C23 UNL     1      22.537   3.238  50.047  1.00  0.00    -0.019 A 
HETATM   17  C20 UNL     1      20.427   2.054  48.611  1.00  0.00     0.001 A 
HETATM   18  C21 UNL     1      21.719   1.573  48.523  1.00  0.00     0.001 A 
HETATM   19  C22 UNL     1      22.772   2.156  49.235  1.00  0.00     0.013 A 
ENDBRANCH   9  10
ENDBRANCH   8   9
ENDBRANCH   5   7
BRANCH   4  20
HETATM   20  N4  UNL     1      23.954  -0.228  54.095  1.00  0.00    -0.342 N 
HETATM   21  H6  UNL     1      23.694  -0.155  55.118  1.00  0.00     0.167 HD
BRANCH  20  22
HETATM   22  C4  UNL     1      22.640  -0.135  53.591  1.00  0.00     0.033 A 
HETATM   23  C5  UNL     1      22.038   0.621  52.584  1.00  0.00     0.031 A 
HETATM   24  C6  UNL     1      20.706   0.456  52.335  1.00  0.00     0.026 A 
HETATM   25  C7  UNL     1      19.936  -0.416  53.029  1.00  0.00     0.034 A 
HETATM   26 CL1  UNL     1      18.227  -0.535  52.606  1.00  0.00    -0.084 Cl
HETATM   27  C8  UNL     1      20.484  -1.190  54.041  1.00  0.00     0.026 A 
HETATM   28  C9  UNL     1      21.840  -1.037  54.310  1.00  0.00     0.031 A 
ENDBRANCH  20  22
ENDBRANCH   4  20
BRANCH   1  29
HETATM   29  C1  UNL     1      29.081  -1.821  53.458  1.00  0.00     0.417 C 
BRANCH  29  30
HETATM   30  N1  UNL     1      28.684  -3.176  53.125  1.00  0.00     0.097 N 
HETATM   31  H1  UNL     1      27.815  -3.208  52.562  1.00  0.00     0.315 HD
HETATM   32  H2  UNL     1      28.727  -3.835  53.924  1.00  0.00     0.315 HD
ENDBRANCH  29  30
ENDBRANCH   1  29
TORSDOF 7
ENDMDL
MODEL 4
REMARK VINA RESULT:      -8.2      1.993      2.243
REMARK  7 active torsions:
REMARK  status: ('A' for Active; 'I' for Inactive)
REMARK    1  A    between atoms: N1_1  and  C1_2 
REMARK    2  A    between atoms: C1_2  and  N2_3 
REMARK    3  A    between atoms: C3_6  and  N4_7 
REMARK    4  A    between atoms: N4_7  and  C4_8 
REMARK    5  A    between atoms: C10_15  and  C11_16 
REMARK    6  A    between atoms: C12_17  and  C13_18 
REMARK    7  A    between atoms: C13_18  and  C14_19 
ROOT
HETATM    1  N2  UNL     1      27.083  -0.017  54.456  1.00  0.00    -0.242 NA
HETATM    2  C2  UNL     1      26.455   0.714  53.566  1.00  0.00     0.140 A 
HETATM    3  N3  UNL     1      26.984   1.822  52.856  1.00  0.00    -0.326 N 
HETATM    4  C3  UNL     1      25.689   1.829  52.300  1.00  0.00     0.121 A 
HETATM    5  C10 UNL     1      25.129   0.831  52.904  1.00  0.00     0.053 A 
HETATM    6  H5  UNL     1      27.873   2.378  52.765  1.00  0.00     0.169 HD
ENDROOT
BRANCH   5   7
HETATM    7  C11 UNL     1      24.043  -0.078  53.212  1.00  0.00     0.015 C 
HETATM    8  C12 UNL     1      22.821   0.360  53.024  1.00  0.00    -0.021 C 
BRANCH   8   9
HETATM    9  C13 UNL     1      21.540  -0.316  53.243  1.00  0.00     0.066 C 
BRANCH   9  10
HETATM   10  C14 UNL     1      20.607   0.077  52.151  1.00  0.00    -0.044 A 
HETATM   11  C15 UNL     1      21.072   0.814  51.051  1.00  0.00     0.008 A 
HETATM   12  C16 UNL     1      20.166   1.154  50.065  1.00  0.00     0.001 A 
HETATM   13  C17 UNL     1      18.841   0.793  50.133  1.00  0.00     0.012 A 
HETATM   14  C18 UNL     1      18.372   0.062  51.221  1.00  0.00    -0.025 A 
HETATM   15  C19 UNL     1      17.031  -0.257  51.208  1.00  0.00     0.012 A 
HETATM   16  C23 UNL     1      19.279  -0.275  52.203  1.00  0.00    -0.019 A 
HETATM   17  C20 UNL     1      16.560  -0.992  52.304  1.00  0.00     0.001 A 
HETATM   18  C21 UNL     1      17.438  -1.349  53.309  1.00  0.00     0.001 A 
HETATM   19  C22 UNL     1      18.790  -0.996  53.265  1.00  0.00     0.013 A 
ENDBRANCH   9  10
ENDBRANCH   8   9
ENDBRANCH   5   7
BRANCH   4  20
HETATM   20  N4  UNL     1      25.129   2.702  51.345  1.00  0.00    -0.342 N 
HETATM   21  H6  UNL     1      24.129   2.609  51.011  1.00  0.00     0.167 HD
BRANCH  20  22
HETATM   22  C4  UNL     1      25.455   3.823  50.551  1.00  0.00     0.033 A 
HETATM   23  C5  UNL     1      24.878   5.080  50.364  1.00  0.00     0.031 A 
HETATM   24  C6  UNL     1      25.471   5.962  49.508  1.00  0.00     0.026 A 
HETATM   25  C7  UNL     1      26.603   5.668  48.824  1.00  0.00     0.034 A 
HETATM   26 CL1  UNL     1      27.270   6.899  47.750  1.00  0.00    -0.084 Cl
HETATM   27  C8  UNL     1      27.216   4.432  48.973  1.00  0.00     0.026 A 
HETATM   28  C9  UNL     1      26.627   3.519  49.842  1.00  0.00     0.031 A 
ENDBRANCH  20  22
ENDBRANCH   4  20
BRANCH   1  29
HETATM   29  C1  UNL     1      28.433   0.227  54.833  1.00  0.00     0.417 C 
BRANCH  29  30
HETATM   30  N1  UNL     1      29.382  -0.631  54.147  1.00  0.00     0.097 N 
HETATM   31  H1  UNL     1      29.981  -1.163  54.803  1.00  0.00     0.315 HD
HETATM   32  H2  UNL     1      29.875  -0.168  53.362  1.00  0.00     0.315 HD
ENDBRANCH  29  30
ENDBRANCH   1  29
TORSDOF 7
ENDMDL
MODEL 5
REMARK VINA RESULT:      -8.2      1.863      2.858
REMARK  7 active torsions:
REMARK  status: ('A' for Active; 'I' for Inactive)
REMARK    1  A    between atoms: N1_1  and  C1_2 
REMARK    2  A    between atoms: C1_2  and  N2_3 
REMARK    3  A    between atoms: C3_6  and  N4_7 
REMARK    4  A    between atoms: N4_7  and  C4_8 
REMARK    5  A    between atoms: C10_15  and  C11_16 
REMARK    6  A    between atoms: C12_17  and  C13_18 
REMARK    7  A    between atoms: C13_18  and  C14_19 
ROOT
HETATM    1  N2  UNL     1      26.746  -1.404  53.412  1.00  0.00    -0.242 NA
HETATM    2  C2  UNL     1      26.095  -0.398  52.878  1.00  0.00     0.140 A 
HETATM    3  N3  UNL     1      26.585   0.500  51.896  1.00  0.00    -0.326 N 
HETATM    4  C3  UNL     1      25.298   1.056  52.050  1.00  0.00     0.121 A 
HETATM    5  C10 UNL     1      24.775   0.281  52.945  1.00  0.00     0.053 A 
HETATM    6  H5  UNL     1      27.450   0.688  51.326  1.00  0.00     0.169 HD
ENDROOT
BRANCH   5   7
HETATM    7  C11 UNL     1      23.727  -0.180  53.834  1.00  0.00     0.015 C 
HETATM    8  C12 UNL     1      22.501   0.202  53.568  1.00  0.00    -0.021 C 
BRANCH   8   9
HETATM    9  C13 UNL     1      21.252  -0.096  54.273  1.00  0.00     0.066 C 
BRANCH   9  10
HETATM   10  C14 UNL     1      20.117   0.122  53.336  1.00  0.00    -0.044 A 
HETATM   11  C15 UNL     1      19.204  -0.911  53.075  1.00  0.00     0.008 A 
HETATM   12  C16 UNL     1      18.168  -0.658  52.197  1.00  0.00     0.001 A 
HETATM   13  C17 UNL     1      18.011   0.562  51.582  1.00  0.00     0.012 A 
HETATM   14  C18 UNL     1      18.913   1.592  51.835  1.00  0.00    -0.025 A 
HETATM   15  C19 UNL     1      18.681   2.780  51.177  1.00  0.00     0.012 A 
HETATM   16  C23 UNL     1      19.946   1.335  52.712  1.00  0.00    -0.019 A 
HETATM   17  C20 UNL     1      19.591   3.815  51.432  1.00  0.00     0.001 A 
HETATM   18  C21 UNL     1      20.639   3.597  52.305  1.00  0.00     0.001 A 
HETATM   19  C22 UNL     1      20.821   2.367  52.943  1.00  0.00     0.013 A 
ENDBRANCH   9  10
ENDBRANCH   8   9
ENDBRANCH   5   7
BRANCH   4  20
HETATM   20  N4  UNL     1      24.723   2.174  51.413  1.00  0.00    -0.342 N 
HETATM   21  H6  UNL     1      24.989   3.167  51.665  1.00  0.00     0.167 HD
BRANCH  20  22
HETATM   22  C4  UNL     1      23.785   2.512  50.414  1.00  0.00     0.033 A 
HETATM   23  C5  UNL     1      23.632   3.602  49.556  1.00  0.00     0.031 A 
HETATM   24  C6  UNL     1      22.591   3.612  48.673  1.00  0.00     0.026 A 
HETATM   25  C7  UNL     1      21.692   2.602  48.593  1.00  0.00     0.034 A 
HETATM   26 CL1  UNL     1      20.393   2.736  47.406  1.00  0.00    -0.084 Cl
HETATM   27  C8  UNL     1      21.797   1.496  49.424  1.00  0.00     0.026 A 
HETATM   28  C9  UNL     1      22.851   1.467  50.331  1.00  0.00     0.031 A 
ENDBRANCH  20  22
ENDBRANCH   4  20
BRANCH   1  29
HETATM   29  C1  UNL     1      28.084  -1.729  53.051  1.00  0.00     0.417 C 
BRANCH  29  30
HETATM   30  N1  UNL     1      28.354  -3.154  53.083  1.00  0.00     0.097 N 
HETATM   31  H1  UNL     1      27.506  -3.714  53.288  1.00  0.00     0.315 HD
HETATM   32  H2  UNL     1      29.202  -3.410  53.621  1.00  0.00     0.315 HD
ENDBRANCH  29  30
ENDBRANCH   1  29
TORSDOF 7
ENDMDL
MODEL 6
REMARK VINA RESULT:      -8.1      4.471      6.543
REMARK  7 active torsions:
REMARK  status: ('A' for Active; 'I' for Inactive)
REMARK    1  A    between atoms: N1_1  and  C1_2 
REMARK    2  A    between atoms: C1_2  and  N2_3 
REMARK    3  A    between atoms: C3_6  and  N4_7 
REMARK    4  A    between atoms: N4_7  and  C4_8 
REMARK    5  A    between atoms: C10_15  and  C11_16 
REMARK    6  A    between atoms: C12_17  and  C13_18 
REMARK    7  A    between atoms: C13_18  and  C14_19 
ROOT
HETATM    1  N2  UNL     1      28.912   7.620  48.677  1.00  0.00    -0.242 NA
HETATM    2  C2  UNL     1      27.635   7.362  48.524  1.00  0.00     0.140 A 
HETATM    3  N3  UNL     1      26.613   8.297  48.220  1.00  0.00    -0.326 N 
HETATM    4  C3  UNL     1      25.810   7.141  48.289  1.00  0.00     0.121 A 
HETATM    5  C10 UNL     1      26.680   6.223  48.567  1.00  0.00     0.053 A 
HETATM    6  H5  UNL     1      26.483   9.325  48.033  1.00  0.00     0.169 HD
ENDROOT
BRANCH   5   7
HETATM    7  C11 UNL     1      27.120   4.873  48.855  1.00  0.00     0.015 C 
HETATM    8  C12 UNL     1      26.357   4.145  49.634  1.00  0.00    -0.021 C 
BRANCH   8   9
HETATM    9  C13 UNL     1      26.534   2.767  50.098  1.00  0.00     0.066 C 
BRANCH   9  10
HETATM   10  C14 UNL     1      25.430   2.441  51.042  1.00  0.00    -0.044 A 
HETATM   11  C15 UNL     1      24.284   3.248  51.099  1.00  0.00     0.008 A 
HETATM   12  C16 UNL     1      23.288   2.903  51.992  1.00  0.00     0.001 A 
HETATM   13  C17 UNL     1      23.390   1.804  52.813  1.00  0.00     0.012 A 
HETATM   14  C18 UNL     1      24.523   0.998  52.762  1.00  0.00    -0.025 A 
HETATM   15  C19 UNL     1      24.542  -0.082  53.618  1.00  0.00     0.012 A 
HETATM   16  C23 UNL     1      25.516   1.346  51.870  1.00  0.00    -0.019 A 
HETATM   17  C20 UNL     1      25.684  -0.892  53.566  1.00  0.00     0.001 A 
HETATM   18  C21 UNL     1      26.701  -0.576  52.685  1.00  0.00     0.001 A 
HETATM   19  C22 UNL     1      26.623   0.535  51.840  1.00  0.00     0.013 A 
ENDBRANCH   9  10
ENDBRANCH   8   9
ENDBRANCH   5   7
BRANCH   4  20
HETATM   20  N4  UNL     1      24.417   7.006  48.118  1.00  0.00    -0.342 N 
HETATM   21  H6  UNL     1      23.871   7.600  47.434  1.00  0.00     0.167 HD
BRANCH  20  22
HETATM   22  C4  UNL     1      23.316   6.260  48.591  1.00  0.00     0.033 A 
HETATM   23  C5  UNL     1      22.584   5.184  48.086  1.00  0.00     0.031 A 
HETATM   24  C6  UNL     1      21.556   4.675  48.825  1.00  0.00     0.026 A 
HETATM   25  C7  UNL     1      21.209   5.174  50.036  1.00  0.00     0.034 A 
HETATM   26 CL1  UNL     1      19.860   4.423  50.889  1.00  0.00    -0.084 Cl
HETATM   27  C8  UNL     1      21.903   6.244  50.583  1.00  0.00     0.026 A 
HETATM   28  C9  UNL     1      22.955   6.777  49.845  1.00  0.00     0.031 A 
ENDBRANCH  20  22
ENDBRANCH   4  20
BRANCH   1  29
HETATM   29  C1  UNL     1      29.449   8.932  48.550  1.00  0.00     0.417 C 
BRANCH  29  30
HETATM   30  N1  UNL     1      29.657   9.590  49.827  1.00  0.00     0.097 N 
HETATM   31  H1  UNL     1      28.784   9.672  50.377  1.00  0.00     0.315 HD
HETATM   32  H2  UNL     1      30.235  10.448  49.768  1.00  0.00     0.315 HD
ENDBRANCH  29  30
ENDBRANCH   1  29
TORSDOF 7
ENDMDL
MODEL 7
REMARK VINA RESULT:      -8.0      3.606      7.606
REMARK  7 active torsions:
REMARK  status: ('A' for Active; 'I' for Inactive)
REMARK    1  A    between atoms: N1_1  and  C1_2 
REMARK    2  A    between atoms: C1_2  and  N2_3 
REMARK    3  A    between atoms: C3_6  and  N4_7 
REMARK    4  A    between atoms: N4_7  and  C4_8 
REMARK    5  A    between atoms: C10_15  and  C11_16 
REMARK    6  A    between atoms: C12_17  and  C13_18 
REMARK    7  A    between atoms: C13_18  and  C14_19 
ROOT
HETATM    1  N2  UNL     1      19.268   0.211  52.357  1.00  0.00    -0.242 NA
HETATM    2  C2  UNL     1      20.552   0.075  52.594  1.00  0.00     0.140 A 
HETATM    3  N3  UNL     1      21.178  -1.012  53.256  1.00  0.00    -0.326 N 
HETATM    4  C3  UNL     1      22.332  -0.244  52.999  1.00  0.00     0.121 A 
HETATM    5  C10 UNL     1      21.840   0.785  52.386  1.00  0.00     0.053 A 
HETATM    6  H5  UNL     1      20.941  -1.930  53.714  1.00  0.00     0.169 HD
ENDROOT
BRANCH   5   7
HETATM    7  C11 UNL     1      21.902   2.067  51.714  1.00  0.00     0.015 C 
HETATM    8  C12 UNL     1      22.539   2.116  50.569  1.00  0.00    -0.021 C 
BRANCH   8   9
HETATM    9  C13 UNL     1      22.767   3.251  49.671  1.00  0.00     0.066 C 
BRANCH   9  10
HETATM   10  C14 UNL     1      24.224   3.555  49.654  1.00  0.00    -0.044 A 
HETATM   11  C15 UNL     1      25.145   2.642  50.189  1.00  0.00     0.008 A 
HETATM   12  C16 UNL     1      26.486   2.971  50.150  1.00  0.00     0.001 A 
HETATM   13  C17 UNL     1      26.934   4.154  49.608  1.00  0.00     0.012 A 
HETATM   14  C18 UNL     1      26.026   5.065  49.076  1.00  0.00    -0.025 A 
HETATM   15  C19 UNL     1      26.560   6.223  48.554  1.00  0.00     0.012 A 
HETATM   16  C23 UNL     1      24.688   4.733  49.117  1.00  0.00    -0.019 A 
HETATM   17  C20 UNL     1      25.645   7.140  48.019  1.00  0.00     0.001 A 
HETATM   18  C21 UNL     1      24.296   6.843  48.042  1.00  0.00     0.001 A 
HETATM   19  C22 UNL     1      23.815   5.649  48.586  1.00  0.00     0.013 A 
ENDBRANCH   9  10
ENDBRANCH   8   9
ENDBRANCH   5   7
BRANCH   4  20
HETATM   20  N4  UNL     1      23.676  -0.507  53.333  1.00  0.00    -0.342 N 
HETATM   21  H6  UNL     1      23.968  -1.380  53.854  1.00  0.00     0.167 HD
BRANCH  20  22
HETATM   22  C4  UNL     1      24.970   0.044  53.212  1.00  0.00     0.033 A 
HETATM   23  C5  UNL     1      26.160  -0.394  52.629  1.00  0.00     0.031 A 
HETATM   24  C6  UNL     1      27.260   0.412  52.677  1.00  0.00     0.026 A 
HETATM   25  C7  UNL     1      27.248   1.629  53.272  1.00  0.00     0.034 A 
HETATM   26 CL1  UNL     1      28.738   2.574  53.264  1.00  0.00    -0.084 Cl
HETATM   27  C8  UNL     1      26.091   2.112  53.868  1.00  0.00     0.026 A 
HETATM   28  C9  UNL     1      24.959   1.305  53.829  1.00  0.00     0.031 A 
ENDBRANCH  20  22
ENDBRANCH   4  20
BRANCH   1  29
HETATM   29  C1  UNL     1      18.307  -0.760  52.755  1.00  0.00     0.417 C 
BRANCH  29  30
HETATM   30  N1  UNL     1      17.147  -0.805  51.886  1.00  0.00     0.097 N 
HETATM   31  H1  UNL     1      16.991  -1.745  51.481  1.00  0.00     0.315 HD
HETATM   32  H2  UNL     1      17.090  -0.013  51.219  1.00  0.00     0.315 HD
ENDBRANCH  29  30
ENDBRANCH   1  29
TORSDOF 7
ENDMDL
MODEL 8
REMARK VINA RESULT:      -8.0      2.778      3.633
REMARK  7 active torsions:
REMARK  status: ('A' for Active; 'I' for Inactive)
REMARK    1  A    between atoms: N1_1  and  C1_2 
REMARK    2  A    between atoms: C1_2  and  N2_3 
REMARK    3  A    between atoms: C3_6  and  N4_7 
REMARK    4  A    between atoms: N4_7  and  C4_8 
REMARK    5  A    between atoms: C10_15  and  C11_16 
REMARK    6  A    between atoms: C12_17  and  C13_18 
REMARK    7  A    between atoms: C13_18  and  C14_19 
ROOT
HETATM    1  N2  UNL     1      25.865   0.987  53.699  1.00  0.00    -0.242 NA
HETATM    2  C2  UNL     1      25.992   1.570  52.531  1.00  0.00     0.140 A 
HETATM    3  N3  UNL     1      27.179   2.127  51.989  1.00  0.00    -0.326 N 
HETATM    4  C3  UNL     1      26.312   2.421  50.916  1.00  0.00     0.121 A 
HETATM    5  C10 UNL     1      25.188   1.937  51.337  1.00  0.00     0.053 A 
HETATM    6  H5  UNL     1      28.193   2.268  52.230  1.00  0.00     0.169 HD
ENDROOT
BRANCH   5   7
HETATM    7  C11 UNL     1      23.775   1.627  51.247  1.00  0.00     0.015 C 
HETATM    8  C12 UNL     1      22.976   2.210  52.108  1.00  0.00    -0.021 C 
BRANCH   8   9
HETATM    9  C13 UNL     1      21.523   2.096  52.263  1.00  0.00     0.066 C 
BRANCH   9  10
HETATM   10  C14 UNL     1      21.224   0.837  52.999  1.00  0.00    -0.044 A 
HETATM   11  C15 UNL     1      22.173   0.285  53.874  1.00  0.00     0.008 A 
HETATM   12  C16 UNL     1      21.847  -0.885  54.533  1.00  0.00     0.001 A 
HETATM   13  C17 UNL     1      20.636  -1.512  54.355  1.00  0.00     0.012 A 
HETATM   14  C18 UNL     1      19.690  -0.971  53.489  1.00  0.00    -0.025 A 
HETATM   15  C19 UNL     1      18.504  -1.663  53.371  1.00  0.00     0.012 A 
HETATM   16  C23 UNL     1      20.019   0.197  52.833  1.00  0.00    -0.019 A 
HETATM   17  C20 UNL     1      17.554  -1.117  52.498  1.00  0.00     0.001 A 
HETATM   18  C21 UNL     1      17.846   0.052  51.822  1.00  0.00     0.001 A 
HETATM   19  C22 UNL     1      19.069   0.709  51.984  1.00  0.00     0.013 A 
ENDBRANCH   9  10
ENDBRANCH   8   9
ENDBRANCH   5   7
BRANCH   4  20
HETATM   20  N4  UNL     1      26.583   3.084  49.702  1.00  0.00    -0.342 N 
HETATM   21  H6  UNL     1      26.661   2.568  48.781  1.00  0.00     0.167 HD
BRANCH  20  22
HETATM   22  C4  UNL     1      26.824   4.373  49.180  1.00  0.00     0.033 A 
HETATM   23  C5  UNL     1      27.929   4.991  48.592  1.00  0.00     0.031 A 
HETATM   24  C6  UNL     1      27.821   6.285  48.171  1.00  0.00     0.026 A 
HETATM   25  C7  UNL     1      26.679   7.002  48.301  1.00  0.00     0.034 A 
HETATM   26 CL1  UNL     1      26.671   8.666  47.713  1.00  0.00    -0.084 Cl
HETATM   27  C8  UNL     1      25.552   6.436  48.879  1.00  0.00     0.026 A 
HETATM   28  C9  UNL     1      25.642   5.118  49.314  1.00  0.00     0.031 A 
ENDBRANCH  20  22
ENDBRANCH   4  20
BRANCH   1  29
HETATM   29  C1  UNL     1      26.954   0.837  54.604  1.00  0.00     0.417 C 
BRANCH  29  30
HETATM   30  N1  UNL     1      27.521  -0.498  54.599  1.00  0.00     0.097 N 
HETATM   31  H1  UNL     1      28.115  -0.673  53.768  1.00  0.00     0.315 HD
HETATM   32  H2  UNL     1      26.841  -1.245  54.831  1.00  0.00     0.315 HD
ENDBRANCH  29  30
ENDBRANCH   1  29
TORSDOF 7
ENDMDL
MODEL 9
REMARK VINA RESULT:      -8.0      3.910      7.974
REMARK  7 active torsions:
REMARK  status: ('A' for Active; 'I' for Inactive)
REMARK    1  A    between atoms: N1_1  and  C1_2 
REMARK    2  A    between atoms: C1_2  and  N2_3 
REMARK    3  A    between atoms: C3_6  and  N4_7 
REMARK    4  A    between atoms: N4_7  and  C4_8 
REMARK    5  A    between atoms: C10_15  and  C11_16 
REMARK    6  A    between atoms: C12_17  and  C13_18 
REMARK    7  A    between atoms: C13_18  and  C14_19 
ROOT
HETATM    1  N2  UNL     1      17.145   4.307  51.198  1.00  0.00    -0.242 NA
HETATM    2  C2  UNL     1      17.943   3.287  51.413  1.00  0.00     0.140 A 
HETATM    3  N3  UNL     1      17.560   1.928  51.545  1.00  0.00    -0.326 N 
HETATM    4  C3  UNL     1      18.950   1.763  51.722  1.00  0.00     0.121 A 
HETATM    5  C10 UNL     1      19.382   2.978  51.613  1.00  0.00     0.053 A 
HETATM    6  H5  UNL     1      16.701   1.321  51.528  1.00  0.00     0.169 HD
ENDROOT
BRANCH   5   7
HETATM    7  C11 UNL     1      20.393   4.016  51.595  1.00  0.00     0.015 C 
HETATM    8  C12 UNL     1      21.491   3.798  52.277  1.00  0.00    -0.021 C 
BRANCH   8   9
HETATM    9  C13 UNL     1      22.673   4.648  52.446  1.00  0.00     0.066 C 
BRANCH   9  10
HETATM   10  C14 UNL     1      23.720   4.196  51.489  1.00  0.00    -0.044 A 
HETATM   11  C15 UNL     1      23.745   4.694  50.178  1.00  0.00     0.008 A 
HETATM   12  C16 UNL     1      24.737   4.242  49.329  1.00  0.00     0.001 A 
HETATM   13  C17 UNL     1      25.686   3.332  49.731  1.00  0.00     0.012 A 
HETATM   14  C18 UNL     1      25.668   2.834  51.030  1.00  0.00    -0.025 A 
HETATM   15  C19 UNL     1      26.656   1.927  51.349  1.00  0.00     0.012 A 
HETATM   16  C23 UNL     1      24.677   3.286  51.875  1.00  0.00    -0.019 A 
HETATM   17  C20 UNL     1      26.636   1.426  52.657  1.00  0.00     0.001 A 
HETATM   18  C21 UNL     1      25.658   1.855  53.533  1.00  0.00     0.001 A 
HETATM   19  C22 UNL     1      24.682   2.779  53.150  1.00  0.00     0.013 A 
ENDBRANCH   9  10
ENDBRANCH   8   9
ENDBRANCH   5   7
BRANCH   4  20
HETATM   20  N4  UNL     1      19.688   0.587  51.969  1.00  0.00    -0.342 N 
HETATM   21  H6  UNL     1      19.391  -0.356  51.593  1.00  0.00     0.167 HD
BRANCH  20  22
HETATM   22  C4  UNL     1      20.849   0.134  52.630  1.00  0.00     0.033 A 
HETATM   23  C5  UNL     1      22.167  -0.093  52.230  1.00  0.00     0.031 A 
HETATM   24  C6  UNL     1      23.075  -0.532  53.150  1.00  0.00     0.026 A 
HETATM   25  C7  UNL     1      22.749  -0.762  54.445  1.00  0.00     0.034 A 
HETATM   26 CL1  UNL     1      24.018  -1.327  55.534  1.00  0.00    -0.084 Cl
HETATM   27  C8  UNL     1      21.453  -0.553  54.894  1.00  0.00     0.026 A 
HETATM   28  C9  UNL     1      20.513  -0.105  53.972  1.00  0.00     0.031 A 
ENDBRANCH  20  22
ENDBRANCH   4  20
BRANCH   1  29
HETATM   29  C1  UNL     1      15.735   4.163  51.067  1.00  0.00     0.417 C 
BRANCH  29  30
HETATM   30  N1  UNL     1      15.215   4.729  49.837  1.00  0.00     0.097 N 
HETATM   31  H1  UNL     1      14.422   4.184  49.453  1.00  0.00     0.315 HD
HETATM   32  H2  UNL     1      15.948   4.998  49.155  1.00  0.00     0.315 HD
ENDBRANCH  29  30
ENDBRANCH   1  29
TORSDOF 7
ENDMDL
