MODEL 1
REMARK VINA RESULT:      -7.8      0.000      0.000
REMARK  7 active torsions:
REMARK  status: ('A' for Active; 'I' for Inactive)
REMARK    1  A    between atoms: O1_1  and  C1_2 
REMARK    2  A    between atoms: C1_2  and  C2_3 
REMARK    3  A    between atoms: C3_4  and  C4_5 
REMARK    4  A    between atoms: C5_6  and  N1_7 
REMARK    5  A    between atoms: N1_7  and  C6_8 
REMARK    6  A    between atoms: C9_11  and  N2_12 
REMARK    7  A    between atoms: N2_12  and  C10_13 
ROOT
HETATM    1  C6  UNL     1      21.939   2.695  51.936  1.00  0.00     0.128 C 
HETATM    2  C7  UNL     1      23.235   2.332  52.212  1.00  0.00     0.052 C 
HETATM    3  C8  UNL     1      24.313   2.572  51.437  1.00  0.00     0.033 C 
HETATM    4  C9  UNL     1      25.327   3.368  50.944  1.00  0.00     0.033 C 
HETATM    5  C15 UNL     1      24.802   4.385  50.170  1.00  0.00     0.031 C 
HETATM    6  C16 UNL     1      23.643   5.116  50.337  1.00  0.00     0.021 C 
HETATM    7  C17 UNL     1      22.890   5.973  51.123  1.00  0.00     0.118 C 
HETATM    8  N4  UNL     1      21.546   5.929  51.173  1.00  0.00    -0.254 NA
HETATM    9  C18 UNL     1      20.947   4.725  51.225  1.00  0.00     0.234 C 
HETATM   10  N5  UNL     1      21.469   3.505  50.990  1.00  0.00    -0.225 NA
ENDROOT
BRANCH   1  11
HETATM   11  N1  UNL     1      20.918   2.146  52.773  1.00  0.00    -0.351 N 
HETATM   12  H8  UNL     1      20.726   2.651  53.676  1.00  0.00     0.166 HD
BRANCH  11  13
HETATM   13  C5  UNL     1      20.224   0.979  52.352  1.00  0.00     0.089 C 
HETATM   14  C4  UNL     1      20.402  -0.188  52.924  1.00  0.00     0.017 C 
BRANCH  14  15
HETATM   15  C3  UNL     1      21.318  -0.369  54.029  1.00  0.00    -0.001 C 
HETATM   16  C2  UNL     1      22.508  -0.887  53.951  1.00  0.00    -0.001 C 
BRANCH  16  17
HETATM   17  C1  UNL     1      23.538  -1.132  54.968  1.00  0.00     0.191 C 
BRANCH  17  18
HETATM   18  O1  UNL     1      22.989  -1.965  55.960  1.00  0.00    -0.397 OA
HETATM   19  H1  UNL     1      23.755  -2.359  56.466  1.00  0.00     0.209 HD
ENDBRANCH  17  18
ENDBRANCH  16  17
ENDBRANCH  14  15
ENDBRANCH  11  13
ENDBRANCH   1  11
BRANCH   4  20
HETATM   20  N2  UNL     1      26.703   3.174  51.206  1.00  0.00    -0.345 N 
HETATM   21  H11 UNL     1      27.362   3.880  50.824  1.00  0.00     0.167 HD
BRANCH  20  22
HETATM   22  C10 UNL     1      27.022   2.018  51.970  1.00  0.00     0.107 A 
HETATM   23  C11 UNL     1      27.121   0.816  52.604  1.00  0.00     0.057 A 
HETATM   24  C12 UNL     1      26.936  -0.549  53.116  1.00  0.00     0.222 C 
HETATM   25  N3  UNL     1      28.129   1.740  52.871  1.00  0.00    -0.231 NA
HETATM   26  O2  UNL     1      27.913  -0.835  54.025  1.00  0.00    -0.384 OA
HETATM   27  C13 UNL     1      28.277   0.268  54.780  1.00  0.00     0.183 C 
HETATM   28  C14 UNL     1      29.091   1.151  53.822  1.00  0.00     0.129 C 
ENDBRANCH  20  22
ENDBRANCH   4  20
TORSDOF 7
ENDMDL
MODEL 2
REMARK VINA RESULT:      -7.7      2.737      6.696
REMARK  7 active torsions:
REMARK  status: ('A' for Active; 'I' for Inactive)
REMARK    1  A    between atoms: O1_1  and  C1_2 
REMARK    2  A    between atoms: C1_2  and  C2_3 
REMARK    3  A    between atoms: C3_4  and  C4_5 
REMARK    4  A    between atoms: C5_6  and  N1_7 
REMARK    5  A    between atoms: N1_7  and  C6_8 
REMARK    6  A    between atoms: C9_11  and  N2_12 
REMARK    7  A    between atoms: N2_12  and  C10_13 
ROOT
HETATM    1  C6  UNL     1      25.304   0.450  53.897  1.00  0.00     0.128 C 
HETATM    2  C7  UNL     1      24.687   1.377  53.090  1.00  0.00     0.052 C 
HETATM    3  C8  UNL     1      23.700   1.131  52.203  1.00  0.00     0.033 C 
HETATM    4  C9  UNL     1      22.385   0.908  51.850  1.00  0.00     0.033 C 
HETATM    5  C15 UNL     1      21.956  -0.307  52.351  1.00  0.00     0.031 C 
HETATM    6  C16 UNL     1      22.253  -0.925  53.549  1.00  0.00     0.021 C 
HETATM    7  C17 UNL     1      22.231  -0.889  54.933  1.00  0.00     0.118 C 
HETATM    8  N4  UNL     1      23.200  -1.430  55.694  1.00  0.00    -0.254 NA
HETATM    9  C18 UNL     1      24.481  -1.254  55.320  1.00  0.00     0.234 C 
HETATM   10  N5  UNL     1      24.969  -0.814  54.144  1.00  0.00    -0.225 NA
ENDROOT
BRANCH   1  11
HETATM   11  N1  UNL     1      26.477   0.875  54.594  1.00  0.00    -0.351 N 
HETATM   12  H8  UNL     1      26.592   0.525  55.581  1.00  0.00     0.166 HD
BRANCH  11  13
HETATM   13  C5  UNL     1      27.412   1.720  53.937  1.00  0.00     0.089 C 
HETATM   14  C4  UNL     1      28.628   1.326  53.641  1.00  0.00     0.017 C 
BRANCH  14  15
HETATM   15  C3  UNL     1      29.102  -0.002  53.960  1.00  0.00    -0.001 C 
HETATM   16  C2  UNL     1      28.935  -1.064  53.228  1.00  0.00    -0.001 C 
BRANCH  16  17
HETATM   17  C1  UNL     1      29.351  -2.459  53.417  1.00  0.00     0.191 C 
BRANCH  17  18
HETATM   18  O1  UNL     1      28.353  -3.295  52.884  1.00  0.00    -0.397 OA
HETATM   19  H1  UNL     1      28.241  -4.057  53.520  1.00  0.00     0.209 HD
ENDBRANCH  17  18
ENDBRANCH  16  17
ENDBRANCH  14  15
ENDBRANCH  11  13
ENDBRANCH   1  11
BRANCH   4  20
HETATM   20  N2  UNL     1      21.591   1.801  51.095  1.00  0.00    -0.345 N 
HETATM   21  H11 UNL     1      20.602   1.532  50.930  1.00  0.00     0.167 HD
BRANCH  20  22
HETATM   22  C10 UNL     1      22.253   2.977  50.645  1.00  0.00     0.107 A 
HETATM   23  C11 UNL     1      22.993   3.952  50.048  1.00  0.00     0.057 A 
HETATM   24  C12 UNL     1      23.898   4.744  49.203  1.00  0.00     0.222 C 
HETATM   25  N3  UNL     1      22.191   4.352  51.115  1.00  0.00    -0.231 NA
HETATM   26  O2  UNL     1      23.932   6.034  49.649  1.00  0.00    -0.384 OA
HETATM   27  C13 UNL     1      23.829   6.124  51.027  1.00  0.00     0.183 C 
HETATM   28  C14 UNL     1      22.359   5.801  51.336  1.00  0.00     0.129 C 
ENDBRANCH  20  22
ENDBRANCH   4  20
TORSDOF 7
ENDMDL
MODEL 3
REMARK VINA RESULT:      -7.7      3.169      7.991
REMARK  7 active torsions:
REMARK  status: ('A' for Active; 'I' for Inactive)
REMARK    1  A    between atoms: O1_1  and  C1_2 
REMARK    2  A    between atoms: C1_2  and  C2_3 
REMARK    3  A    between atoms: C3_4  and  C4_5 
REMARK    4  A    between atoms: C5_6  and  N1_7 
REMARK    5  A    between atoms: N1_7  and  C6_8 
REMARK    6  A    between atoms: C9_11  and  N2_12 
REMARK    7  A    between atoms: N2_12  and  C10_13 
ROOT
HETATM    1  C6  UNL     1      25.649   1.974  51.971  1.00  0.00     0.128 C 
HETATM    2  C7  UNL     1      24.303   1.988  52.250  1.00  0.00     0.052 C 
HETATM    3  C8  UNL     1      23.568   0.944  52.687  1.00  0.00     0.033 C 
HETATM    4  C9  UNL     1      23.100   0.086  53.660  1.00  0.00     0.033 C 
HETATM    5  C15 UNL     1      24.129  -0.708  54.132  1.00  0.00     0.031 C 
HETATM    6  C16 UNL     1      25.456  -0.398  54.349  1.00  0.00     0.021 C 
HETATM    7  C17 UNL     1      26.396   0.379  55.006  1.00  0.00     0.118 C 
HETATM    8  N4  UNL     1      27.555   0.761  54.439  1.00  0.00    -0.254 NA
HETATM    9  C18 UNL     1      27.535   1.173  53.157  1.00  0.00     0.234 C 
HETATM   10  N5  UNL     1      26.559   1.040  52.238  1.00  0.00    -0.225 NA
ENDROOT
BRANCH   1  11
HETATM   11  N1  UNL     1      26.186   3.118  51.302  1.00  0.00    -0.351 N 
HETATM   12  H8  UNL     1      27.203   3.331  51.475  1.00  0.00     0.166 HD
BRANCH  11  13
HETATM   13  C5  UNL     1      25.346   3.888  50.454  1.00  0.00     0.089 C 
HETATM   14  C4  UNL     1      25.794   4.484  49.374  1.00  0.00     0.017 C 
BRANCH  14  15
HETATM   15  C3  UNL     1      27.180   4.395  48.969  1.00  0.00    -0.001 C 
HETATM   16  C2  UNL     1      27.923   5.390  48.582  1.00  0.00    -0.001 C 
BRANCH  16  17
HETATM   17  C1  UNL     1      29.323   5.454  48.147  1.00  0.00     0.191 C 
BRANCH  17  18
HETATM   18  O1  UNL     1      30.122   5.752  49.266  1.00  0.00    -0.397 OA
HETATM   19  H1  UNL     1      29.611   5.463  50.074  1.00  0.00     0.209 HD
ENDBRANCH  17  18
ENDBRANCH  16  17
ENDBRANCH  14  15
ENDBRANCH  11  13
ENDBRANCH   1  11
BRANCH   4  20
HETATM   20  N2  UNL     1      21.762   0.036  54.115  1.00  0.00    -0.345 N 
HETATM   21  H11 UNL     1      21.613  -0.033  55.141  1.00  0.00     0.167 HD
BRANCH  20  22
HETATM   22  C10 UNL     1      20.769   0.086  53.099  1.00  0.00     0.107 A 
HETATM   23  C11 UNL     1      19.984   0.267  52.000  1.00  0.00     0.057 A 
HETATM   24  C12 UNL     1      19.412   0.639  50.698  1.00  0.00     0.222 C 
HETATM   25  N3  UNL     1      19.428  -0.475  53.040  1.00  0.00    -0.231 NA
HETATM   26  O2  UNL     1      18.122   0.197  50.621  1.00  0.00    -0.384 OA
HETATM   27  C13 UNL     1      17.465   0.256  51.839  1.00  0.00     0.183 C 
HETATM   28  C14 UNL     1      18.064  -0.892  52.666  1.00  0.00     0.129 C 
ENDBRANCH  20  22
ENDBRANCH   4  20
TORSDOF 7
ENDMDL
MODEL 4
REMARK VINA RESULT:      -7.6      2.972      7.448
REMARK  7 active torsions:
REMARK  status: ('A' for Active; 'I' for Inactive)
REMARK    1  A    between atoms: O1_1  and  C1_2 
REMARK    2  A    between atoms: C1_2  and  C2_3 
REMARK    3  A    between atoms: C3_4  and  C4_5 
REMARK    4  A    between atoms: C5_6  and  N1_7 
REMARK    5  A    between atoms: N1_7  and  C6_8 
REMARK    6  A    between atoms: C9_11  and  N2_12 
REMARK    7  A    between atoms: N2_12  and  C10_13 
ROOT
HETATM    1  C6  UNL     1      26.225   2.034  51.849  1.00  0.00     0.128 C 
HETATM    2  C7  UNL     1      24.862   1.936  51.995  1.00  0.00     0.052 C 
HETATM    3  C8  UNL     1      24.178   0.840  52.384  1.00  0.00     0.033 C 
HETATM    4  C9  UNL     1      23.690  -0.039  53.328  1.00  0.00     0.033 C 
HETATM    5  C15 UNL     1      24.730  -0.733  53.918  1.00  0.00     0.031 C 
HETATM    6  C16 UNL     1      25.998  -0.306  54.256  1.00  0.00     0.021 C 
HETATM    7  C17 UNL     1      26.799   0.560  54.982  1.00  0.00     0.118 C 
HETATM    8  N4  UNL     1      27.972   1.032  54.521  1.00  0.00    -0.254 NA
HETATM    9  C18 UNL     1      28.045   1.418  53.234  1.00  0.00     0.234 C 
HETATM   10  N5  UNL     1      27.180   1.187  52.227  1.00  0.00    -0.225 NA
ENDROOT
BRANCH   1  11
HETATM   11  N1  UNL     1      26.728   3.209  51.208  1.00  0.00    -0.351 N 
HETATM   12  H8  UNL     1      27.134   3.951  51.835  1.00  0.00     0.166 HD
BRANCH  11  13
HETATM   13  C5  UNL     1      26.664   3.312  49.792  1.00  0.00     0.089 C 
HETATM   14  C4  UNL     1      26.163   4.363  49.186  1.00  0.00     0.017 C 
BRANCH  14  15
HETATM   15  C3  UNL     1      25.642   5.495  49.921  1.00  0.00    -0.001 C 
HETATM   16  C2  UNL     1      24.410   5.649  50.304  1.00  0.00    -0.001 C 
BRANCH  16  17
HETATM   17  C1  UNL     1      23.742   6.726  51.045  1.00  0.00     0.191 C 
BRANCH  17  18
HETATM   18  O1  UNL     1      24.455   6.953  52.235  1.00  0.00    -0.397 OA
HETATM   19  H1  UNL     1      24.792   7.893  52.198  1.00  0.00     0.209 HD
ENDBRANCH  17  18
ENDBRANCH  16  17
ENDBRANCH  14  15
ENDBRANCH  11  13
ENDBRANCH   1  11
BRANCH   4  20
HETATM   20  N2  UNL     1      22.322  -0.197  53.651  1.00  0.00    -0.345 N 
HETATM   21  H11 UNL     1      22.078  -0.951  54.322  1.00  0.00     0.167 HD
BRANCH  20  22
HETATM   22  C10 UNL     1      21.434   0.709  53.008  1.00  0.00     0.107 A 
HETATM   23  C11 UNL     1      20.692   1.748  52.533  1.00  0.00     0.057 A 
HETATM   24  C12 UNL     1      20.082   3.053  52.243  1.00  0.00     0.222 C 
HETATM   25  N3  UNL     1      20.413   0.493  51.995  1.00  0.00    -0.231 NA
HETATM   26  O2  UNL     1      19.065   2.896  51.347  1.00  0.00    -0.384 OA
HETATM   27  C13 UNL     1      18.379   1.705  51.525  1.00  0.00     0.183 C 
HETATM   28  C14 UNL     1      19.330   0.619  51.001  1.00  0.00     0.129 C 
ENDBRANCH  20  22
ENDBRANCH   4  20
TORSDOF 7
ENDMDL
MODEL 5
REMARK VINA RESULT:      -7.5      2.655      6.321
REMARK  7 active torsions:
REMARK  status: ('A' for Active; 'I' for Inactive)
REMARK    1  A    between atoms: O1_1  and  C1_2 
REMARK    2  A    between atoms: C1_2  and  C2_3 
REMARK    3  A    between atoms: C3_4  and  C4_5 
REMARK    4  A    between atoms: C5_6  and  N1_7 
REMARK    5  A    between atoms: N1_7  and  C6_8 
REMARK    6  A    between atoms: C9_11  and  N2_12 
REMARK    7  A    between atoms: N2_12  and  C10_13 
ROOT
HETATM    1  C6  UNL     1      24.067   0.038  53.370  1.00  0.00     0.128 C 
HETATM    2  C7  UNL     1      24.064   1.376  53.054  1.00  0.00     0.052 C 
HETATM    3  C8  UNL     1      23.086   2.040  52.403  1.00  0.00     0.033 C 
HETATM    4  C9  UNL     1      21.869   2.686  52.333  1.00  0.00     0.033 C 
HETATM    5  C15 UNL     1      20.839   1.787  52.537  1.00  0.00     0.031 C 
HETATM    6  C16 UNL     1      20.768   0.700  53.386  1.00  0.00     0.021 C 
HETATM    7  C17 UNL     1      20.816   0.207  54.679  1.00  0.00     0.118 C 
HETATM    8  N4  UNL     1      21.326  -1.001  54.983  1.00  0.00    -0.254 NA
HETATM    9  C18 UNL     1      22.465  -1.385  54.376  1.00  0.00     0.234 C 
HETATM   10  N5  UNL     1      23.078  -0.850  53.303  1.00  0.00    -0.225 NA
ENDROOT
BRANCH   1  11
HETATM   11  N1  UNL     1      25.295  -0.513  53.853  1.00  0.00    -0.351 N 
HETATM   12  H8  UNL     1      25.506  -0.370  54.875  1.00  0.00     0.166 HD
BRANCH  11  13
HETATM   13  C5  UNL     1      26.145  -1.214  52.956  1.00  0.00     0.089 C 
HETATM   14  C4  UNL     1      27.403  -0.885  52.779  1.00  0.00     0.017 C 
BRANCH  14  15
HETATM   15  C3  UNL     1      28.015   0.217  53.490  1.00  0.00    -0.001 C 
HETATM   16  C2  UNL     1      28.132   1.434  53.047  1.00  0.00    -0.001 C 
BRANCH  16  17
HETATM   17  C1  UNL     1      28.720   2.639  53.643  1.00  0.00     0.191 C 
BRANCH  17  18
HETATM   18  O1  UNL     1      29.600   2.244  54.665  1.00  0.00    -0.397 OA
HETATM   19  H1  UNL     1      29.304   1.341  54.972  1.00  0.00     0.209 HD
ENDBRANCH  17  18
ENDBRANCH  16  17
ENDBRANCH  14  15
ENDBRANCH  11  13
ENDBRANCH   1  11
BRANCH   4  20
HETATM   20  N2  UNL     1      21.704   4.070  52.097  1.00  0.00    -0.345 N 
HETATM   21  H11 UNL     1      20.981   4.563  52.657  1.00  0.00     0.167 HD
BRANCH  20  22
HETATM   22  C10 UNL     1      22.558   4.627  51.105  1.00  0.00     0.107 A 
HETATM   23  C11 UNL     1      23.271   4.993  50.005  1.00  0.00     0.057 A 
HETATM   24  C12 UNL     1      23.858   5.139  48.664  1.00  0.00     0.222 C 
HETATM   25  N3  UNL     1      23.540   5.696  51.177  1.00  0.00    -0.231 NA
HETATM   26  O2  UNL     1      24.841   6.085  48.693  1.00  0.00    -0.384 OA
HETATM   27  C13 UNL     1      25.544   6.086  49.887  1.00  0.00     0.183 C 
HETATM   28  C14 UNL     1      24.582   6.706  50.912  1.00  0.00     0.129 C 
ENDBRANCH  20  22
ENDBRANCH   4  20
TORSDOF 7
ENDMDL
MODEL 6
REMARK VINA RESULT:      -7.2      4.096      6.354
REMARK  7 active torsions:
REMARK  status: ('A' for Active; 'I' for Inactive)
REMARK    1  A    between atoms: O1_1  and  C1_2 
REMARK    2  A    between atoms: C1_2  and  C2_3 
REMARK    3  A    between atoms: C3_4  and  C4_5 
REMARK    4  A    between atoms: C5_6  and  N1_7 
REMARK    5  A    between atoms: N1_7  and  C6_8 
REMARK    6  A    between atoms: C9_11  and  N2_12 
REMARK    7  A    between atoms: N2_12  and  C10_13 
ROOT
HETATM    1  C6  UNL     1      25.318   2.076  51.485  1.00  0.00     0.128 C 
HETATM    2  C7  UNL     1      26.507   2.524  50.959  1.00  0.00     0.052 C 
HETATM    3  C8  UNL     1      26.653   3.306  49.869  1.00  0.00     0.033 C 
HETATM    4  C9  UNL     1      26.653   4.519  49.212  1.00  0.00     0.033 C 
HETATM    5  C15 UNL     1      25.371   5.031  49.152  1.00  0.00     0.031 C 
HETATM    6  C16 UNL     1      24.354   4.980  50.085  1.00  0.00     0.021 C 
HETATM    7  C17 UNL     1      23.903   5.285  51.358  1.00  0.00     0.118 C 
HETATM    8  N4  UNL     1      23.068   4.487  52.049  1.00  0.00    -0.254 NA
HETATM    9  C18 UNL     1      23.281   3.158  52.018  1.00  0.00     0.234 C 
HETATM   10  N5  UNL     1      24.072   2.444  51.195  1.00  0.00    -0.225 NA
ENDROOT
BRANCH   1  11
HETATM   11  N1  UNL     1      25.394   1.074  52.501  1.00  0.00    -0.351 N 
HETATM   12  H8  UNL     1      24.966   0.139  52.274  1.00  0.00     0.166 HD
BRANCH  11  13
HETATM   13  C5  UNL     1      26.032   1.378  53.734  1.00  0.00     0.089 C 
HETATM   14  C4  UNL     1      27.027   0.663  54.205  1.00  0.00     0.017 C 
BRANCH  14  15
HETATM   15  C3  UNL     1      27.548  -0.486  53.497  1.00  0.00    -0.001 C 
HETATM   16  C2  UNL     1      28.695  -1.056  53.717  1.00  0.00    -0.001 C 
BRANCH  16  17
HETATM   17  C1  UNL     1      29.351  -2.210  53.090  1.00  0.00     0.191 C 
BRANCH  17  18
HETATM   18  O1  UNL     1      28.646  -3.371  53.453  1.00  0.00    -0.397 OA
HETATM   19  H1  UNL     1      28.408  -3.844  52.607  1.00  0.00     0.209 HD
ENDBRANCH  17  18
ENDBRANCH  16  17
ENDBRANCH  14  15
ENDBRANCH  11  13
ENDBRANCH   1  11
BRANCH   4  20
HETATM   20  N2  UNL     1      27.805   5.150  48.686  1.00  0.00    -0.345 N 
HETATM   21  H11 UNL     1      28.680   4.592  48.659  1.00  0.00     0.167 HD
BRANCH  20  22
HETATM   22  C10 UNL     1      27.622   6.492  48.254  1.00  0.00     0.107 A 
HETATM   23  C11 UNL     1      27.356   7.675  47.633  1.00  0.00     0.057 A 
HETATM   24  C12 UNL     1      26.958   8.747  46.709  1.00  0.00     0.222 C 
HETATM   25  N3  UNL     1      27.915   7.758  48.907  1.00  0.00    -0.231 NA
HETATM   26  O2  UNL     1      27.279   9.960  47.246  1.00  0.00    -0.384 OA
HETATM   27  C13 UNL     1      28.453   9.922  47.980  1.00  0.00     0.183 C 
HETATM   28  C14 UNL     1      28.087   9.177  49.273  1.00  0.00     0.129 C 
ENDBRANCH  20  22
ENDBRANCH   4  20
TORSDOF 7
ENDMDL
MODEL 7
REMARK VINA RESULT:      -6.9      4.720      5.944
REMARK  7 active torsions:
REMARK  status: ('A' for Active; 'I' for Inactive)
REMARK    1  A    between atoms: O1_1  and  C1_2 
REMARK    2  A    between atoms: C1_2  and  C2_3 
REMARK    3  A    between atoms: C3_4  and  C4_5 
REMARK    4  A    between atoms: C5_6  and  N1_7 
REMARK    5  A    between atoms: N1_7  and  C6_8 
REMARK    6  A    between atoms: C9_11  and  N2_12 
REMARK    7  A    between atoms: N2_12  and  C10_13 
ROOT
HETATM    1  C6  UNL     1      25.140   3.338  50.327  1.00  0.00     0.128 C 
HETATM    2  C7  UNL     1      26.465   3.319  49.963  1.00  0.00     0.052 C 
HETATM    3  C8  UNL     1      27.047   4.097  49.026  1.00  0.00     0.033 C 
HETATM    4  C9  UNL     1      27.610   5.272  48.574  1.00  0.00     0.033 C 
HETATM    5  C15 UNL     1      26.653   6.268  48.509  1.00  0.00     0.031 C 
HETATM    6  C16 UNL     1      25.588   6.526  49.348  1.00  0.00     0.021 C 
HETATM    7  C17 UNL     1      25.134   6.835  50.620  1.00  0.00     0.118 C 
HETATM    8  N4  UNL     1      23.971   6.372  51.114  1.00  0.00    -0.254 NA
HETATM    9  C18 UNL     1      23.644   5.087  50.884  1.00  0.00     0.234 C 
HETATM   10  N5  UNL     1      24.188   4.215  50.014  1.00  0.00    -0.225 NA
ENDROOT
BRANCH   1  11
HETATM   11  N1  UNL     1      24.683   2.279  51.171  1.00  0.00    -0.351 N 
HETATM   12  H8  UNL     1      23.640   2.155  51.249  1.00  0.00     0.166 HD
BRANCH  11  13
HETATM   13  C5  UNL     1      25.632   1.463  51.843  1.00  0.00     0.089 C 
HETATM   14  C4  UNL     1      25.293   0.633  52.801  1.00  0.00     0.017 C 
BRANCH  14  15
HETATM   15  C3  UNL     1      23.922   0.488  53.239  1.00  0.00    -0.001 C 
HETATM   16  C2  UNL     1      23.369  -0.616  53.648  1.00  0.00    -0.001 C 
BRANCH  16  17
HETATM   17  C1  UNL     1      22.010  -0.915  54.116  1.00  0.00     0.191 C 
BRANCH  17  18
HETATM   18  O1  UNL     1      22.105  -1.729  55.259  1.00  0.00    -0.397 OA
HETATM   19  H1  UNL     1      21.716  -2.617  55.017  1.00  0.00     0.209 HD
ENDBRANCH  17  18
ENDBRANCH  16  17
ENDBRANCH  14  15
ENDBRANCH  11  13
ENDBRANCH   1  11
BRANCH   4  20
HETATM   20  N2  UNL     1      28.974   5.435  48.238  1.00  0.00    -0.345 N 
HETATM   21  H11 UNL     1      29.468   4.608  47.851  1.00  0.00     0.167 HD
BRANCH  20  22
HETATM   22  C10 UNL     1      29.511   6.730  48.476  1.00  0.00     0.107 A 
HETATM   23  C11 UNL     1      29.790   8.037  48.736  1.00  0.00     0.057 A 
HETATM   24  C12 UNL     1      29.747   9.473  49.051  1.00  0.00     0.222 C 
HETATM   25  N3  UNL     1      30.882   7.215  48.470  1.00  0.00    -0.231 NA
HETATM   26  O2  UNL     1      31.007   9.994  48.987  1.00  0.00    -0.384 OA
HETATM   27  C13 UNL     1      31.777   9.407  47.996  1.00  0.00     0.183 C 
HETATM   28  C14 UNL     1      32.122   8.012  48.539  1.00  0.00     0.129 C 
ENDBRANCH  20  22
ENDBRANCH   4  20
TORSDOF 7
ENDMDL
MODEL 8
REMARK VINA RESULT:      -6.8      3.296      8.133
REMARK  7 active torsions:
REMARK  status: ('A' for Active; 'I' for Inactive)
REMARK    1  A    between atoms: O1_1  and  C1_2 
REMARK    2  A    between atoms: C1_2  and  C2_3 
REMARK    3  A    between atoms: C3_4  and  C4_5 
REMARK    4  A    between atoms: C5_6  and  N1_7 
REMARK    5  A    between atoms: N1_7  and  C6_8 
REMARK    6  A    between atoms: C9_11  and  N2_12 
REMARK    7  A    between atoms: N2_12  and  C10_13 
ROOT
HETATM    1  C6  UNL     1      26.203   3.255  50.338  1.00  0.00     0.128 C 
HETATM    2  C7  UNL     1      24.893   3.575  50.073  1.00  0.00     0.052 C 
HETATM    3  C8  UNL     1      23.825   2.766  50.235  1.00  0.00     0.033 C 
HETATM    4  C9  UNL     1      22.845   2.152  50.987  1.00  0.00     0.033 C 
HETATM    5  C15 UNL     1      23.410   1.236  51.854  1.00  0.00     0.031 C 
HETATM    6  C16 UNL     1      24.598   1.297  52.555  1.00  0.00     0.021 C 
HETATM    7  C17 UNL     1      25.385   1.948  53.490  1.00  0.00     0.118 C 
HETATM    8  N4  UNL     1      26.726   2.013  53.400  1.00  0.00    -0.254 NA
HETATM    9  C18 UNL     1      27.275   2.251  52.195  1.00  0.00     0.234 C 
HETATM   10  N5  UNL     1      26.704   2.199  50.976  1.00  0.00    -0.225 NA
ENDROOT
BRANCH   1  11
HETATM   11  N1  UNL     1      27.201   4.171  49.882  1.00  0.00    -0.351 N 
HETATM   12  H8  UNL     1      28.185   4.003  50.218  1.00  0.00     0.166 HD
BRANCH  11  13
HETATM   13  C5  UNL     1      26.829   5.232  49.013  1.00  0.00     0.089 C 
HETATM   14  C4  UNL     1      27.694   5.840  48.235  1.00  0.00     0.017 C 
BRANCH  14  15
HETATM   15  C3  UNL     1      29.092   5.468  48.206  1.00  0.00    -0.001 C 
HETATM   16  C2  UNL     1      30.090   6.250  48.493  1.00  0.00    -0.001 C 
BRANCH  16  17
HETATM   17  C1  UNL     1      31.540   6.019  48.507  1.00  0.00     0.191 C 
BRANCH  17  18
HETATM   18  O1  UNL     1      31.818   5.004  49.440  1.00  0.00    -0.397 OA
HETATM   19  H1  UNL     1      31.051   4.978  50.080  1.00  0.00     0.209 HD
ENDBRANCH  17  18
ENDBRANCH  16  17
ENDBRANCH  14  15
ENDBRANCH  11  13
ENDBRANCH   1  11
BRANCH   4  20
HETATM   20  N2  UNL     1      21.462   2.432  50.891  1.00  0.00    -0.345 N 
HETATM   21  H11 UNL     1      21.184   3.264  50.334  1.00  0.00     0.167 HD
BRANCH  20  22
HETATM   22  C10 UNL     1      20.607   1.528  51.579  1.00  0.00     0.107 A 
HETATM   23  C11 UNL     1      19.995   0.588  52.351  1.00  0.00     0.057 A 
HETATM   24  C12 UNL     1      19.655  -0.480  53.303  1.00  0.00     0.222 C 
HETATM   25  N3  UNL     1      19.172   1.307  51.487  1.00  0.00    -0.231 NA
HETATM   26  O2  UNL     1      18.326  -0.777  53.205  1.00  0.00    -0.384 OA
HETATM   27  C13 UNL     1      17.852  -0.670  51.908  1.00  0.00     0.183 C 
HETATM   28  C14 UNL     1      17.781   0.840  51.636  1.00  0.00     0.129 C 
ENDBRANCH  20  22
ENDBRANCH   4  20
TORSDOF 7
ENDMDL
MODEL 9
REMARK VINA RESULT:      -6.8      1.775      2.182
REMARK  7 active torsions:
REMARK  status: ('A' for Active; 'I' for Inactive)
REMARK    1  A    between atoms: O1_1  and  C1_2 
REMARK    2  A    between atoms: C1_2  and  C2_3 
REMARK    3  A    between atoms: C3_4  and  C4_5 
REMARK    4  A    between atoms: C5_6  and  N1_7 
REMARK    5  A    between atoms: N1_7  and  C6_8 
REMARK    6  A    between atoms: C9_11  and  N2_12 
REMARK    7  A    between atoms: N2_12  and  C10_13 
ROOT
HETATM    1  C6  UNL     1      22.018   2.587  50.751  1.00  0.00     0.128 C 
HETATM    2  C7  UNL     1      23.269   2.153  51.118  1.00  0.00     0.052 C 
HETATM    3  C8  UNL     1      24.446   2.649  50.680  1.00  0.00     0.033 C 
HETATM    4  C9  UNL     1      25.474   3.568  50.681  1.00  0.00     0.033 C 
HETATM    5  C15 UNL     1      25.024   4.790  50.217  1.00  0.00     0.031 C 
HETATM    6  C16 UNL     1      23.808   5.415  50.410  1.00  0.00     0.021 C 
HETATM    7  C17 UNL     1      22.879   5.946  51.289  1.00  0.00     0.118 C 
HETATM    8  N4  UNL     1      21.552   5.884  51.077  1.00  0.00    -0.254 NA
HETATM    9  C18 UNL     1      21.032   4.735  50.606  1.00  0.00     0.234 C 
HETATM   10  N5  UNL     1      21.664   3.674  50.069  1.00  0.00    -0.225 NA
ENDROOT
BRANCH   1  11
HETATM   11  N1  UNL     1      20.907   1.780  51.151  1.00  0.00    -0.351 N 
HETATM   12  H8  UNL     1      20.881   1.481  52.160  1.00  0.00     0.166 HD
BRANCH  11  13
HETATM   13  C5  UNL     1      19.916   1.435  50.193  1.00  0.00     0.089 C 
HETATM   14  C4  UNL     1      18.969   0.562  50.446  1.00  0.00     0.017 C 
BRANCH  14  15
HETATM   15  C3  UNL     1      18.866  -0.109  51.723  1.00  0.00    -0.001 C 
HETATM   16  C2  UNL     1      17.809  -0.714  52.179  1.00  0.00    -0.001 C 
BRANCH  16  17
HETATM   17  C1  UNL     1      17.556  -1.428  53.437  1.00  0.00     0.191 C 
BRANCH  17  18
HETATM   18  O1  UNL     1      18.780  -1.930  53.914  1.00  0.00    -0.397 OA
HETATM   19  H1  UNL     1      18.661  -2.913  54.045  1.00  0.00     0.209 HD
ENDBRANCH  17  18
ENDBRANCH  16  17
ENDBRANCH  14  15
ENDBRANCH  11  13
ENDBRANCH   1  11
BRANCH   4  20
HETATM   20  N2  UNL     1      26.796   3.298  51.106  1.00  0.00    -0.345 N 
HETATM   21  H11 UNL     1      27.534   3.966  50.811  1.00  0.00     0.167 HD
BRANCH  20  22
HETATM   22  C10 UNL     1      26.956   2.127  51.896  1.00  0.00     0.107 A 
HETATM   23  C11 UNL     1      26.885   0.943  52.567  1.00  0.00     0.057 A 
HETATM   24  C12 UNL     1      26.502  -0.358  53.133  1.00  0.00     0.222 C 
HETATM   25  N3  UNL     1      28.042   1.695  52.761  1.00  0.00    -0.231 NA
HETATM   26  O2  UNL     1      27.459  -0.776  54.012  1.00  0.00    -0.384 OA
HETATM   27  C13 UNL     1      28.033   0.272  54.712  1.00  0.00     0.183 C 
HETATM   28  C14 UNL     1      28.937   0.981  53.692  1.00  0.00     0.129 C 
ENDBRANCH  20  22
ENDBRANCH   4  20
TORSDOF 7
ENDMDL
