MODEL 1
REMARK VINA RESULT:      -7.0      0.000      0.000
REMARK  9 active torsions:
REMARK  status: ('A' for Active; 'I' for Inactive)
REMARK       I    between atoms: C2_2  and  N1_4 
REMARK    1  A    between atoms: N1_4  and  C3_5 
REMARK    2  A    between atoms: C3_5  and  O2_6 
REMARK    3  A    between atoms: O2_6  and  C4_7 
REMARK    4  A    between atoms: C6_9  and  N2_10 
REMARK    5  A    between atoms: N2_10  and  C8_12 
REMARK    6  A    between atoms: C8_12  and  C9_13 
REMARK    7  A    between atoms: C9_13  and  N3_14 
REMARK    8  A    between atoms: C14_19  and  N4_20 
REMARK    9  A    between atoms: N4_20  and  C15_21 
ROOT
HETATM    1  C4  UNL     1      24.243   2.768  51.082  1.00  0.00     0.100 A 
HETATM    2  C5  UNL     1      24.277   1.735  52.023  1.00  0.00     0.068 A 
HETATM    3  C6  UNL     1      25.426   1.016  52.272  1.00  0.00     0.032 A 
HETATM    4  C12 UNL     1      26.509   1.402  51.525  1.00  0.00     0.031 A 
HETATM    5  C13 UNL     1      26.511   2.402  50.604  1.00  0.00     0.035 A 
HETATM    6  C14 UNL     1      25.374   3.125  50.347  1.00  0.00     0.083 A 
ENDROOT
BRANCH   6   7
HETATM    7  N4  UNL     1      25.216   4.178  49.410  1.00  0.00    -0.185 N 
HETATM    8  H23 UNL     1      24.503   4.121  48.643  1.00  0.00     0.184 HD
BRANCH   7   9
HETATM    9  C15 UNL     1      26.030   5.368  49.446  1.00  0.00     0.726 C 
HETATM   10  N5  UNL     1      25.365   6.301  50.076  1.00  0.00    -0.074 NA
HETATM   11  C16 UNL     1      25.712   7.644  50.380  1.00  0.00     0.153 C 
HETATM   12  C17 UNL     1      26.679   8.466  49.933  1.00  0.00     0.103 C 
HETATM   13  N6  UNL     1      27.726   8.304  48.980  1.00  0.00    -0.393 N 
HETATM   14  C18 UNL     1      28.080   7.456  47.886  1.00  0.00     0.166 C 
HETATM   15  H26 UNL     1      28.441   9.067  49.171  1.00  0.00     0.159 HD
HETATM   16  C19 UNL     1      28.091   6.007  48.200  1.00  0.00     0.129 C 
HETATM   17  N7  UNL     1      27.282   5.208  48.811  1.00  0.00    -0.077 NA
ENDBRANCH   7   9
ENDBRANCH   6   7
BRANCH   1  18
HETATM   18  O2  UNL     1      23.053   3.454  50.878  1.00  0.00    -0.330 OA
BRANCH  18  19
HETATM   19  C3  UNL     1      22.456   4.326  51.781  1.00  0.00     0.301 C 
BRANCH  19  20
HETATM   20  N1  UNL     1      22.776   5.711  51.620  1.00  0.00    -0.340 N 
HETATM   21  C2  UNL     1      21.754   6.380  50.911  1.00  0.00     0.215 C 
HETATM   22  C1  UNL     1      21.779   7.839  50.574  1.00  0.00     0.117 C 
HETATM   23  O1  UNL     1      20.759   5.665  50.550  1.00  0.00    -0.274 OA
HETATM   24  H4  UNL     1      23.574   6.318  51.901  1.00  0.00     0.164 HD
ENDBRANCH  19  20
ENDBRANCH  18  19
ENDBRANCH   1  18
BRANCH   3  25
HETATM   25  N2  UNL     1      25.440  -0.046  53.238  1.00  0.00    -0.383 N 
HETATM   26  C7  UNL     1      24.106  -0.463  53.607  1.00  0.00     0.149 C 
BRANCH  25  27
HETATM   27  C8  UNL     1      26.636  -0.633  53.778  1.00  0.00     0.152 C 
BRANCH  27  28
HETATM   28  C9  UNL     1      27.289   0.127  54.880  1.00  0.00     0.291 C 
BRANCH  28  29
HETATM   29  N3  UNL     1      28.714   0.241  54.815  1.00  0.00     0.081 N 
HETATM   30  C10 UNL     1      29.140  -0.760  53.809  1.00  0.00     0.309 C 
HETATM   31  C11 UNL     1      29.135   1.512  54.223  1.00  0.00     0.309 C 
ENDBRANCH  28  29
ENDBRANCH  27  28
ENDBRANCH  25  27
ENDBRANCH   3  25
TORSDOF 9
ENDMDL
MODEL 2
REMARK VINA RESULT:      -6.9      2.883      7.150
REMARK  9 active torsions:
REMARK  status: ('A' for Active; 'I' for Inactive)
REMARK       I    between atoms: C2_2  and  N1_4 
REMARK    1  A    between atoms: N1_4  and  C3_5 
REMARK    2  A    between atoms: C3_5  and  O2_6 
REMARK    3  A    between atoms: O2_6  and  C4_7 
REMARK    4  A    between atoms: C6_9  and  N2_10 
REMARK    5  A    between atoms: N2_10  and  C8_12 
REMARK    6  A    between atoms: C8_12  and  C9_13 
REMARK    7  A    between atoms: C9_13  and  N3_14 
REMARK    8  A    between atoms: C14_19  and  N4_20 
REMARK    9  A    between atoms: N4_20  and  C15_21 
ROOT
HETATM    1  C4  UNL     1      24.912   3.053  51.103  1.00  0.00     0.100 A 
HETATM    2  C5  UNL     1      23.956   2.980  50.086  1.00  0.00     0.068 A 
HETATM    3  C6  UNL     1      22.680   2.518  50.320  1.00  0.00     0.032 A 
HETATM    4  C12 UNL     1      22.441   2.144  51.617  1.00  0.00     0.031 A 
HETATM    5  C13 UNL     1      23.346   2.203  52.629  1.00  0.00     0.035 A 
HETATM    6  C14 UNL     1      24.620   2.662  52.410  1.00  0.00     0.083 A 
ENDROOT
BRANCH   6   7
HETATM    7  N4  UNL     1      25.673   2.766  53.355  1.00  0.00    -0.185 N 
HETATM    8  H23 UNL     1      25.862   3.665  53.861  1.00  0.00     0.184 HD
BRANCH   7   9
HETATM    9  C15 UNL     1      26.546   1.659  53.658  1.00  0.00     0.726 C 
HETATM   10  N5  UNL     1      27.753   2.126  53.838  1.00  0.00    -0.074 NA
HETATM   11  C16 UNL     1      28.968   1.462  54.156  1.00  0.00     0.153 C 
HETATM   12  C17 UNL     1      29.342   0.170  54.129  1.00  0.00     0.103 C 
HETATM   13  N6  UNL     1      28.660  -1.030  53.771  1.00  0.00    -0.393 N 
HETATM   14  C18 UNL     1      27.513  -1.450  53.031  1.00  0.00     0.166 C 
HETATM   15  H26 UNL     1      29.204  -1.836  54.202  1.00  0.00     0.159 HD
HETATM   16  C19 UNL     1      26.241  -0.805  53.434  1.00  0.00     0.129 C 
HETATM   17  N7  UNL     1      25.882   0.412  53.675  1.00  0.00    -0.077 NA
ENDBRANCH   7   9
ENDBRANCH   6   7
BRANCH   1  18
HETATM   18  O2  UNL     1      26.181   3.529  50.801  1.00  0.00    -0.330 OA
BRANCH  18  19
HETATM   19  C3  UNL     1      26.642   3.859  49.533  1.00  0.00     0.301 C 
BRANCH  19  20
HETATM   20  N1  UNL     1      26.619   5.251  49.200  1.00  0.00    -0.340 N 
HETATM   21  C2  UNL     1      27.803   5.620  48.523  1.00  0.00     0.215 C 
HETATM   22  C1  UNL     1      28.097   7.005  48.036  1.00  0.00     0.117 C 
HETATM   23  O1  UNL     1      28.656   4.689  48.330  1.00  0.00    -0.274 OA
HETATM   24  H4  UNL     1      25.944   6.029  49.343  1.00  0.00     0.164 HD
ENDBRANCH  19  20
ENDBRANCH  18  19
ENDBRANCH   1  18
BRANCH   3  25
HETATM   25  N2  UNL     1      21.713   2.444  49.259  1.00  0.00    -0.383 N 
HETATM   26  C7  UNL     1      22.325   2.141  47.985  1.00  0.00     0.149 C 
BRANCH  25  27
HETATM   27  C8  UNL     1      20.301   2.646  49.437  1.00  0.00     0.152 C 
BRANCH  27  28
HETATM   28  C9  UNL     1      19.486   1.411  49.595  1.00  0.00     0.291 C 
BRANCH  28  29
HETATM   29  N3  UNL     1      18.630   1.356  50.742  1.00  0.00     0.081 N 
HETATM   30  C10 UNL     1      19.170   0.257  51.577  1.00  0.00     0.309 C 
HETATM   31  C11 UNL     1      18.785   2.534  51.596  1.00  0.00     0.309 C 
ENDBRANCH  28  29
ENDBRANCH  27  28
ENDBRANCH  25  27
ENDBRANCH   3  25
TORSDOF 9
ENDMDL
MODEL 3
REMARK VINA RESULT:      -6.9      2.594      7.282
REMARK  9 active torsions:
REMARK  status: ('A' for Active; 'I' for Inactive)
REMARK       I    between atoms: C2_2  and  N1_4 
REMARK    1  A    between atoms: N1_4  and  C3_5 
REMARK    2  A    between atoms: C3_5  and  O2_6 
REMARK    3  A    between atoms: O2_6  and  C4_7 
REMARK    4  A    between atoms: C6_9  and  N2_10 
REMARK    5  A    between atoms: N2_10  and  C8_12 
REMARK    6  A    between atoms: C8_12  and  C9_13 
REMARK    7  A    between atoms: C9_13  and  N3_14 
REMARK    8  A    between atoms: C14_19  and  N4_20 
REMARK    9  A    between atoms: N4_20  and  C15_21 
ROOT
HETATM    1  C4  UNL     1      23.404   2.841  51.715  1.00  0.00     0.100 A 
HETATM    2  C5  UNL     1      22.774   3.030  50.482  1.00  0.00     0.068 A 
HETATM    3  C6  UNL     1      23.480   3.376  49.350  1.00  0.00     0.032 A 
HETATM    4  C12 UNL     1      24.830   3.515  49.545  1.00  0.00     0.031 A 
HETATM    5  C13 UNL     1      25.474   3.338  50.729  1.00  0.00     0.035 A 
HETATM    6  C14 UNL     1      24.783   2.993  51.863  1.00  0.00     0.083 A 
ENDROOT
BRANCH   6   7
HETATM    7  N4  UNL     1      25.309   2.791  53.165  1.00  0.00    -0.185 N 
HETATM    8  H23 UNL     1      25.115   3.470  53.940  1.00  0.00     0.184 HD
BRANCH   7   9
HETATM    9  C15 UNL     1      26.145   1.662  53.490  1.00  0.00     0.726 C 
HETATM   10  N5  UNL     1      27.353   2.102  53.725  1.00  0.00    -0.074 NA
HETATM   11  C16 UNL     1      28.540   1.408  54.083  1.00  0.00     0.153 C 
HETATM   12  C17 UNL     1      28.888   0.109  54.055  1.00  0.00     0.103 C 
HETATM   13  N6  UNL     1      28.197  -1.072  53.655  1.00  0.00    -0.393 N 
HETATM   14  C18 UNL     1      27.072  -1.459  52.863  1.00  0.00     0.166 C 
HETATM   15  H26 UNL     1      28.705  -1.894  54.098  1.00  0.00     0.159 HD
HETATM   16  C19 UNL     1      25.799  -0.791  53.222  1.00  0.00     0.129 C 
HETATM   17  N7  UNL     1      25.455   0.429  53.463  1.00  0.00    -0.077 NA
ENDBRANCH   7   9
ENDBRANCH   6   7
BRANCH   1  18
HETATM   18  O2  UNL     1      22.635   2.492  52.817  1.00  0.00    -0.330 OA
BRANCH  18  19
HETATM   19  C3  UNL     1      21.763   1.412  52.888  1.00  0.00     0.301 C 
BRANCH  19  20
HETATM   20  N1  UNL     1      22.355   0.148  53.203  1.00  0.00    -0.340 N 
HETATM   21  C2  UNL     1      21.780  -0.393  54.375  1.00  0.00     0.215 C 
HETATM   22  C1  UNL     1      22.175  -1.705  54.977  1.00  0.00     0.117 C 
HETATM   23  O1  UNL     1      20.867   0.307  54.929  1.00  0.00    -0.274 OA
HETATM   24  H4  UNL     1      23.095  -0.443  52.774  1.00  0.00     0.164 HD
ENDBRANCH  19  20
ENDBRANCH  18  19
ENDBRANCH   1  18
BRANCH   3  25
HETATM   25  N2  UNL     1      22.814   3.571  48.093  1.00  0.00    -0.383 N 
HETATM   26  C7  UNL     1      22.405   2.321  47.494  1.00  0.00     0.149 C 
BRANCH  25  27
HETATM   27  C8  UNL     1      22.578   4.857  47.494  1.00  0.00     0.152 C 
BRANCH  27  28
HETATM   28  C9  UNL     1      22.037   5.904  48.403  1.00  0.00     0.291 C 
BRANCH  28  29
HETATM   29  N3  UNL     1      22.868   7.051  48.617  1.00  0.00     0.081 N 
HETATM   30  C10 UNL     1      23.201   7.026  50.061  1.00  0.00     0.309 C 
HETATM   31  C11 UNL     1      24.173   6.909  47.969  1.00  0.00     0.309 C 
ENDBRANCH  28  29
ENDBRANCH  27  28
ENDBRANCH  25  27
ENDBRANCH   3  25
TORSDOF 9
ENDMDL
MODEL 4
REMARK VINA RESULT:      -6.9      2.398      5.240
REMARK  9 active torsions:
REMARK  status: ('A' for Active; 'I' for Inactive)
REMARK       I    between atoms: C2_2  and  N1_4 
REMARK    1  A    between atoms: N1_4  and  C3_5 
REMARK    2  A    between atoms: C3_5  and  O2_6 
REMARK    3  A    between atoms: O2_6  and  C4_7 
REMARK    4  A    between atoms: C6_9  and  N2_10 
REMARK    5  A    between atoms: N2_10  and  C8_12 
REMARK    6  A    between atoms: C8_12  and  C9_13 
REMARK    7  A    between atoms: C9_13  and  N3_14 
REMARK    8  A    between atoms: C14_19  and  N4_20 
REMARK    9  A    between atoms: N4_20  and  C15_21 
ROOT
HETATM    1  C4  UNL     1      25.772   2.897  51.079  1.00  0.00     0.100 A 
HETATM    2  C5  UNL     1      24.658   2.594  51.868  1.00  0.00     0.068 A 
HETATM    3  C6  UNL     1      23.372   2.729  51.393  1.00  0.00     0.032 A 
HETATM    4  C12 UNL     1      23.289   3.179  50.101  1.00  0.00     0.031 A 
HETATM    5  C13 UNL     1      24.350   3.482  49.307  1.00  0.00     0.035 A 
HETATM    6  C14 UNL     1      25.636   3.352  49.767  1.00  0.00     0.083 A 
ENDROOT
BRANCH   6   7
HETATM    7  N4  UNL     1      26.835   3.643  49.068  1.00  0.00    -0.185 N 
HETATM    8  H23 UNL     1      27.456   2.876  48.713  1.00  0.00     0.184 HD
BRANCH   7   9
HETATM    9  C15 UNL     1      27.274   4.994  48.823  1.00  0.00     0.726 C 
HETATM   10  N5  UNL     1      28.552   4.967  48.550  1.00  0.00    -0.074 NA
HETATM   11  C16 UNL     1      29.456   6.017  48.237  1.00  0.00     0.153 C 
HETATM   12  C17 UNL     1      29.388   7.355  48.359  1.00  0.00     0.103 C 
HETATM   13  N6  UNL     1      28.378   8.233  48.849  1.00  0.00    -0.393 N 
HETATM   14  C18 UNL     1      27.211   8.199  49.673  1.00  0.00     0.166 C 
HETATM   15  H26 UNL     1      28.596   9.201  48.466  1.00  0.00     0.159 HD
HETATM   16  C19 UNL     1      26.196   7.196  49.272  1.00  0.00     0.129 C 
HETATM   17  N7  UNL     1      26.238   5.949  48.944  1.00  0.00    -0.077 NA
ENDBRANCH   7   9
ENDBRANCH   6   7
BRANCH   1  18
HETATM   18  O2  UNL     1      27.041   2.739  51.618  1.00  0.00    -0.330 OA
BRANCH  18  19
HETATM   19  C3  UNL     1      27.335   2.152  52.842  1.00  0.00     0.301 C 
BRANCH  19  20
HETATM   20  N1  UNL     1      27.850   0.818  52.791  1.00  0.00    -0.340 N 
HETATM   21  C2  UNL     1      28.847   0.631  53.774  1.00  0.00     0.215 C 
HETATM   22  C1  UNL     1      29.589  -0.653  53.987  1.00  0.00     0.117 C 
HETATM   23  O1  UNL     1      29.108   1.641  54.511  1.00  0.00    -0.274 OA
HETATM   24  H4  UNL     1      27.659  -0.021  52.206  1.00  0.00     0.164 HD
ENDBRANCH  19  20
ENDBRANCH  18  19
ENDBRANCH   1  18
BRANCH   3  25
HETATM   25  N2  UNL     1      22.240   2.418  52.222  1.00  0.00    -0.383 N 
HETATM   26  C7  UNL     1      21.167   3.372  52.057  1.00  0.00     0.149 C 
BRANCH  25  27
HETATM   27  C8  UNL     1      22.175   1.290  53.111  1.00  0.00     0.152 C 
BRANCH  27  28
HETATM   28  C9  UNL     1      22.009  -0.038  52.461  1.00  0.00     0.291 C 
BRANCH  28  29
HETATM   29  N3  UNL     1      22.583  -1.157  53.146  1.00  0.00     0.081 N 
HETATM   30  C10 UNL     1      23.853  -0.653  53.719  1.00  0.00     0.309 C 
HETATM   31  C11 UNL     1      21.806  -1.532  54.328  1.00  0.00     0.309 C 
ENDBRANCH  28  29
ENDBRANCH  27  28
ENDBRANCH  25  27
ENDBRANCH   3  25
TORSDOF 9
ENDMDL
MODEL 5
REMARK VINA RESULT:      -6.8      3.174      7.491
REMARK  9 active torsions:
REMARK  status: ('A' for Active; 'I' for Inactive)
REMARK       I    between atoms: C2_2  and  N1_4 
REMARK    1  A    between atoms: N1_4  and  C3_5 
REMARK    2  A    between atoms: C3_5  and  O2_6 
REMARK    3  A    between atoms: O2_6  and  C4_7 
REMARK    4  A    between atoms: C6_9  and  N2_10 
REMARK    5  A    between atoms: N2_10  and  C8_12 
REMARK    6  A    between atoms: C8_12  and  C9_13 
REMARK    7  A    between atoms: C9_13  and  N3_14 
REMARK    8  A    between atoms: C14_19  and  N4_20 
REMARK    9  A    between atoms: N4_20  and  C15_21 
ROOT
HETATM    1  C4  UNL     1      23.608   2.895  51.832  1.00  0.00     0.100 A 
HETATM    2  C5  UNL     1      22.933   3.117  50.628  1.00  0.00     0.068 A 
HETATM    3  C6  UNL     1      23.600   3.463  49.474  1.00  0.00     0.032 A 
HETATM    4  C12 UNL     1      24.960   3.568  49.615  1.00  0.00     0.031 A 
HETATM    5  C13 UNL     1      25.647   3.359  50.768  1.00  0.00     0.035 A 
HETATM    6  C14 UNL     1      24.995   3.013  51.925  1.00  0.00     0.083 A 
ENDROOT
BRANCH   6   7
HETATM    7  N4  UNL     1      25.569   2.780  53.201  1.00  0.00    -0.185 N 
HETATM    8  H23 UNL     1      25.477   3.482  53.974  1.00  0.00     0.184 HD
BRANCH   7   9
HETATM    9  C15 UNL     1      26.318   1.584  53.500  1.00  0.00     0.726 C 
HETATM   10  N5  UNL     1      27.540   1.932  53.805  1.00  0.00    -0.074 NA
HETATM   11  C16 UNL     1      28.664   1.146  54.174  1.00  0.00     0.153 C 
HETATM   12  C17 UNL     1      28.930  -0.171  54.093  1.00  0.00     0.103 C 
HETATM   13  N6  UNL     1      28.183  -1.282  53.606  1.00  0.00    -0.393 N 
HETATM   14  C18 UNL     1      27.071  -1.557  52.752  1.00  0.00     0.166 C 
HETATM   15  H26 UNL     1      28.619  -2.157  54.026  1.00  0.00     0.159 HD
HETATM   16  C19 UNL     1      25.829  -0.826  53.094  1.00  0.00     0.129 C 
HETATM   17  N7  UNL     1      25.553   0.402  53.384  1.00  0.00    -0.077 NA
ENDBRANCH   7   9
ENDBRANCH   6   7
BRANCH   1  18
HETATM   18  O2  UNL     1      22.876   2.548  52.960  1.00  0.00    -0.330 OA
BRANCH  18  19
HETATM   19  C3  UNL     1      21.907   1.554  53.023  1.00  0.00     0.301 C 
BRANCH  19  20
HETATM   20  N1  UNL     1      22.388   0.220  53.215  1.00  0.00    -0.340 N 
HETATM   21  C2  UNL     1      21.717  -0.401  54.292  1.00  0.00     0.215 C 
HETATM   22  C1  UNL     1      21.983  -1.799  54.756  1.00  0.00     0.117 C 
HETATM   23  O1  UNL     1      20.831   0.303  54.885  1.00  0.00    -0.274 OA
HETATM   24  H4  UNL     1      23.104  -0.376  52.752  1.00  0.00     0.164 HD
ENDBRANCH  19  20
ENDBRANCH  18  19
ENDBRANCH   1  18
BRANCH   3  25
HETATM   25  N2  UNL     1      22.888   3.693  48.247  1.00  0.00    -0.383 N 
HETATM   26  C7  UNL     1      22.955   5.076  47.831  1.00  0.00     0.149 C 
BRANCH  25  27
HETATM   27  C8  UNL     1      22.190   2.672  47.514  1.00  0.00     0.152 C 
BRANCH  27  28
HETATM   28  C9  UNL     1      20.724   2.877  47.356  1.00  0.00     0.291 C 
BRANCH  28  29
HETATM   29  N3  UNL     1      19.960   2.961  48.564  1.00  0.00     0.081 N 
HETATM   30  C10 UNL     1      18.557   3.141  48.124  1.00  0.00     0.309 C 
HETATM   31  C11 UNL     1      19.927   1.685  49.280  1.00  0.00     0.309 C 
ENDBRANCH  28  29
ENDBRANCH  27  28
ENDBRANCH  25  27
ENDBRANCH   3  25
TORSDOF 9
ENDMDL
MODEL 6
REMARK VINA RESULT:      -6.7      2.591      7.246
REMARK  9 active torsions:
REMARK  status: ('A' for Active; 'I' for Inactive)
REMARK       I    between atoms: C2_2  and  N1_4 
REMARK    1  A    between atoms: N1_4  and  C3_5 
REMARK    2  A    between atoms: C3_5  and  O2_6 
REMARK    3  A    between atoms: O2_6  and  C4_7 
REMARK    4  A    between atoms: C6_9  and  N2_10 
REMARK    5  A    between atoms: N2_10  and  C8_12 
REMARK    6  A    between atoms: C8_12  and  C9_13 
REMARK    7  A    between atoms: C9_13  and  N3_14 
REMARK    8  A    between atoms: C14_19  and  N4_20 
REMARK    9  A    between atoms: N4_20  and  C15_21 
ROOT
HETATM    1  C4  UNL     1      24.823   3.075  51.088  1.00  0.00     0.100 A 
HETATM    2  C5  UNL     1      23.849   3.019  50.087  1.00  0.00     0.068 A 
HETATM    3  C6  UNL     1      22.564   2.594  50.345  1.00  0.00     0.032 A 
HETATM    4  C12 UNL     1      22.336   2.238  51.649  1.00  0.00     0.031 A 
HETATM    5  C13 UNL     1      23.258   2.281  52.646  1.00  0.00     0.035 A 
HETATM    6  C14 UNL     1      24.541   2.703  52.403  1.00  0.00     0.083 A 
ENDROOT
BRANCH   6   7
HETATM    7  N4  UNL     1      25.611   2.786  53.330  1.00  0.00    -0.185 N 
HETATM    8  H23 UNL     1      25.830   3.683  53.828  1.00  0.00     0.184 HD
BRANCH   7   9
HETATM    9  C15 UNL     1      26.463   1.660  53.625  1.00  0.00     0.726 C 
HETATM   10  N5  UNL     1      27.677   2.104  53.818  1.00  0.00    -0.074 NA
HETATM   11  C16 UNL     1      28.877   1.414  54.135  1.00  0.00     0.153 C 
HETATM   12  C17 UNL     1      29.229   0.116  54.094  1.00  0.00     0.103 C 
HETATM   13  N6  UNL     1      28.528  -1.067  53.717  1.00  0.00    -0.393 N 
HETATM   14  C18 UNL     1      27.378  -1.457  52.965  1.00  0.00     0.166 C 
HETATM   15  H26 UNL     1      29.054  -1.887  54.141  1.00  0.00     0.159 HD
HETATM   16  C19 UNL     1      26.116  -0.794  53.368  1.00  0.00     0.129 C 
HETATM   17  N7  UNL     1      25.776   0.425  53.622  1.00  0.00    -0.077 NA
ENDBRANCH   7   9
ENDBRANCH   6   7
BRANCH   1  18
HETATM   18  O2  UNL     1      26.099   3.514  50.762  1.00  0.00    -0.330 OA
BRANCH  18  19
HETATM   19  C3  UNL     1      26.556   3.795  49.481  1.00  0.00     0.301 C 
BRANCH  19  20
HETATM   20  N1  UNL     1      26.462   5.161  49.066  1.00  0.00    -0.340 N 
HETATM   21  C2  UNL     1      27.677   5.591  48.487  1.00  0.00     0.215 C 
HETATM   22  C1  UNL     1      27.913   6.969  47.951  1.00  0.00     0.117 C 
HETATM   23  O1  UNL     1      28.613   4.723  48.433  1.00  0.00    -0.274 OA
HETATM   24  H4  UNL     1      25.719   5.888  49.097  1.00  0.00     0.164 HD
ENDBRANCH  19  20
ENDBRANCH  18  19
ENDBRANCH   1  18
BRANCH   3  25
HETATM   25  N2  UNL     1      21.579   2.538  49.301  1.00  0.00    -0.383 N 
HETATM   26  C7  UNL     1      21.707   1.343  48.496  1.00  0.00     0.149 C 
BRANCH  25  27
HETATM   27  C8  UNL     1      20.580   3.547  49.077  1.00  0.00     0.152 C 
BRANCH  27  28
HETATM   28  C9  UNL     1      21.083   4.860  48.590  1.00  0.00     0.291 C 
BRANCH  28  29
HETATM   29  N3  UNL     1      22.033   4.819  47.519  1.00  0.00     0.081 N 
HETATM   30  C10 UNL     1      21.259   5.149  46.300  1.00  0.00     0.309 C 
HETATM   31  C11 UNL     1      23.004   5.911  47.608  1.00  0.00     0.309 C 
ENDBRANCH  28  29
ENDBRANCH  27  28
ENDBRANCH  25  27
ENDBRANCH   3  25
TORSDOF 9
ENDMDL
MODEL 7
REMARK VINA RESULT:      -6.7      1.541      2.127
REMARK  9 active torsions:
REMARK  status: ('A' for Active; 'I' for Inactive)
REMARK       I    between atoms: C2_2  and  N1_4 
REMARK    1  A    between atoms: N1_4  and  C3_5 
REMARK    2  A    between atoms: C3_5  and  O2_6 
REMARK    3  A    between atoms: O2_6  and  C4_7 
REMARK    4  A    between atoms: C6_9  and  N2_10 
REMARK    5  A    between atoms: N2_10  and  C8_12 
REMARK    6  A    between atoms: C8_12  and  C9_13 
REMARK    7  A    between atoms: C9_13  and  N3_14 
REMARK    8  A    between atoms: C14_19  and  N4_20 
REMARK    9  A    between atoms: N4_20  and  C15_21 
ROOT
HETATM    1  C4  UNL     1      24.253   2.759  51.075  1.00  0.00     0.100 A 
HETATM    2  C5  UNL     1      24.242   1.730  52.022  1.00  0.00     0.068 A 
HETATM    3  C6  UNL     1      25.369   0.989  52.302  1.00  0.00     0.032 A 
HETATM    4  C12 UNL     1      26.478   1.348  51.581  1.00  0.00     0.031 A 
HETATM    5  C13 UNL     1      26.523   2.342  50.655  1.00  0.00     0.035 A 
HETATM    6  C14 UNL     1      25.408   3.088  50.366  1.00  0.00     0.083 A 
ENDROOT
BRANCH   6   7
HETATM    7  N4  UNL     1      25.296   4.139  49.421  1.00  0.00    -0.185 N 
HETATM    8  H23 UNL     1      24.576   4.110  48.659  1.00  0.00     0.184 HD
BRANCH   7   9
HETATM    9  C15 UNL     1      26.167   5.288  49.441  1.00  0.00     0.726 C 
HETATM   10  N5  UNL     1      25.520   6.284  49.984  1.00  0.00    -0.074 NA
HETATM   11  C16 UNL     1      25.920   7.623  50.238  1.00  0.00     0.153 C 
HETATM   12  C17 UNL     1      26.950   8.372  49.802  1.00  0.00     0.103 C 
HETATM   13  N6  UNL     1      28.035   8.107  48.918  1.00  0.00    -0.393 N 
HETATM   14  C18 UNL     1      28.401   7.185  47.890  1.00  0.00     0.166 C 
HETATM   15  H26 UNL     1      28.778   8.844  49.109  1.00  0.00     0.159 HD
HETATM   16  C19 UNL     1      28.321   5.757  48.278  1.00  0.00     0.129 C 
HETATM   17  N7  UNL     1      27.441   5.033  48.883  1.00  0.00    -0.077 NA
ENDBRANCH   7   9
ENDBRANCH   6   7
BRANCH   1  18
HETATM   18  O2  UNL     1      23.083   3.469  50.840  1.00  0.00    -0.330 OA
BRANCH  18  19
HETATM   19  C3  UNL     1      21.879   3.291  51.510  1.00  0.00     0.301 C 
BRANCH  19  20
HETATM   20  N1  UNL     1      20.909   2.470  50.852  1.00  0.00    -0.340 N 
HETATM   21  C2  UNL     1      20.390   1.502  51.740  1.00  0.00     0.215 C 
HETATM   22  C1  UNL     1      19.357   0.485  51.367  1.00  0.00     0.117 C 
HETATM   23  O1  UNL     1      20.854   1.524  52.930  1.00  0.00    -0.274 OA
HETATM   24  H4  UNL     1      20.514   2.428  49.890  1.00  0.00     0.164 HD
ENDBRANCH  19  20
ENDBRANCH  18  19
ENDBRANCH   1  18
BRANCH   3  25
HETATM   25  N2  UNL     1      25.337  -0.068  53.274  1.00  0.00    -0.383 N 
HETATM   26  C7  UNL     1      23.986  -0.458  53.610  1.00  0.00     0.149 C 
BRANCH  25  27
HETATM   27  C8  UNL     1      26.507  -0.674  53.849  1.00  0.00     0.152 C 
BRANCH  27  28
HETATM   28  C9  UNL     1      27.202   0.125  54.895  1.00  0.00     0.291 C 
BRANCH  28  29
HETATM   29  N3  UNL     1      28.626   0.226  54.776  1.00  0.00     0.081 N 
HETATM   30  C10 UNL     1      28.996  -0.739  53.715  1.00  0.00     0.309 C 
HETATM   31  C11 UNL     1      29.038   1.514  54.218  1.00  0.00     0.309 C 
ENDBRANCH  28  29
ENDBRANCH  27  28
ENDBRANCH  25  27
ENDBRANCH   3  25
TORSDOF 9
ENDMDL
MODEL 8
REMARK VINA RESULT:      -6.7      3.559      6.005
REMARK  9 active torsions:
REMARK  status: ('A' for Active; 'I' for Inactive)
REMARK       I    between atoms: C2_2  and  N1_4 
REMARK    1  A    between atoms: N1_4  and  C3_5 
REMARK    2  A    between atoms: C3_5  and  O2_6 
REMARK    3  A    between atoms: O2_6  and  C4_7 
REMARK    4  A    between atoms: C6_9  and  N2_10 
REMARK    5  A    between atoms: N2_10  and  C8_12 
REMARK    6  A    between atoms: C8_12  and  C9_13 
REMARK    7  A    between atoms: C9_13  and  N3_14 
REMARK    8  A    between atoms: C14_19  and  N4_20 
REMARK    9  A    between atoms: N4_20  and  C15_21 
ROOT
HETATM    1  C4  UNL     1      26.817   6.829  49.066  1.00  0.00     0.100 A 
HETATM    2  C5  UNL     1      25.716   6.437  49.832  1.00  0.00     0.068 A 
HETATM    3  C6  UNL     1      25.437   5.110  50.078  1.00  0.00     0.032 A 
HETATM    4  C12 UNL     1      26.322   4.231  49.512  1.00  0.00     0.031 A 
HETATM    5  C13 UNL     1      27.402   4.577  48.763  1.00  0.00     0.035 A 
HETATM    6  C14 UNL     1      27.691   5.895  48.510  1.00  0.00     0.083 A 
ENDROOT
BRANCH   6   7
HETATM    7  N4  UNL     1      28.764   6.409  47.738  1.00  0.00    -0.185 N 
HETATM    8  H23 UNL     1      28.589   6.977  46.875  1.00  0.00     0.184 HD
BRANCH   7   9
HETATM    9  C15 UNL     1      30.144   6.168  48.083  1.00  0.00     0.726 C 
HETATM   10  N5  UNL     1      30.622   7.250  48.638  1.00  0.00    -0.074 NA
HETATM   11  C16 UNL     1      31.915   7.535  49.152  1.00  0.00     0.153 C 
HETATM   12  C17 UNL     1      33.109   6.927  49.024  1.00  0.00     0.103 C 
HETATM   13  N6  UNL     1      33.533   5.761  48.322  1.00  0.00    -0.393 N 
HETATM   14  C18 UNL     1      33.100   4.916  47.255  1.00  0.00     0.166 C 
HETATM   15  H26 UNL     1      34.459   5.462  48.750  1.00  0.00     0.159 HD
HETATM   16  C19 UNL     1      31.732   4.369  47.411  1.00  0.00     0.129 C 
HETATM   17  N7  UNL     1      30.588   4.872  47.735  1.00  0.00    -0.077 NA
ENDBRANCH   7   9
ENDBRANCH   6   7
BRANCH   1  18
HETATM   18  O2  UNL     1      27.042   8.183  48.855  1.00  0.00    -0.330 OA
BRANCH  18  19
HETATM   19  C3  UNL     1      27.414   9.103  49.828  1.00  0.00     0.301 C 
BRANCH  19  20
HETATM   20  N1  UNL     1      28.818   9.355  49.949  1.00  0.00    -0.340 N 
HETATM   21  C2  UNL     1      29.187  10.490  49.194  1.00  0.00     0.215 C 
HETATM   22  C1  UNL     1      30.583  11.024  49.105  1.00  0.00     0.117 C 
HETATM   23  O1  UNL     1      28.246  11.074  48.558  1.00  0.00    -0.274 OA
HETATM   24  H4  UNL     1      29.604   8.899  50.455  1.00  0.00     0.164 HD
ENDBRANCH  19  20
ENDBRANCH  18  19
ENDBRANCH   1  18
BRANCH   3  25
HETATM   25  N2  UNL     1      24.297   4.727  50.864  1.00  0.00    -0.383 N 
HETATM   26  C7  UNL     1      23.533   5.870  51.308  1.00  0.00     0.149 C 
BRANCH  25  27
HETATM   27  C8  UNL     1      23.950   3.366  51.175  1.00  0.00     0.152 C 
BRANCH  27  28
HETATM   28  C9  UNL     1      24.321   2.899  52.538  1.00  0.00     0.291 C 
BRANCH  28  29
HETATM   29  N3  UNL     1      23.572   1.795  53.057  1.00  0.00     0.081 N 
HETATM   30  C10 UNL     1      22.469   1.584  52.091  1.00  0.00     0.309 C 
HETATM   31  C11 UNL     1      24.325   0.542  52.986  1.00  0.00     0.309 C 
ENDBRANCH  28  29
ENDBRANCH  27  28
ENDBRANCH  25  27
ENDBRANCH   3  25
TORSDOF 9
ENDMDL
MODEL 9
REMARK VINA RESULT:      -6.4      1.983      7.217
REMARK  9 active torsions:
REMARK  status: ('A' for Active; 'I' for Inactive)
REMARK       I    between atoms: C2_2  and  N1_4 
REMARK    1  A    between atoms: N1_4  and  C3_5 
REMARK    2  A    between atoms: C3_5  and  O2_6 
REMARK    3  A    between atoms: O2_6  and  C4_7 
REMARK    4  A    between atoms: C6_9  and  N2_10 
REMARK    5  A    between atoms: N2_10  and  C8_12 
REMARK    6  A    between atoms: C8_12  and  C9_13 
REMARK    7  A    between atoms: C9_13  and  N3_14 
REMARK    8  A    between atoms: C14_19  and  N4_20 
REMARK    9  A    between atoms: N4_20  and  C15_21 
ROOT
HETATM    1  C4  UNL     1      24.649   3.254  51.493  1.00  0.00     0.100 A 
HETATM    2  C5  UNL     1      23.974   4.477  51.474  1.00  0.00     0.068 A 
HETATM    3  C6  UNL     1      24.391   5.526  50.684  1.00  0.00     0.032 A 
HETATM    4  C12 UNL     1      25.508   5.262  49.935  1.00  0.00     0.031 A 
HETATM    5  C13 UNL     1      26.188   4.085  49.929  1.00  0.00     0.035 A 
HETATM    6  C14 UNL     1      25.783   3.033  50.711  1.00  0.00     0.083 A 
ENDROOT
BRANCH   6   7
HETATM    7  N4  UNL     1      26.394   1.758  50.824  1.00  0.00    -0.185 N 
HETATM    8  H23 UNL     1      26.346   1.061  50.042  1.00  0.00     0.184 HD
BRANCH   7   9
HETATM    9  C15 UNL     1      27.094   1.343  52.015  1.00  0.00     0.726 C 
HETATM   10  N5  UNL     1      27.811   2.350  52.440  1.00  0.00    -0.074 NA
HETATM   11  C16 UNL     1      28.674   2.466  53.562  1.00  0.00     0.153 C 
HETATM   12  C17 UNL     1      29.234   1.562  54.387  1.00  0.00     0.103 C 
HETATM   13  N6  UNL     1      29.173   0.140  54.452  1.00  0.00    -0.393 N 
HETATM   14  C18 UNL     1      28.837  -0.974  53.623  1.00  0.00     0.166 C 
HETATM   15  H26 UNL     1      29.483  -0.140  55.430  1.00  0.00     0.159 HD
HETATM   16  C19 UNL     1      27.491  -0.908  53.007  1.00  0.00     0.129 C 
HETATM   17  N7  UNL     1      26.826   0.005  52.383  1.00  0.00    -0.077 NA
ENDBRANCH   7   9
ENDBRANCH   6   7
BRANCH   1  18
HETATM   18  O2  UNL     1      24.177   2.237  52.312  1.00  0.00    -0.330 OA
BRANCH  18  19
HETATM   19  C3  UNL     1      23.134   1.370  52.007  1.00  0.00     0.301 C 
BRANCH  19  20
HETATM   20  N1  UNL     1      22.219   1.090  53.071  1.00  0.00    -0.340 N 
HETATM   21  C2  UNL     1      22.529  -0.144  53.683  1.00  0.00     0.215 C 
HETATM   22  C1  UNL     1      21.765  -0.731  54.829  1.00  0.00     0.117 C 
HETATM   23  O1  UNL     1      23.532  -0.774  53.204  1.00  0.00    -0.274 OA
HETATM   24  H4  UNL     1      21.398   1.581  53.481  1.00  0.00     0.164 HD
ENDBRANCH  19  20
ENDBRANCH  18  19
ENDBRANCH   1  18
BRANCH   3  25
HETATM   25  N2  UNL     1      23.686   6.778  50.683  1.00  0.00    -0.383 N 
HETATM   26  C7  UNL     1      22.254   6.596  50.761  1.00  0.00     0.149 C 
BRANCH  25  27
HETATM   27  C8  UNL     1      24.324   8.065  50.613  1.00  0.00     0.152 C 
BRANCH  27  28
HETATM   28  C9  UNL     1      24.563   8.596  49.243  1.00  0.00     0.291 C 
BRANCH  28  29
HETATM   29  N3  UNL     1      25.921   8.898  48.907  1.00  0.00     0.081 N 
HETATM   30  C10 UNL     1      25.941  10.356  48.645  1.00  0.00     0.309 C 
HETATM   31  C11 UNL     1      26.815   8.750  50.056  1.00  0.00     0.309 C 
ENDBRANCH  28  29
ENDBRANCH  27  28
ENDBRANCH  25  27
ENDBRANCH   3  25
TORSDOF 9
ENDMDL
