MODEL 1
REMARK VINA RESULT:      -7.9      0.000      0.000
REMARK  5 active torsions:
REMARK  status: ('A' for Active; 'I' for Inactive)
REMARK    1  A    between atoms: C2_2  and  C3_3 
REMARK    2  A    between atoms: C4_4  and  C5_5 
REMARK    3  A    between atoms: C4_4  and  O2_22 
REMARK    4  A    between atoms: N2_17  and  C16_18 
REMARK    5  A    between atoms: C16_18  and  O1_19 
ROOT
HETATM    1  C5  UNL     1      24.920   0.654  52.904  1.00  0.00     0.050 C 
HETATM    2  C6  UNL     1      23.750   1.134  52.789  1.00  0.00    -0.001 C 
HETATM    3  C7  UNL     1      22.410   0.565  52.985  1.00  0.00    -0.050 C 
HETATM    4  C8  UNL     1      22.569  -0.846  53.317  1.00  0.00     0.049 C 
HETATM    5  C9  UNL     1      21.155   1.037  52.887  1.00  0.00     0.007 C 
HETATM    6  C10 UNL     1      20.337   2.227  52.562  1.00  0.00     0.001 C 
HETATM    7  C11 UNL     1      20.366   3.468  52.122  1.00  0.00     0.002 C 
HETATM    8  C12 UNL     1      21.362   4.390  51.619  1.00  0.00     0.027 C 
HETATM    9  C13 UNL     1      22.452   3.668  51.393  1.00  0.00     0.040 C 
HETATM   10  C14 UNL     1      23.288   2.460  51.315  1.00  0.00     0.121 C 
HETATM   11  C15 UNL     1      24.171   2.514  52.373  1.00  0.00     0.071 C 
HETATM   12  N1  UNL     1      24.626   3.649  52.153  1.00  0.00    -0.172 NA
HETATM   13  N2  UNL     1      23.660   4.503  51.530  1.00  0.00    -0.227 N 
ENDROOT
BRANCH   1  14
HETATM   14  C4  UNL     1      25.722  -0.496  53.227  1.00  0.00     0.065 C 
HETATM   15  C3  UNL     1      26.605  -1.268  52.619  1.00  0.00     0.009 C 
BRANCH  15  16
HETATM   16  C2  UNL     1      27.499  -2.412  52.712  1.00  0.00     0.025 C 
HETATM   17  C1  UNL     1      28.897  -1.959  53.089  1.00  0.00     0.009 C 
ENDBRANCH  15  16
BRANCH  14  18
HETATM   18  O2  UNL     1      25.861  -1.241  54.381  1.00  0.00    -0.356 OA
HETATM   19  C18 UNL     1      25.361  -0.879  55.643  1.00  0.00     0.210 C 
ENDBRANCH  14  18
ENDBRANCH   1  14
BRANCH  13  20
HETATM   20  C16 UNL     1      24.008   5.923  51.213  1.00  0.00     0.214 A 
HETATM   21  C17 UNL     1      23.468   6.489  49.943  1.00  0.00     0.154 A 
HETATM   22  S1  UNL     1      25.233   6.148  49.865  1.00  0.00    -0.101 SA
BRANCH  20  23
HETATM   23  O1  UNL     1      24.257   6.739  52.282  1.00  0.00    -0.360 OA
HETATM   24  H17 UNL     1      23.563   7.451  52.369  1.00  0.00     0.213 HD
ENDBRANCH  20  23
ENDBRANCH  13  20
TORSDOF 5
ENDMDL
MODEL 2
REMARK VINA RESULT:      -7.9      3.012      4.261
REMARK  5 active torsions:
REMARK  status: ('A' for Active; 'I' for Inactive)
REMARK    1  A    between atoms: C2_2  and  C3_3 
REMARK    2  A    between atoms: C4_4  and  C5_5 
REMARK    3  A    between atoms: C4_4  and  O2_22 
REMARK    4  A    between atoms: N2_17  and  C16_18 
REMARK    5  A    between atoms: C16_18  and  O1_19 
ROOT
HETATM    1  C5  UNL     1      24.734   1.795  52.593  1.00  0.00     0.050 C 
HETATM    2  C6  UNL     1      23.821   1.013  52.999  1.00  0.00    -0.001 C 
HETATM    3  C7  UNL     1      23.839  -0.225  53.789  1.00  0.00    -0.050 C 
HETATM    4  C8  UNL     1      25.232  -0.563  54.055  1.00  0.00     0.049 C 
HETATM    5  C9  UNL     1      22.902  -1.072  54.248  1.00  0.00     0.007 C 
HETATM    6  C10 UNL     1      21.448  -1.355  54.288  1.00  0.00     0.001 C 
HETATM    7  C11 UNL     1      20.265  -0.983  53.847  1.00  0.00     0.002 C 
HETATM    8  C12 UNL     1      19.741   0.002  52.925  1.00  0.00     0.027 C 
HETATM    9  C13 UNL     1      20.784   0.475  52.258  1.00  0.00     0.040 C 
HETATM   10  C14 UNL     1      22.192   0.598  51.849  1.00  0.00     0.121 C 
HETATM   11  C15 UNL     1      22.669   1.768  52.399  1.00  0.00     0.071 C 
HETATM   12  N1  UNL     1      21.787   2.529  51.967  1.00  0.00    -0.172 NA
HETATM   13  N2  UNL     1      20.530   1.860  51.817  1.00  0.00    -0.227 N 
ENDROOT
BRANCH   1  14
HETATM   14  C4  UNL     1      26.144   2.081  52.556  1.00  0.00     0.065 C 
HETATM   15  C3  UNL     1      27.152   2.120  53.410  1.00  0.00     0.009 C 
BRANCH  15  16
HETATM   16  C2  UNL     1      28.572   2.361  53.617  1.00  0.00     0.025 C 
HETATM   17  C1  UNL     1      29.271   1.079  54.024  1.00  0.00     0.009 C 
ENDBRANCH  15  16
BRANCH  14  18
HETATM   18  O2  UNL     1      26.998   2.433  51.529  1.00  0.00    -0.356 OA
HETATM   19  C18 UNL     1      26.622   3.127  50.367  1.00  0.00     0.210 C 
ENDBRANCH  14  18
ENDBRANCH   1  14
BRANCH  13  20
HETATM   20  C16 UNL     1      19.331   2.614  51.337  1.00  0.00     0.214 A 
HETATM   21  C17 UNL     1      18.418   1.912  50.390  1.00  0.00     0.154 A 
HETATM   22  S1  UNL     1      19.409   3.186  49.595  1.00  0.00    -0.101 SA
BRANCH  20  23
HETATM   23  O1  UNL     1      18.845   3.578  52.178  1.00  0.00    -0.360 OA
HETATM   24  H17 UNL     1      19.051   3.370  53.132  1.00  0.00     0.213 HD
ENDBRANCH  20  23
ENDBRANCH  13  20
TORSDOF 5
ENDMDL
MODEL 3
REMARK VINA RESULT:      -7.6      3.181      6.809
REMARK  5 active torsions:
REMARK  status: ('A' for Active; 'I' for Inactive)
REMARK    1  A    between atoms: C2_2  and  C3_3 
REMARK    2  A    between atoms: C4_4  and  C5_5 
REMARK    3  A    between atoms: C4_4  and  O2_22 
REMARK    4  A    between atoms: N2_17  and  C16_18 
REMARK    5  A    between atoms: C16_18  and  O1_19 
ROOT
HETATM    1  C5  UNL     1      26.044   3.580  50.572  1.00  0.00     0.050 C 
HETATM    2  C6  UNL     1      25.385   2.672  51.167  1.00  0.00    -0.001 C 
HETATM    3  C7  UNL     1      23.962   2.310  51.176  1.00  0.00    -0.050 C 
HETATM    4  C8  UNL     1      23.249   3.282  50.356  1.00  0.00     0.049 C 
HETATM    5  C9  UNL     1      23.229   1.357  51.777  1.00  0.00     0.007 C 
HETATM    6  C10 UNL     1      23.280   0.202  52.703  1.00  0.00     0.001 C 
HETATM    7  C11 UNL     1      24.048  -0.500  53.510  1.00  0.00     0.002 C 
HETATM    8  C12 UNL     1      25.410  -0.440  53.993  1.00  0.00     0.027 C 
HETATM    9  C13 UNL     1      25.873   0.753  53.644  1.00  0.00     0.040 C 
HETATM   10  C14 UNL     1      25.840   2.107  53.070  1.00  0.00     0.121 C 
HETATM   11  C15 UNL     1      26.551   2.060  51.890  1.00  0.00     0.071 C 
HETATM   12  N1  UNL     1      27.594   1.559  52.342  1.00  0.00    -0.172 NA
HETATM   13  N2  UNL     1      27.336   0.706  53.463  1.00  0.00    -0.227 N 
ENDROOT
BRANCH   1  14
HETATM   14  C4  UNL     1      26.004   4.698  49.667  1.00  0.00     0.065 C 
HETATM   15  C3  UNL     1      25.276   5.787  49.497  1.00  0.00     0.009 C 
BRANCH  15  16
HETATM   16  C2  UNL     1      25.043   6.994  48.718  1.00  0.00     0.025 C 
HETATM   17  C1  UNL     1      23.872   6.795  47.775  1.00  0.00     0.009 C 
ENDBRANCH  15  16
BRANCH  14  18
HETATM   18  O2  UNL     1      26.785   5.048  48.583  1.00  0.00    -0.356 OA
HETATM   19  C18 UNL     1      28.189   5.108  48.582  1.00  0.00     0.210 C 
ENDBRANCH  14  18
ENDBRANCH   1  14
BRANCH  13  20
HETATM   20  C16 UNL     1      28.463  -0.017  54.131  1.00  0.00     0.214 A 
HETATM   21  C17 UNL     1      29.792   0.024  53.457  1.00  0.00     0.154 A 
HETATM   22  S1  UNL     1      28.984  -1.577  53.318  1.00  0.00    -0.101 SA
BRANCH  20  23
HETATM   23  O1  UNL     1      28.381  -0.142  55.490  1.00  0.00    -0.360 OA
HETATM   24  H17 UNL     1      29.070  -0.772  55.843  1.00  0.00     0.213 HD
ENDBRANCH  20  23
ENDBRANCH  13  20
TORSDOF 5
ENDMDL
MODEL 4
REMARK VINA RESULT:      -7.6      2.797      3.449
REMARK  5 active torsions:
REMARK  status: ('A' for Active; 'I' for Inactive)
REMARK    1  A    between atoms: C2_2  and  C3_3 
REMARK    2  A    between atoms: C4_4  and  C5_5 
REMARK    3  A    between atoms: C4_4  and  O2_22 
REMARK    4  A    between atoms: N2_17  and  C16_18 
REMARK    5  A    between atoms: C16_18  and  O1_19 
ROOT
HETATM    1  C5  UNL     1      24.755   0.016  53.193  1.00  0.00     0.050 C 
HETATM    2  C6  UNL     1      23.499  -0.093  53.345  1.00  0.00    -0.001 C 
HETATM    3  C7  UNL     1      22.667  -0.762  54.353  1.00  0.00    -0.050 C 
HETATM    4  C8  UNL     1      23.557  -1.455  55.277  1.00  0.00     0.049 C 
HETATM    5  C9  UNL     1      21.344  -0.891  54.558  1.00  0.00     0.007 C 
HETATM    6  C10 UNL     1      20.004  -0.547  54.032  1.00  0.00     0.001 C 
HETATM    7  C11 UNL     1      19.347   0.016  53.039  1.00  0.00     0.002 C 
HETATM    8  C12 UNL     1      19.670   0.616  51.762  1.00  0.00     0.027 C 
HETATM    9  C13 UNL     1      20.937   0.310  51.520  1.00  0.00     0.040 C 
HETATM   10  C14 UNL     1      22.252  -0.309  51.750  1.00  0.00     0.121 C 
HETATM   11  C15 UNL     1      23.110   0.701  52.131  1.00  0.00     0.071 C 
HETATM   12  N1  UNL     1      22.898   1.469  51.178  1.00  0.00    -0.172 NA
HETATM   13  N2  UNL     1      21.565   1.341  50.672  1.00  0.00    -0.227 N 
ENDROOT
BRANCH   1  14
HETATM   14  C4  UNL     1      26.061  -0.308  53.702  1.00  0.00     0.065 C 
HETATM   15  C3  UNL     1      27.031   0.308  54.355  1.00  0.00     0.009 C 
BRANCH  15  16
HETATM   16  C2  UNL     1      28.356   0.217  54.949  1.00  0.00     0.025 C 
HETATM   17  C1  UNL     1      29.418   0.569  53.926  1.00  0.00     0.009 C 
ENDBRANCH  15  16
BRANCH  14  18
HETATM   18  O2  UNL     1      26.804  -1.472  53.691  1.00  0.00    -0.356 OA
HETATM   19  C18 UNL     1      27.053  -2.262  52.556  1.00  0.00     0.210 C 
ENDBRANCH  14  18
ENDBRANCH   1  14
BRANCH  13  20
HETATM   20  C16 UNL     1      21.105   2.205  49.541  1.00  0.00     0.214 A 
HETATM   21  C17 UNL     1      21.908   3.425  49.246  1.00  0.00     0.154 A 
HETATM   22  S1  UNL     1      20.334   3.796  50.033  1.00  0.00    -0.101 SA
BRANCH  20  23
HETATM   23  O1  UNL     1      20.409   1.578  48.544  1.00  0.00    -0.360 OA
HETATM   24  H17 UNL     1      19.706   2.172  48.158  1.00  0.00     0.213 HD
ENDBRANCH  20  23
ENDBRANCH  13  20
TORSDOF 5
ENDMDL
MODEL 5
REMARK VINA RESULT:      -7.4      2.762      6.389
REMARK  5 active torsions:
REMARK  status: ('A' for Active; 'I' for Inactive)
REMARK    1  A    between atoms: C2_2  and  C3_3 
REMARK    2  A    between atoms: C4_4  and  C5_5 
REMARK    3  A    between atoms: C4_4  and  O2_22 
REMARK    4  A    between atoms: N2_17  and  C16_18 
REMARK    5  A    between atoms: C16_18  and  O1_19 
ROOT
HETATM    1  C5  UNL     1      24.028   2.489  50.452  1.00  0.00     0.050 C 
HETATM    2  C6  UNL     1      23.645   1.718  51.385  1.00  0.00    -0.001 C 
HETATM    3  C7  UNL     1      22.320   1.370  51.916  1.00  0.00    -0.050 C 
HETATM    4  C8  UNL     1      21.330   2.166  51.201  1.00  0.00     0.049 C 
HETATM    5  C9  UNL     1      21.871   0.556  52.887  1.00  0.00     0.007 C 
HETATM    6  C10 UNL     1      22.278  -0.396  53.946  1.00  0.00     0.001 C 
HETATM    7  C11 UNL     1      23.301  -0.931  54.581  1.00  0.00     0.002 C 
HETATM    8  C12 UNL     1      24.740  -0.783  54.582  1.00  0.00     0.027 C 
HETATM    9  C13 UNL     1      24.999   0.317  53.887  1.00  0.00     0.040 C 
HETATM   10  C14 UNL     1      24.707   1.533  53.112  1.00  0.00     0.121 C 
HETATM   11  C15 UNL     1      25.012   1.253  51.797  1.00  0.00     0.071 C 
HETATM   12  N1  UNL     1      26.172   0.846  51.977  1.00  0.00    -0.172 NA
HETATM   13  N2  UNL     1      26.331   0.230  53.259  1.00  0.00    -0.227 N 
ENDROOT
BRANCH   1  14
HETATM   14  C4  UNL     1      23.641   3.408  49.415  1.00  0.00     0.065 C 
HETATM   15  C3  UNL     1      23.876   4.668  49.094  1.00  0.00     0.009 C 
BRANCH  15  16
HETATM   16  C2  UNL     1      23.629   5.760  48.166  1.00  0.00     0.025 C 
HETATM   17  C1  UNL     1      24.691   6.832  48.317  1.00  0.00     0.009 C 
ENDBRANCH  15  16
BRANCH  14  18
HETATM   18  O2  UNL     1      22.829   3.274  48.306  1.00  0.00    -0.356 OA
HETATM   19  C18 UNL     1      22.473   2.054  47.707  1.00  0.00     0.210 C 
ENDBRANCH  14  18
ENDBRANCH   1  14
BRANCH  13  20
HETATM   20  C16 UNL     1      27.650  -0.354  53.654  1.00  0.00     0.214 A 
HETATM   21  C17 UNL     1      28.231   0.091  54.953  1.00  0.00     0.154 A 
HETATM   22  S1  UNL     1      29.082   0.788  53.529  1.00  0.00    -0.101 SA
BRANCH  20  23
HETATM   23  O1  UNL     1      27.935  -1.598  53.160  1.00  0.00    -0.360 OA
HETATM   24  H17 UNL     1      28.901  -1.687  52.926  1.00  0.00     0.213 HD
ENDBRANCH  20  23
ENDBRANCH  13  20
TORSDOF 5
ENDMDL
MODEL 6
REMARK VINA RESULT:      -7.3      3.136      4.051
REMARK  5 active torsions:
REMARK  status: ('A' for Active; 'I' for Inactive)
REMARK    1  A    between atoms: C2_2  and  C3_3 
REMARK    2  A    between atoms: C4_4  and  C5_5 
REMARK    3  A    between atoms: C4_4  and  O2_22 
REMARK    4  A    between atoms: N2_17  and  C16_18 
REMARK    5  A    between atoms: C16_18  and  O1_19 
ROOT
HETATM    1  C5  UNL     1      24.285   0.178  52.793  1.00  0.00     0.050 C 
HETATM    2  C6  UNL     1      23.832   1.356  52.657  1.00  0.00    -0.001 C 
HETATM    3  C7  UNL     1      24.371   2.681  52.989  1.00  0.00    -0.050 C 
HETATM    4  C8  UNL     1      25.654   2.486  53.654  1.00  0.00     0.049 C 
HETATM    5  C9  UNL     1      23.934   3.945  52.852  1.00  0.00     0.007 C 
HETATM    6  C10 UNL     1      22.811   4.787  52.379  1.00  0.00     0.001 C 
HETATM    7  C11 UNL     1      21.588   4.779  51.892  1.00  0.00     0.002 C 
HETATM    8  C12 UNL     1      20.577   3.790  51.586  1.00  0.00     0.027 C 
HETATM    9  C13 UNL     1      20.987   2.659  52.142  1.00  0.00     0.040 C 
HETATM   10  C14 UNL     1      21.857   1.770  52.928  1.00  0.00     0.121 C 
HETATM   11  C15 UNL     1      22.525   0.965  52.029  1.00  0.00     0.071 C 
HETATM   12  N1  UNL     1      21.532   0.543  51.413  1.00  0.00    -0.172 NA
HETATM   13  N2  UNL     1      20.466   1.498  51.396  1.00  0.00    -0.227 N 
ENDROOT
BRANCH   1  14
HETATM   14  C4  UNL     1      25.375  -0.647  53.243  1.00  0.00     0.065 C 
HETATM   15  C3  UNL     1      26.507  -1.119  52.750  1.00  0.00     0.009 C 
BRANCH  15  16
HETATM   16  C2  UNL     1      27.702  -1.916  52.977  1.00  0.00     0.025 C 
HETATM   17  C1  UNL     1      28.884  -1.017  53.287  1.00  0.00     0.009 C 
ENDBRANCH  15  16
BRANCH  14  18
HETATM   18  O2  UNL     1      25.637  -1.272  54.446  1.00  0.00    -0.356 OA
HETATM   19  C18 UNL     1      24.866  -1.135  55.613  1.00  0.00     0.210 C 
ENDBRANCH  14  18
ENDBRANCH   1  14
BRANCH  13  20
HETATM   20  C16 UNL     1      19.192   1.189  50.674  1.00  0.00     0.214 A 
HETATM   21  C17 UNL     1      17.921   1.619  51.322  1.00  0.00     0.154 A 
HETATM   22  S1  UNL     1      18.183  -0.159  51.406  1.00  0.00    -0.101 SA
BRANCH  20  23
HETATM   23  O1  UNL     1      19.276   1.093  49.312  1.00  0.00    -0.360 OA
HETATM   24  H17 UNL     1      20.190   0.822  49.019  1.00  0.00     0.213 HD
ENDBRANCH  20  23
ENDBRANCH  13  20
TORSDOF 5
ENDMDL
MODEL 7
REMARK VINA RESULT:      -7.2      3.580      6.674
REMARK  5 active torsions:
REMARK  status: ('A' for Active; 'I' for Inactive)
REMARK    1  A    between atoms: C2_2  and  C3_3 
REMARK    2  A    between atoms: C4_4  and  C5_5 
REMARK    3  A    between atoms: C4_4  and  O2_22 
REMARK    4  A    between atoms: N2_17  and  C16_18 
REMARK    5  A    between atoms: C16_18  and  O1_19 
ROOT
HETATM    1  C5  UNL     1      26.633   4.237  49.740  1.00  0.00     0.050 C 
HETATM    2  C6  UNL     1      25.601   3.564  50.046  1.00  0.00    -0.001 C 
HETATM    3  C7  UNL     1      24.189   3.662  49.655  1.00  0.00    -0.050 C 
HETATM    4  C8  UNL     1      24.045   4.829  48.793  1.00  0.00     0.049 C 
HETATM    5  C9  UNL     1      23.074   2.968  49.943  1.00  0.00     0.007 C 
HETATM    6  C10 UNL     1      22.529   1.830  50.719  1.00  0.00     0.001 C 
HETATM    7  C11 UNL     1      22.806   0.903  51.612  1.00  0.00     0.002 C 
HETATM    8  C12 UNL     1      23.940   0.524  52.428  1.00  0.00     0.027 C 
HETATM    9  C13 UNL     1      24.808   1.523  52.340  1.00  0.00     0.040 C 
HETATM   10  C14 UNL     1      25.331   2.835  51.928  1.00  0.00     0.121 C 
HETATM   11  C15 UNL     1      26.292   2.601  50.968  1.00  0.00     0.071 C 
HETATM   12  N1  UNL     1      26.977   1.789  51.612  1.00  0.00    -0.172 NA
HETATM   13  N2  UNL     1      26.185   1.029  52.531  1.00  0.00    -0.227 N 
ENDROOT
BRANCH   1  14
HETATM   14  C4  UNL     1      27.171   5.336  48.982  1.00  0.00     0.065 C 
HETATM   15  C3  UNL     1      28.272   5.601  48.301  1.00  0.00     0.009 C 
BRANCH  15  16
HETATM   16  C2  UNL     1      29.012   6.563  47.498  1.00  0.00     0.025 C 
HETATM   17  C1  UNL     1      30.503   6.312  47.616  1.00  0.00     0.009 C 
ENDBRANCH  15  16
BRANCH  14  18
HETATM   18  O2  UNL     1      26.676   6.588  48.675  1.00  0.00    -0.356 OA
HETATM   19  C18 UNL     1      26.292   7.559  49.616  1.00  0.00     0.210 C 
ENDBRANCH  14  18
ENDBRANCH   1  14
BRANCH  13  20
HETATM   20  C16 UNL     1      26.823  -0.026  53.379  1.00  0.00     0.214 A 
HETATM   21  C17 UNL     1      26.590   0.049  54.849  1.00  0.00     0.154 A 
HETATM   22  S1  UNL     1      28.258   0.532  54.377  1.00  0.00    -0.101 SA
BRANCH  20  23
HETATM   23  O1  UNL     1      27.049  -1.233  52.776  1.00  0.00    -0.360 OA
HETATM   24  H17 UNL     1      26.500  -1.339  51.949  1.00  0.00     0.213 HD
ENDBRANCH  20  23
ENDBRANCH  13  20
TORSDOF 5
ENDMDL
MODEL 8
REMARK VINA RESULT:      -7.2      2.930      4.152
REMARK  5 active torsions:
REMARK  status: ('A' for Active; 'I' for Inactive)
REMARK    1  A    between atoms: C2_2  and  C3_3 
REMARK    2  A    between atoms: C4_4  and  C5_5 
REMARK    3  A    between atoms: C4_4  and  O2_22 
REMARK    4  A    between atoms: N2_17  and  C16_18 
REMARK    5  A    between atoms: C16_18  and  O1_19 
ROOT
HETATM    1  C5  UNL     1      25.033   0.737  52.745  1.00  0.00     0.050 C 
HETATM    2  C6  UNL     1      24.655   1.567  51.862  1.00  0.00    -0.001 C 
HETATM    3  C7  UNL     1      25.382   2.436  50.928  1.00  0.00    -0.050 C 
HETATM    4  C8  UNL     1      26.808   2.282  51.193  1.00  0.00     0.049 C 
HETATM    5  C9  UNL     1      25.025   3.314  49.975  1.00  0.00     0.007 C 
HETATM    6  C10 UNL     1      23.875   3.952  49.294  1.00  0.00     0.001 C 
HETATM    7  C11 UNL     1      22.564   4.075  49.277  1.00  0.00     0.002 C 
HETATM    8  C12 UNL     1      21.448   3.614  50.074  1.00  0.00     0.027 C 
HETATM    9  C13 UNL     1      21.970   3.112  51.186  1.00  0.00     0.040 C 
HETATM   10  C14 UNL     1      23.022   2.750  52.148  1.00  0.00     0.121 C 
HETATM   11  C15 UNL     1      23.179   1.382  52.073  1.00  0.00     0.071 C 
HETATM   12  N1  UNL     1      21.990   1.067  52.244  1.00  0.00    -0.172 NA
HETATM   13  N2  UNL     1      21.094   2.063  51.740  1.00  0.00    -0.227 N 
ENDROOT
BRANCH   1  14
HETATM   14  C4  UNL     1      26.145   0.107  53.406  1.00  0.00     0.065 C 
HETATM   15  C3  UNL     1      27.184   0.479  54.132  1.00  0.00     0.009 C 
BRANCH  15  16
HETATM   16  C2  UNL     1      28.371   0.073  54.869  1.00  0.00     0.025 C 
HETATM   17  C1  UNL     1      29.575   0.033  53.949  1.00  0.00     0.009 C 
ENDBRANCH  15  16
BRANCH  14  18
HETATM   18  O2  UNL     1      26.532  -1.214  53.525  1.00  0.00    -0.356 OA
HETATM   19  C18 UNL     1      26.758  -2.090  52.451  1.00  0.00     0.210 C 
ENDBRANCH  14  18
ENDBRANCH   1  14
BRANCH  13  20
HETATM   20  C16 UNL     1      19.615   1.854  51.824  1.00  0.00     0.214 A 
HETATM   21  C17 UNL     1      19.137   0.467  52.088  1.00  0.00     0.154 A 
HETATM   22  S1  UNL     1      18.862   0.992  50.389  1.00  0.00    -0.101 SA
BRANCH  20  23
HETATM   23  O1  UNL     1      18.873   2.929  52.230  1.00  0.00    -0.360 OA
HETATM   24  H17 UNL     1      19.153   3.247  53.133  1.00  0.00     0.213 HD
ENDBRANCH  20  23
ENDBRANCH  13  20
TORSDOF 5
ENDMDL
MODEL 9
REMARK VINA RESULT:      -6.9      5.110      7.647
REMARK  5 active torsions:
REMARK  status: ('A' for Active; 'I' for Inactive)
REMARK    1  A    between atoms: C2_2  and  C3_3 
REMARK    2  A    between atoms: C4_4  and  C5_5 
REMARK    3  A    between atoms: C4_4  and  O2_22 
REMARK    4  A    between atoms: N2_17  and  C16_18 
REMARK    5  A    between atoms: C16_18  and  O1_19 
ROOT
HETATM    1  C5  UNL     1      25.885   4.456  49.370  1.00  0.00     0.050 C 
HETATM    2  C6  UNL     1      26.324   5.640  49.500  1.00  0.00    -0.001 C 
HETATM    3  C7  UNL     1      25.751   6.863  50.078  1.00  0.00    -0.050 C 
HETATM    4  C8  UNL     1      24.389   6.561  50.500  1.00  0.00     0.049 C 
HETATM    5  C9  UNL     1      26.182   8.125  50.246  1.00  0.00     0.007 C 
HETATM    6  C10 UNL     1      27.312   9.054  50.014  1.00  0.00     0.001 C 
HETATM    7  C11 UNL     1      28.498   9.193  49.459  1.00  0.00     0.002 C 
HETATM    8  C12 UNL     1      29.380   8.395  48.634  1.00  0.00     0.027 C 
HETATM    9  C13 UNL     1      28.662   7.359  48.221  1.00  0.00     0.040 C 
HETATM   10  C14 UNL     1      27.471   6.510  48.060  1.00  0.00     0.121 C 
HETATM   11  C15 UNL     1      27.660   5.400  48.856  1.00  0.00     0.071 C 
HETATM   12  N1  UNL     1      28.773   5.067  48.418  1.00  0.00    -0.172 NA
HETATM   13  N2  UNL     1      29.532   6.195  47.970  1.00  0.00    -0.227 N 
ENDROOT
BRANCH   1  14
HETATM   14  C4  UNL     1      24.795   3.546  49.598  1.00  0.00     0.065 C 
HETATM   15  C3  UNL     1      23.668   3.207  48.998  1.00  0.00     0.009 C 
BRANCH  15  16
HETATM   16  C2  UNL     1      22.474   2.376  49.016  1.00  0.00     0.025 C 
HETATM   17  C1  UNL     1      22.218   1.791  47.641  1.00  0.00     0.009 C 
ENDBRANCH  15  16
BRANCH  14  18
HETATM   18  O2  UNL     1      24.538   2.632  50.601  1.00  0.00    -0.356 OA
HETATM   19  C18 UNL     1      24.652   2.888  51.978  1.00  0.00     0.210 C 
ENDBRANCH  14  18
ENDBRANCH   1  14
BRANCH  13  20
HETATM   20  C16 UNL     1      30.917   6.004  47.435  1.00  0.00     0.214 A 
HETATM   21  C17 UNL     1      31.508   4.640  47.549  1.00  0.00     0.154 A 
HETATM   22  S1  UNL     1      32.229   5.816  48.705  1.00  0.00    -0.101 SA
BRANCH  20  23
HETATM   23  O1  UNL     1      31.294   6.838  46.419  1.00  0.00    -0.360 OA
HETATM   24  H17 UNL     1      30.643   6.813  45.663  1.00  0.00     0.213 HD
ENDBRANCH  20  23
ENDBRANCH  13  20
TORSDOF 5
ENDMDL
