MODEL 1
REMARK VINA RESULT:      -6.8      0.000      0.000
REMARK  10 active torsions:
REMARK  status: ('A' for Active; 'I' for Inactive)
REMARK    1  A    between atoms: C2_2  and  N1_3 
REMARK    2  A    between atoms: N1_3  and  C3_4 
REMARK    3  A    between atoms: N1_3  and  C5_8 
REMARK    4  A    between atoms: C3_4  and  C4_5 
REMARK    5  A    between atoms: C4_5  and  P1_6 
REMARK    6  A    between atoms: C5_8  and  C6_9 
REMARK    7  A    between atoms: C6_9  and  C7_10 
REMARK    8  A    between atoms: C8_11  and  C9_12 
REMARK    9  A    between atoms: C9_12  and  C10_13 
REMARK   10  A    between atoms: C15_18  and  O2_19 
ROOT
HETATM    1  C7  UNL     1      26.595   1.212  52.784  1.00  0.00    -0.072 C 
HETATM    2  C8  UNL     1      26.187   0.209  53.548  1.00  0.00    -0.070 C 
HETATM    3  C16 UNL     1      26.743   0.140  54.934  1.00  0.00     0.061 C 
HETATM    4  C17 UNL     1      28.224   0.414  54.877  1.00  0.00    -0.026 C 
HETATM    5  C18 UNL     1      28.665   1.415  54.125  1.00  0.00    -0.026 C 
HETATM    6  C19 UNL     1      27.558   2.124  53.434  1.00  0.00     0.061 C 
ENDROOT
BRANCH   1   7
HETATM    7  C6  UNL     1      26.181   1.470  51.402  1.00  0.00     0.054 C 
BRANCH   7   8
HETATM    8  C5  UNL     1      26.690   2.818  50.946  1.00  0.00     0.126 C 
BRANCH   8   9
HETATM    9  N1  UNL     1      25.720   3.508  50.118  1.00  0.00    -0.390 N 
BRANCH   9  10
HETATM   10  C2  UNL     1      26.048   4.531  49.191  1.00  0.00     0.075 C 
HETATM   11  C1  UNL     1      27.254   4.946  48.774  1.00  0.00     0.029 C 
ENDBRANCH   9  10
BRANCH   9  12
HETATM   12  C3  UNL     1      24.339   3.089  50.285  1.00  0.00     0.129 C 
BRANCH  12  13
HETATM   13  C4  UNL     1      23.387   4.223  50.509  1.00  0.00     0.093 C 
BRANCH  13  14
HETATM   14  P1  UNL     1      23.284   4.504  52.357  1.00  0.00     0.124 P 
HETATM   15  O1  UNL     1      24.148   3.705  53.353  1.00  0.00    -0.203 OA
ENDBRANCH  13  14
ENDBRANCH  12  13
ENDBRANCH   9  12
ENDBRANCH   8   9
ENDBRANCH   7   8
ENDBRANCH   1   7
BRANCH   2  16
HETATM   16  C9  UNL     1      25.228  -0.871  53.190  1.00  0.00     0.076 C 
BRANCH  16  17
HETATM   17  C10 UNL     1      23.843  -0.441  53.518  1.00  0.00    -0.021 A 
HETATM   18  C11 UNL     1      23.141   0.406  52.688  1.00  0.00     0.010 A 
HETATM   19  C12 UNL     1      21.854   0.818  52.971  1.00  0.00     0.001 A 
HETATM   20  C13 UNL     1      21.248   0.367  54.126  1.00  0.00     0.003 A 
HETATM   21  C14 UNL     1      21.953  -0.480  54.955  1.00  0.00     0.037 A 
HETATM   22  C15 UNL     1      23.258  -0.913  54.693  1.00  0.00     0.072 A 
BRANCH  22  23
HETATM   23  O2  UNL     1      23.911  -1.770  55.576  1.00  0.00    -0.360 OA
HETATM   24  H18 UNL     1      23.832  -2.778  55.519  1.00  0.00     0.217 HD
ENDBRANCH  22  23
ENDBRANCH  16  17
ENDBRANCH   2  16
TORSDOF 10
ENDMDL
MODEL 2
REMARK VINA RESULT:      -6.8      2.433      4.791
REMARK  10 active torsions:
REMARK  status: ('A' for Active; 'I' for Inactive)
REMARK    1  A    between atoms: C2_2  and  N1_3 
REMARK    2  A    between atoms: N1_3  and  C3_4 
REMARK    3  A    between atoms: N1_3  and  C5_8 
REMARK    4  A    between atoms: C3_4  and  C4_5 
REMARK    5  A    between atoms: C4_5  and  P1_6 
REMARK    6  A    between atoms: C5_8  and  C6_9 
REMARK    7  A    between atoms: C6_9  and  C7_10 
REMARK    8  A    between atoms: C8_11  and  C9_12 
REMARK    9  A    between atoms: C9_12  and  C10_13 
REMARK   10  A    between atoms: C15_18  and  O2_19 
ROOT
HETATM    1  C7  UNL     1      23.871  -0.034  53.091  1.00  0.00    -0.072 C 
HETATM    2  C8  UNL     1      24.797  -0.179  54.028  1.00  0.00    -0.070 C 
HETATM    3  C16 UNL     1      24.550  -1.217  55.074  1.00  0.00     0.061 C 
HETATM    4  C17 UNL     1      23.115  -1.123  55.523  1.00  0.00    -0.026 C 
HETATM    5  C18 UNL     1      22.161  -0.983  54.609  1.00  0.00    -0.026 C 
HETATM    6  C19 UNL     1      22.712  -0.941  53.231  1.00  0.00     0.061 C 
ENDROOT
BRANCH   1   7
HETATM    7  C6  UNL     1      23.908   0.917  51.977  1.00  0.00     0.054 C 
BRANCH   7   8
HETATM    8  C5  UNL     1      22.856   1.987  52.166  1.00  0.00     0.126 C 
BRANCH   8   9
HETATM    9  N1  UNL     1      23.111   3.146  51.332  1.00  0.00    -0.390 N 
BRANCH   9  10
HETATM   10  C2  UNL     1      22.981   4.488  51.774  1.00  0.00     0.075 C 
HETATM   11  C1  UNL     1      23.394   5.050  52.920  1.00  0.00     0.029 C 
ENDBRANCH   9  10
BRANCH   9  12
HETATM   12  C3  UNL     1      23.523   2.862  49.969  1.00  0.00     0.129 C 
BRANCH  12  13
HETATM   13  C4  UNL     1      24.405   3.915  49.372  1.00  0.00     0.093 C 
BRANCH  13  14
HETATM   14  P1  UNL     1      26.170   3.476  49.817  1.00  0.00     0.124 P 
HETATM   15  O1  UNL     1      27.375   4.123  49.106  1.00  0.00    -0.203 OA
ENDBRANCH  13  14
ENDBRANCH  12  13
ENDBRANCH   9  12
ENDBRANCH   8   9
ENDBRANCH   7   8
ENDBRANCH   1   7
BRANCH   2  16
HETATM   16  C9  UNL     1      26.071   0.578  54.165  1.00  0.00     0.076 C 
BRANCH  16  17
HETATM   17  C10 UNL     1      27.218  -0.307  53.829  1.00  0.00    -0.021 A 
HETATM   18  C11 UNL     1      27.056  -1.414  53.026  1.00  0.00     0.010 A 
HETATM   19  C12 UNL     1      28.105  -2.249  52.699  1.00  0.00     0.001 A 
HETATM   20  C13 UNL     1      29.362  -1.966  53.193  1.00  0.00     0.003 A 
HETATM   21  C14 UNL     1      29.521  -0.857  53.997  1.00  0.00     0.037 A 
HETATM   22  C15 UNL     1      28.475   0.006  54.344  1.00  0.00     0.072 A 
BRANCH  22  23
HETATM   23  O2  UNL     1      28.710   1.110  55.162  1.00  0.00    -0.360 OA
HETATM   24  H18 UNL     1      27.999   1.503  55.766  1.00  0.00     0.217 HD
ENDBRANCH  22  23
ENDBRANCH  16  17
ENDBRANCH   2  16
TORSDOF 10
ENDMDL
MODEL 3
REMARK VINA RESULT:      -6.8      1.740      1.747
REMARK  10 active torsions:
REMARK  status: ('A' for Active; 'I' for Inactive)
REMARK    1  A    between atoms: C2_2  and  N1_3 
REMARK    2  A    between atoms: N1_3  and  C3_4 
REMARK    3  A    between atoms: N1_3  and  C5_8 
REMARK    4  A    between atoms: C3_4  and  C4_5 
REMARK    5  A    between atoms: C4_5  and  P1_6 
REMARK    6  A    between atoms: C5_8  and  C6_9 
REMARK    7  A    between atoms: C6_9  and  C7_10 
REMARK    8  A    between atoms: C8_11  and  C9_12 
REMARK    9  A    between atoms: C9_12  and  C10_13 
REMARK   10  A    between atoms: C15_18  and  O2_19 
ROOT
HETATM    1  C7  UNL     1      26.941   1.332  52.718  1.00  0.00    -0.072 C 
HETATM    2  C8  UNL     1      26.627   0.287  53.470  1.00  0.00    -0.070 C 
HETATM    3  C16 UNL     1      27.223   0.232  54.840  1.00  0.00     0.061 C 
HETATM    4  C17 UNL     1      28.677   0.617  54.753  1.00  0.00    -0.026 C 
HETATM    5  C18 UNL     1      29.024   1.663  54.012  1.00  0.00    -0.026 C 
HETATM    6  C19 UNL     1      27.850   2.300  53.364  1.00  0.00     0.061 C 
ENDROOT
BRANCH   1   7
HETATM    7  C6  UNL     1      26.473   1.585  51.352  1.00  0.00     0.054 C 
BRANCH   7   8
HETATM    8  C5  UNL     1      25.574   2.800  51.323  1.00  0.00     0.126 C 
BRANCH   8   9
HETATM    9  N1  UNL     1      25.617   3.471  50.038  1.00  0.00    -0.390 N 
BRANCH   9  10
HETATM   10  C2  UNL     1      26.814   3.792  49.347  1.00  0.00     0.075 C 
HETATM   11  C1  UNL     1      27.187   4.953  48.787  1.00  0.00     0.029 C 
ENDBRANCH   9  10
BRANCH   9  12
HETATM   12  C3  UNL     1      24.328   3.815  49.465  1.00  0.00     0.129 C 
BRANCH  12  13
HETATM   13  C4  UNL     1      23.205   2.941  49.933  1.00  0.00     0.093 C 
BRANCH  13  14
HETATM   14  P1  UNL     1      22.324   2.307  48.408  1.00  0.00     0.124 P 
HETATM   15  O1  UNL     1      21.350   1.113  48.466  1.00  0.00    -0.203 OA
ENDBRANCH  13  14
ENDBRANCH  12  13
ENDBRANCH   9  12
ENDBRANCH   8   9
ENDBRANCH   7   8
ENDBRANCH   1   7
BRANCH   2  16
HETATM   16  C9  UNL     1      25.742  -0.854  53.113  1.00  0.00     0.076 C 
BRANCH  16  17
HETATM   17  C10 UNL     1      24.354  -0.573  53.566  1.00  0.00    -0.021 A 
HETATM   18  C11 UNL     1      23.489   0.177  52.800  1.00  0.00     0.010 A 
HETATM   19  C12 UNL     1      22.197   0.450  53.200  1.00  0.00     0.001 A 
HETATM   20  C13 UNL     1      21.753  -0.045  54.409  1.00  0.00     0.003 A 
HETATM   21  C14 UNL     1      22.622  -0.796  55.174  1.00  0.00     0.037 A 
HETATM   22  C15 UNL     1      23.937  -1.088  54.794  1.00  0.00     0.072 A 
BRANCH  22  23
HETATM   23  O2  UNL     1      24.759  -1.853  55.618  1.00  0.00    -0.360 OA
HETATM   24  H18 UNL     1      24.529  -2.800  55.892  1.00  0.00     0.217 HD
ENDBRANCH  22  23
ENDBRANCH  16  17
ENDBRANCH   2  16
TORSDOF 10
ENDMDL
MODEL 4
REMARK VINA RESULT:      -6.8      3.021      5.511
REMARK  10 active torsions:
REMARK  status: ('A' for Active; 'I' for Inactive)
REMARK    1  A    between atoms: C2_2  and  N1_3 
REMARK    2  A    between atoms: N1_3  and  C3_4 
REMARK    3  A    between atoms: N1_3  and  C5_8 
REMARK    4  A    between atoms: C3_4  and  C4_5 
REMARK    5  A    between atoms: C4_5  and  P1_6 
REMARK    6  A    between atoms: C5_8  and  C6_9 
REMARK    7  A    between atoms: C6_9  and  C7_10 
REMARK    8  A    between atoms: C8_11  and  C9_12 
REMARK    9  A    between atoms: C9_12  and  C10_13 
REMARK   10  A    between atoms: C15_18  and  O2_19 
ROOT
HETATM    1  C7  UNL     1      23.379  -0.183  53.673  1.00  0.00    -0.072 C 
HETATM    2  C8  UNL     1      22.470   0.756  53.453  1.00  0.00    -0.070 C 
HETATM    3  C16 UNL     1      21.143   0.588  54.122  1.00  0.00     0.061 C 
HETATM    4  C17 UNL     1      20.709  -0.849  53.985  1.00  0.00    -0.026 C 
HETATM    5  C18 UNL     1      21.595  -1.814  54.204  1.00  0.00    -0.026 C 
HETATM    6  C19 UNL     1      22.930  -1.273  54.563  1.00  0.00     0.061 C 
ENDROOT
BRANCH   1   7
HETATM    7  C6  UNL     1      24.736  -0.218  53.122  1.00  0.00     0.054 C 
BRANCH   7   8
HETATM    8  C5  UNL     1      25.641   0.713  53.897  1.00  0.00     0.126 C 
BRANCH   8   9
HETATM    9  N1  UNL     1      26.778   1.142  53.105  1.00  0.00    -0.390 N 
BRANCH   9  10
HETATM   10  C2  UNL     1      26.718   1.431  51.718  1.00  0.00     0.075 C 
HETATM   11  C1  UNL     1      26.152   2.473  51.090  1.00  0.00     0.029 C 
ENDBRANCH   9  10
BRANCH   9  12
HETATM   12  C3  UNL     1      28.033   1.267  53.824  1.00  0.00     0.129 C 
BRANCH  12  13
HETATM   13  C4  UNL     1      28.390   0.059  54.635  1.00  0.00     0.093 C 
BRANCH  13  14
HETATM   14  P1  UNL     1      29.413  -1.062  53.538  1.00  0.00     0.124 P 
HETATM   15  O1  UNL     1      29.148  -2.578  53.448  1.00  0.00    -0.203 OA
ENDBRANCH  13  14
ENDBRANCH  12  13
ENDBRANCH   9  12
ENDBRANCH   8   9
ENDBRANCH   7   8
ENDBRANCH   1   7
BRANCH   2  16
HETATM   16  C9  UNL     1      22.611   1.974  52.611  1.00  0.00     0.076 C 
BRANCH  16  17
HETATM   17  C10 UNL     1      21.707   1.877  51.435  1.00  0.00    -0.021 A 
HETATM   18  C11 UNL     1      22.009   1.063  50.365  1.00  0.00     0.010 A 
HETATM   19  C12 UNL     1      21.184   0.957  49.263  1.00  0.00     0.001 A 
HETATM   20  C13 UNL     1      20.016   1.690  49.229  1.00  0.00     0.003 A 
HETATM   21  C14 UNL     1      19.717   2.504  50.302  1.00  0.00     0.037 A 
HETATM   22  C15 UNL     1      20.534   2.632  51.431  1.00  0.00     0.072 A 
BRANCH  22  23
HETATM   23  O2  UNL     1      20.168   3.475  52.478  1.00  0.00    -0.360 OA
HETATM   24  H18 UNL     1      19.563   4.277  52.348  1.00  0.00     0.217 HD
ENDBRANCH  22  23
ENDBRANCH  16  17
ENDBRANCH   2  16
TORSDOF 10
ENDMDL
MODEL 5
REMARK VINA RESULT:      -6.7      2.087      2.559
REMARK  10 active torsions:
REMARK  status: ('A' for Active; 'I' for Inactive)
REMARK    1  A    between atoms: C2_2  and  N1_3 
REMARK    2  A    between atoms: N1_3  and  C3_4 
REMARK    3  A    between atoms: N1_3  and  C5_8 
REMARK    4  A    between atoms: C3_4  and  C4_5 
REMARK    5  A    between atoms: C4_5  and  P1_6 
REMARK    6  A    between atoms: C5_8  and  C6_9 
REMARK    7  A    between atoms: C6_9  and  C7_10 
REMARK    8  A    between atoms: C8_11  and  C9_12 
REMARK    9  A    between atoms: C9_12  and  C10_13 
REMARK   10  A    between atoms: C15_18  and  O2_19 
ROOT
HETATM    1  C7  UNL     1      26.927   1.261  52.735  1.00  0.00    -0.072 C 
HETATM    2  C8  UNL     1      26.623   0.242  53.527  1.00  0.00    -0.070 C 
HETATM    3  C16 UNL     1      27.221   0.244  54.897  1.00  0.00     0.061 C 
HETATM    4  C17 UNL     1      28.672   0.637  54.793  1.00  0.00    -0.026 C 
HETATM    5  C18 UNL     1      29.009   1.657  54.013  1.00  0.00    -0.026 C 
HETATM    6  C19 UNL     1      27.829   2.260  53.343  1.00  0.00     0.061 C 
ENDROOT
BRANCH   1   7
HETATM    7  C6  UNL     1      26.455   1.460  51.362  1.00  0.00     0.054 C 
BRANCH   7   8
HETATM    8  C5  UNL     1      26.648   2.900  50.945  1.00  0.00     0.126 C 
BRANCH   8   9
HETATM    9  N1  UNL     1      25.439   3.462  50.375  1.00  0.00    -0.390 N 
BRANCH   9  10
HETATM   10  C2  UNL     1      24.127   3.064  50.741  1.00  0.00     0.075 C 
HETATM   11  C1  UNL     1      23.149   2.554  49.975  1.00  0.00     0.029 C 
ENDBRANCH   9  10
BRANCH   9  12
HETATM   12  C3  UNL     1      25.637   4.493  49.372  1.00  0.00     0.129 C 
BRANCH  12  13
HETATM   13  C4  UNL     1      27.065   4.665  48.955  1.00  0.00     0.093 C 
BRANCH  13  14
HETATM   14  P1  UNL     1      27.292   6.461  48.478  1.00  0.00     0.124 P 
HETATM   15  O1  UNL     1      28.687   7.073  48.245  1.00  0.00    -0.203 OA
ENDBRANCH  13  14
ENDBRANCH  12  13
ENDBRANCH   9  12
ENDBRANCH   8   9
ENDBRANCH   7   8
ENDBRANCH   1   7
BRANCH   2  16
HETATM   16  C9  UNL     1      25.746  -0.918  53.213  1.00  0.00     0.076 C 
BRANCH  16  17
HETATM   17  C10 UNL     1      24.353  -0.622  53.637  1.00  0.00    -0.021 A 
HETATM   18  C11 UNL     1      23.502   0.110  52.838  1.00  0.00     0.010 A 
HETATM   19  C12 UNL     1      22.204   0.397  53.210  1.00  0.00     0.001 A 
HETATM   20  C13 UNL     1      21.739  -0.066  54.423  1.00  0.00     0.003 A 
HETATM   21  C14 UNL     1      22.593  -0.800  55.221  1.00  0.00     0.037 A 
HETATM   22  C15 UNL     1      23.913  -1.104  54.870  1.00  0.00     0.072 A 
BRANCH  22  23
HETATM   23  O2  UNL     1      24.720  -1.851  55.726  1.00  0.00    -0.360 OA
HETATM   24  H18 UNL     1      25.067  -1.487  56.605  1.00  0.00     0.217 HD
ENDBRANCH  22  23
ENDBRANCH  16  17
ENDBRANCH   2  16
TORSDOF 10
ENDMDL
MODEL 6
REMARK VINA RESULT:      -6.6      2.763      5.027
REMARK  10 active torsions:
REMARK  status: ('A' for Active; 'I' for Inactive)
REMARK    1  A    between atoms: C2_2  and  N1_3 
REMARK    2  A    between atoms: N1_3  and  C3_4 
REMARK    3  A    between atoms: N1_3  and  C5_8 
REMARK    4  A    between atoms: C3_4  and  C4_5 
REMARK    5  A    between atoms: C4_5  and  P1_6 
REMARK    6  A    between atoms: C5_8  and  C6_9 
REMARK    7  A    between atoms: C6_9  and  C7_10 
REMARK    8  A    between atoms: C8_11  and  C9_12 
REMARK    9  A    between atoms: C9_12  and  C10_13 
REMARK   10  A    between atoms: C15_18  and  O2_19 
ROOT
HETATM    1  C7  UNL     1      23.837   0.026  53.108  1.00  0.00    -0.072 C 
HETATM    2  C8  UNL     1      24.776  -0.137  54.029  1.00  0.00    -0.070 C 
HETATM    3  C16 UNL     1      24.548  -1.203  55.052  1.00  0.00     0.061 C 
HETATM    4  C17 UNL     1      23.118  -1.128  55.521  1.00  0.00    -0.026 C 
HETATM    5  C18 UNL     1      22.153  -0.971  54.623  1.00  0.00    -0.026 C 
HETATM    6  C19 UNL     1      22.686  -0.892  53.239  1.00  0.00     0.061 C 
ENDROOT
BRANCH   1   7
HETATM    7  C6  UNL     1      23.855   1.005  52.018  1.00  0.00     0.054 C 
BRANCH   7   8
HETATM    8  C5  UNL     1      23.128   2.264  52.433  1.00  0.00     0.126 C 
BRANCH   8   9
HETATM    9  N1  UNL     1      22.223   2.728  51.399  1.00  0.00    -0.390 N 
BRANCH   9  10
HETATM   10  C2  UNL     1      22.599   2.937  50.047  1.00  0.00     0.075 C 
HETATM   11  C1  UNL     1      23.610   3.665  49.548  1.00  0.00     0.029 C 
ENDBRANCH   9  10
BRANCH   9  12
HETATM   12  C3  UNL     1      20.859   2.982  51.825  1.00  0.00     0.129 C 
BRANCH  12  13
HETATM   13  C4  UNL     1      20.251   1.859  52.609  1.00  0.00     0.093 C 
BRANCH  13  14
HETATM   14  P1  UNL     1      19.639   0.591  51.376  1.00  0.00     0.124 P 
HETATM   15  O1  UNL     1      18.484  -0.375  51.706  1.00  0.00    -0.203 OA
ENDBRANCH  13  14
ENDBRANCH  12  13
ENDBRANCH   9  12
ENDBRANCH   8   9
ENDBRANCH   7   8
ENDBRANCH   1   7
BRANCH   2  16
HETATM   16  C9  UNL     1      26.048   0.623  54.170  1.00  0.00     0.076 C 
BRANCH  16  17
HETATM   17  C10 UNL     1      27.197  -0.257  53.834  1.00  0.00    -0.021 A 
HETATM   18  C11 UNL     1      27.038  -1.370  53.038  1.00  0.00     0.010 A 
HETATM   19  C12 UNL     1      28.091  -2.201  52.711  1.00  0.00     0.001 A 
HETATM   20  C13 UNL     1      29.348  -1.909  53.198  1.00  0.00     0.003 A 
HETATM   21  C14 UNL     1      29.505  -0.794  53.995  1.00  0.00     0.037 A 
HETATM   22  C15 UNL     1      28.456   0.066  54.342  1.00  0.00     0.072 A 
BRANCH  22  23
HETATM   23  O2  UNL     1      28.687   1.175  55.152  1.00  0.00    -0.360 OA
HETATM   24  H18 UNL     1      27.948   1.801  55.446  1.00  0.00     0.217 HD
ENDBRANCH  22  23
ENDBRANCH  16  17
ENDBRANCH   2  16
TORSDOF 10
ENDMDL
MODEL 7
REMARK VINA RESULT:      -6.6      2.879      4.974
REMARK  10 active torsions:
REMARK  status: ('A' for Active; 'I' for Inactive)
REMARK    1  A    between atoms: C2_2  and  N1_3 
REMARK    2  A    between atoms: N1_3  and  C3_4 
REMARK    3  A    between atoms: N1_3  and  C5_8 
REMARK    4  A    between atoms: C3_4  and  C4_5 
REMARK    5  A    between atoms: C4_5  and  P1_6 
REMARK    6  A    between atoms: C5_8  and  C6_9 
REMARK    7  A    between atoms: C6_9  and  C7_10 
REMARK    8  A    between atoms: C8_11  and  C9_12 
REMARK    9  A    between atoms: C9_12  and  C10_13 
REMARK   10  A    between atoms: C15_18  and  O2_19 
ROOT
HETATM    1  C7  UNL     1      23.781   0.063  53.076  1.00  0.00    -0.072 C 
HETATM    2  C8  UNL     1      24.733  -0.120  53.979  1.00  0.00    -0.070 C 
HETATM    3  C16 UNL     1      24.528  -1.218  54.972  1.00  0.00     0.061 C 
HETATM    4  C17 UNL     1      23.103  -1.170  55.461  1.00  0.00    -0.026 C 
HETATM    5  C18 UNL     1      22.125  -0.994  54.581  1.00  0.00    -0.026 C 
HETATM    6  C19 UNL     1      22.639  -0.868  53.194  1.00  0.00     0.061 C 
ENDROOT
BRANCH   1   7
HETATM    7  C6  UNL     1      23.776   1.075  52.016  1.00  0.00     0.054 C 
BRANCH   7   8
HETATM    8  C5  UNL     1      22.676   2.083  52.259  1.00  0.00     0.126 C 
BRANCH   8   9
HETATM    9  N1  UNL     1      21.724   2.114  51.166  1.00  0.00    -0.390 N 
BRANCH   9  10
HETATM   10  C2  UNL     1      21.523   1.046  50.254  1.00  0.00     0.075 C 
HETATM   11  C1  UNL     1      21.399   1.081  48.918  1.00  0.00     0.029 C 
ENDBRANCH   9  10
BRANCH   9  12
HETATM   12  C3  UNL     1      20.952   3.338  51.039  1.00  0.00     0.129 C 
BRANCH  12  13
HETATM   13  C4  UNL     1      21.736   4.580  51.334  1.00  0.00     0.093 C 
BRANCH  13  14
HETATM   14  P1  UNL     1      22.565   5.104  49.739  1.00  0.00     0.124 P 
HETATM   15  O1  UNL     1      23.294   4.095  48.829  1.00  0.00    -0.203 OA
ENDBRANCH  13  14
ENDBRANCH  12  13
ENDBRANCH   9  12
ENDBRANCH   8   9
ENDBRANCH   7   8
ENDBRANCH   1   7
BRANCH   2  16
HETATM   16  C9  UNL     1      26.000   0.646  54.126  1.00  0.00     0.076 C 
BRANCH  16  17
HETATM   17  C10 UNL     1      27.157  -0.231  53.806  1.00  0.00    -0.021 A 
HETATM   18  C11 UNL     1      27.011  -1.343  53.006  1.00  0.00     0.010 A 
HETATM   19  C12 UNL     1      28.070  -2.172  52.695  1.00  0.00     0.001 A 
HETATM   20  C13 UNL     1      29.320  -1.878  53.201  1.00  0.00     0.003 A 
HETATM   21  C14 UNL     1      29.462  -0.764  54.002  1.00  0.00     0.037 A 
HETATM   22  C15 UNL     1      28.406   0.093  54.334  1.00  0.00     0.072 A 
BRANCH  22  23
HETATM   23  O2  UNL     1      28.624   1.201  55.149  1.00  0.00    -0.360 OA
HETATM   24  H18 UNL     1      28.853   1.120  56.133  1.00  0.00     0.217 HD
ENDBRANCH  22  23
ENDBRANCH  16  17
ENDBRANCH   2  16
TORSDOF 10
ENDMDL
MODEL 8
REMARK VINA RESULT:      -6.5      3.010      5.998
REMARK  10 active torsions:
REMARK  status: ('A' for Active; 'I' for Inactive)
REMARK    1  A    between atoms: C2_2  and  N1_3 
REMARK    2  A    between atoms: N1_3  and  C3_4 
REMARK    3  A    between atoms: N1_3  and  C5_8 
REMARK    4  A    between atoms: C3_4  and  C4_5 
REMARK    5  A    between atoms: C4_5  and  P1_6 
REMARK    6  A    between atoms: C5_8  and  C6_9 
REMARK    7  A    between atoms: C6_9  and  C7_10 
REMARK    8  A    between atoms: C8_11  and  C9_12 
REMARK    9  A    between atoms: C9_12  and  C10_13 
REMARK   10  A    between atoms: C15_18  and  O2_19 
ROOT
HETATM    1  C7  UNL     1      23.178   2.826  51.616  1.00  0.00    -0.072 C 
HETATM    2  C8  UNL     1      24.413   3.001  52.066  1.00  0.00    -0.070 C 
HETATM    3  C16 UNL     1      25.379   3.685  51.153  1.00  0.00     0.061 C 
HETATM    4  C17 UNL     1      25.216   3.122  49.765  1.00  0.00    -0.026 C 
HETATM    5  C18 UNL     1      23.993   2.939  49.282  1.00  0.00    -0.026 C 
HETATM    6  C19 UNL     1      22.945   3.344  50.252  1.00  0.00     0.061 C 
ENDROOT
BRANCH   1   7
HETATM    7  C6  UNL     1      22.077   2.184  52.339  1.00  0.00     0.054 C 
BRANCH   7   8
HETATM    8  C5  UNL     1      21.987   0.722  51.966  1.00  0.00     0.126 C 
BRANCH   8   9
HETATM    9  N1  UNL     1      21.476  -0.082  53.059  1.00  0.00    -0.390 N 
BRANCH   9  10
HETATM   10  C2  UNL     1      22.197  -1.135  53.679  1.00  0.00     0.075 C 
HETATM   11  C1  UNL     1      22.602  -1.254  54.953  1.00  0.00     0.029 C 
ENDBRANCH   9  10
BRANCH   9  12
HETATM   12  C3  UNL     1      20.136   0.250  53.511  1.00  0.00     0.129 C 
BRANCH  12  13
HETATM   13  C4  UNL     1      19.071  -0.644  52.953  1.00  0.00     0.093 C 
BRANCH  13  14
HETATM   14  P1  UNL     1      18.157   0.332  51.644  1.00  0.00     0.124 P 
HETATM   15  O1  UNL     1      17.436  -0.356  50.468  1.00  0.00    -0.203 OA
ENDBRANCH  13  14
ENDBRANCH  12  13
ENDBRANCH   9  12
ENDBRANCH   8   9
ENDBRANCH   7   8
ENDBRANCH   1   7
BRANCH   2  16
HETATM   16  C9  UNL     1      24.961   2.594  53.388  1.00  0.00     0.076 C 
BRANCH  16  17
HETATM   17  C10 UNL     1      25.927   1.479  53.209  1.00  0.00    -0.021 A 
HETATM   18  C11 UNL     1      25.534   0.271  52.676  1.00  0.00     0.010 A 
HETATM   19  C12 UNL     1      26.413  -0.779  52.499  1.00  0.00     0.001 A 
HETATM   20  C13 UNL     1      27.732  -0.614  52.867  1.00  0.00     0.003 A 
HETATM   21  C14 UNL     1      28.123   0.597  53.400  1.00  0.00     0.037 A 
HETATM   22  C15 UNL     1      27.253   1.677  53.591  1.00  0.00     0.072 A 
BRANCH  22  23
HETATM   23  O2  UNL     1      27.718   2.872  54.136  1.00  0.00    -0.360 OA
HETATM   24  H18 UNL     1      27.873   2.996  55.130  1.00  0.00     0.217 HD
ENDBRANCH  22  23
ENDBRANCH  16  17
ENDBRANCH   2  16
TORSDOF 10
ENDMDL
MODEL 9
REMARK VINA RESULT:      -6.4      1.995      4.210
REMARK  10 active torsions:
REMARK  status: ('A' for Active; 'I' for Inactive)
REMARK    1  A    between atoms: C2_2  and  N1_3 
REMARK    2  A    between atoms: N1_3  and  C3_4 
REMARK    3  A    between atoms: N1_3  and  C5_8 
REMARK    4  A    between atoms: C3_4  and  C4_5 
REMARK    5  A    between atoms: C4_5  and  P1_6 
REMARK    6  A    between atoms: C5_8  and  C6_9 
REMARK    7  A    between atoms: C6_9  and  C7_10 
REMARK    8  A    between atoms: C8_11  and  C9_12 
REMARK    9  A    between atoms: C9_12  and  C10_13 
REMARK   10  A    between atoms: C15_18  and  O2_19 
ROOT
HETATM    1  C7  UNL     1      24.349   1.501  52.640  1.00  0.00    -0.072 C 
HETATM    2  C8  UNL     1      24.940   0.737  53.548  1.00  0.00    -0.070 C 
HETATM    3  C16 UNL     1      24.274  -0.558  53.885  1.00  0.00     0.061 C 
HETATM    4  C17 UNL     1      22.794  -0.319  54.033  1.00  0.00    -0.026 C 
HETATM    5  C18 UNL     1      22.170   0.438  53.137  1.00  0.00    -0.026 C 
HETATM    6  C19 UNL     1      23.096   0.942  52.092  1.00  0.00     0.061 C 
ENDROOT
BRANCH   1   7
HETATM    7  C6  UNL     1      24.825   2.802  52.163  1.00  0.00     0.054 C 
BRANCH   7   8
HETATM    8  C5  UNL     1      25.652   2.630  50.909  1.00  0.00     0.126 C 
BRANCH   8   9
HETATM    9  N1  UNL     1      25.236   3.542  49.861  1.00  0.00    -0.390 N 
BRANCH   9  10
HETATM   10  C2  UNL     1      26.043   4.592  49.352  1.00  0.00     0.075 C 
HETATM   11  C1  UNL     1      27.314   4.556  48.922  1.00  0.00     0.029 C 
ENDBRANCH   9  10
BRANCH   9  12
HETATM   12  C3  UNL     1      23.901   3.325  49.332  1.00  0.00     0.129 C 
BRANCH  12  13
HETATM   13  C4  UNL     1      23.087   4.577  49.214  1.00  0.00     0.093 C 
BRANCH  13  14
HETATM   14  P1  UNL     1      21.506   4.303  50.179  1.00  0.00     0.124 P 
HETATM   15  O1  UNL     1      21.509   4.088  51.705  1.00  0.00    -0.203 OA
ENDBRANCH  13  14
ENDBRANCH  12  13
ENDBRANCH   9  12
ENDBRANCH   8   9
ENDBRANCH   7   8
ENDBRANCH   1   7
BRANCH   2  16
HETATM   16  C9  UNL     1      26.204   1.015  54.282  1.00  0.00     0.076 C 
BRANCH  16  17
HETATM   17  C10 UNL     1      27.239   0.022  53.892  1.00  0.00    -0.021 A 
HETATM   18  C11 UNL     1      26.933  -1.050  53.083  1.00  0.00     0.010 A 
HETATM   19  C12 UNL     1      27.877  -1.985  52.707  1.00  0.00     0.001 A 
HETATM   20  C13 UNL     1      29.174  -1.842  53.157  1.00  0.00     0.003 A 
HETATM   21  C14 UNL     1      29.477  -0.768  53.967  1.00  0.00     0.037 A 
HETATM   22  C15 UNL     1      28.540   0.194  54.364  1.00  0.00     0.072 A 
BRANCH  22  23
HETATM   23  O2  UNL     1      28.918   1.254  55.185  1.00  0.00    -0.360 OA
HETATM   24  H18 UNL     1      29.794   1.750  55.070  1.00  0.00     0.217 HD
ENDBRANCH  22  23
ENDBRANCH  16  17
ENDBRANCH   2  16
TORSDOF 10
ENDMDL
