MODEL 1
REMARK VINA RESULT:      -8.8      0.000      0.000
REMARK  3 active torsions:
REMARK  status: ('A' for Active; 'I' for Inactive)
REMARK    1  A    between atoms: C2_2  and  N1_3 
REMARK    2  A    between atoms: C2_2  and  C12_16 
REMARK    3  A    between atoms: N1_3  and  C3_4 
ROOT
HETATM    1  C3  UNL     1      26.257   1.107  52.858  1.00  0.00     0.137 A 
HETATM    2  N2  UNL     1      26.554   2.270  53.461  1.00  0.00    -0.224 NA
HETATM    3  C4  UNL     1      27.706   2.482  54.090  1.00  0.00     0.235 A 
HETATM    4  N3  UNL     1      28.679   1.559  54.184  1.00  0.00    -0.242 NA
HETATM    5  C5  UNL     1      28.453   0.349  53.596  1.00  0.00     0.087 A 
HETATM    6  C6  UNL     1      27.234   0.143  52.937  1.00  0.00     0.038 A 
HETATM    7  C7  UNL     1      26.798  -1.082  52.232  1.00  0.00     0.030 C 
HETATM    8  C8  UNL     1      27.046  -2.333  52.584  1.00  0.00    -0.013 C 
HETATM    9  C9  UNL     1      28.236  -2.728  52.854  1.00  0.00    -0.015 C 
HETATM   10  C10 UNL     1      29.152  -1.938  53.348  1.00  0.00     0.029 C 
HETATM   11  C11 UNL     1      29.607  -0.570  53.781  1.00  0.00     0.246 C 
HETATM   12  F1  UNL     1      30.650  -0.164  52.990  1.00  0.00    -0.238 F 
ENDROOT
BRANCH   1  13
HETATM   13  N1  UNL     1      25.006   0.928  52.211  1.00  0.00    -0.366 N 
HETATM   14  H5  UNL     1      24.720   0.459  51.352  1.00  0.00     0.161 HD
BRANCH  13  15
HETATM   15  C2  UNL     1      23.849   1.506  52.864  1.00  0.00     0.112 C 
HETATM   16  C1  UNL     1      23.214   2.618  52.044  1.00  0.00     0.037 C 
BRANCH  15  17
HETATM   17  C12 UNL     1      22.825   0.523  53.264  1.00  0.00    -0.036 A 
HETATM   18  C13 UNL     1      23.106  -0.672  53.934  1.00  0.00     0.012 A 
HETATM   19  C14 UNL     1      22.048  -1.505  54.253  1.00  0.00     0.043 A 
HETATM   20  C15 UNL     1      20.743  -1.183  53.926  1.00  0.00     0.116 A 
HETATM   21  F2  UNL     1      19.746  -2.041  54.265  1.00  0.00    -0.206 F 
HETATM   22  C16 UNL     1      20.444   0.002  53.259  1.00  0.00     0.043 A 
HETATM   23  C17 UNL     1      21.512   0.836  52.943  1.00  0.00     0.012 A 
ENDBRANCH  15  17
ENDBRANCH  13  15
ENDBRANCH   1  13
TORSDOF 3
ENDMDL
MODEL 2
REMARK VINA RESULT:      -8.3      3.571      6.640
REMARK  3 active torsions:
REMARK  status: ('A' for Active; 'I' for Inactive)
REMARK    1  A    between atoms: C2_2  and  N1_3 
REMARK    2  A    between atoms: C2_2  and  C12_16 
REMARK    3  A    between atoms: N1_3  and  C3_4 
ROOT
HETATM    1  C3  UNL     1      24.004   3.015  51.550  1.00  0.00     0.137 A 
HETATM    2  N2  UNL     1      23.072   3.582  52.334  1.00  0.00    -0.224 NA
HETATM    3  C4  UNL     1      22.794   4.882  52.299  1.00  0.00     0.235 A 
HETATM    4  N3  UNL     1      23.415   5.750  51.482  1.00  0.00    -0.242 NA
HETATM    5  C5  UNL     1      24.377   5.251  50.653  1.00  0.00     0.087 A 
HETATM    6  C6  UNL     1      24.657   3.879  50.703  1.00  0.00     0.038 A 
HETATM    7  C7  UNL     1      25.647   3.142  49.887  1.00  0.00     0.030 C 
HETATM    8  C8  UNL     1      26.837   3.572  49.500  1.00  0.00    -0.013 C 
HETATM    9  C9  UNL     1      26.981   4.709  48.924  1.00  0.00    -0.015 C 
HETATM   10  C10 UNL     1      26.193   5.726  49.151  1.00  0.00     0.029 C 
HETATM   11  C11 UNL     1      24.978   6.320  49.812  1.00  0.00     0.246 C 
HETATM   12  F1  UNL     1      24.081   6.710  48.853  1.00  0.00    -0.238 F 
ENDROOT
BRANCH   1  13
HETATM   13  N1  UNL     1      24.272   1.624  51.636  1.00  0.00    -0.366 N 
HETATM   14  H5  UNL     1      24.258   0.862  50.958  1.00  0.00     0.161 HD
BRANCH  13  15
HETATM   15  C2  UNL     1      24.661   1.116  52.936  1.00  0.00     0.112 C 
HETATM   16  C1  UNL     1      23.977  -0.199  53.275  1.00  0.00     0.037 C 
BRANCH  15  17
HETATM   17  C12 UNL     1      26.118   0.994  53.128  1.00  0.00    -0.036 A 
HETATM   18  C13 UNL     1      26.964   2.072  53.408  1.00  0.00     0.012 A 
HETATM   19  C14 UNL     1      28.315   1.816  53.567  1.00  0.00     0.043 A 
HETATM   20  C15 UNL     1      28.832   0.538  53.455  1.00  0.00     0.116 A 
HETATM   21  F2  UNL     1      30.167   0.348  53.621  1.00  0.00    -0.206 F 
HETATM   22  C16 UNL     1      28.006  -0.547  53.176  1.00  0.00     0.043 A 
HETATM   23  C17 UNL     1      26.649  -0.283  53.019  1.00  0.00     0.012 A 
ENDBRANCH  15  17
ENDBRANCH  13  15
ENDBRANCH   1  13
TORSDOF 3
ENDMDL
MODEL 3
REMARK VINA RESULT:      -8.3      3.718      6.313
REMARK  3 active torsions:
REMARK  status: ('A' for Active; 'I' for Inactive)
REMARK    1  A    between atoms: C2_2  and  N1_3 
REMARK    2  A    between atoms: C2_2  and  C12_16 
REMARK    3  A    between atoms: N1_3  and  C3_4 
ROOT
HETATM    1  C3  UNL     1      24.059   2.729  52.609  1.00  0.00     0.137 A 
HETATM    2  N2  UNL     1      22.753   2.414  52.575  1.00  0.00    -0.224 NA
HETATM    3  C4  UNL     1      22.299   1.191  52.832  1.00  0.00     0.235 A 
HETATM    4  N3  UNL     1      23.098   0.156  53.146  1.00  0.00    -0.242 NA
HETATM    5  C5  UNL     1      24.440   0.395  53.202  1.00  0.00     0.087 A 
HETATM    6  C6  UNL     1      24.900   1.689  52.930  1.00  0.00     0.038 A 
HETATM    7  C7  UNL     1      26.304   2.157  52.946  1.00  0.00     0.030 C 
HETATM    8  C8  UNL     1      27.372   1.482  52.554  1.00  0.00    -0.013 C 
HETATM    9  C9  UNL     1      27.602   0.293  52.979  1.00  0.00    -0.015 C 
HETATM   10  C10 UNL     1      26.654  -0.536  53.321  1.00  0.00     0.029 C 
HETATM   11  C11 UNL     1      25.197  -0.835  53.557  1.00  0.00     0.246 C 
HETATM   12  F1  UNL     1      25.000  -1.130  54.881  1.00  0.00    -0.238 F 
ENDROOT
BRANCH   1  13
HETATM   13  N1  UNL     1      24.492   4.048  52.315  1.00  0.00    -0.366 N 
HETATM   14  H5  UNL     1      25.019   4.748  52.836  1.00  0.00     0.161 HD
BRANCH  13  15
HETATM   15  C2  UNL     1      24.151   4.566  51.006  1.00  0.00     0.112 C 
HETATM   16  C1  UNL     1      23.236   5.778  51.081  1.00  0.00     0.037 C 
BRANCH  15  17
HETATM   17  C12 UNL     1      25.314   4.860  50.148  1.00  0.00    -0.036 A 
HETATM   18  C13 UNL     1      26.238   3.899  49.725  1.00  0.00     0.012 A 
HETATM   19  C14 UNL     1      27.285   4.312  48.919  1.00  0.00     0.043 A 
HETATM   20  C15 UNL     1      27.429   5.633  48.532  1.00  0.00     0.116 A 
HETATM   21  F2  UNL     1      28.478   5.979  47.740  1.00  0.00    -0.206 F 
HETATM   22  C16 UNL     1      26.519   6.603  48.943  1.00  0.00     0.043 A 
HETATM   23  C17 UNL     1      25.469   6.181  49.752  1.00  0.00     0.012 A 
ENDBRANCH  15  17
ENDBRANCH  13  15
ENDBRANCH   1  13
TORSDOF 3
ENDMDL
MODEL 4
REMARK VINA RESULT:      -8.2      1.688      6.589
REMARK  3 active torsions:
REMARK  status: ('A' for Active; 'I' for Inactive)
REMARK    1  A    between atoms: C2_2  and  N1_3 
REMARK    2  A    between atoms: C2_2  and  C12_16 
REMARK    3  A    between atoms: N1_3  and  C3_4 
ROOT
HETATM    1  C3  UNL     1      23.365   1.435  51.946  1.00  0.00     0.137 A 
HETATM    2  N2  UNL     1      22.815   1.775  50.768  1.00  0.00    -0.224 NA
HETATM    3  C4  UNL     1      21.630   1.324  50.368  1.00  0.00     0.235 A 
HETATM    4  N3  UNL     1      20.872   0.488  51.099  1.00  0.00    -0.242 NA
HETATM    5  C5  UNL     1      21.361   0.096  52.311  1.00  0.00     0.087 A 
HETATM    6  C6  UNL     1      22.610   0.582  52.716  1.00  0.00     0.038 A 
HETATM    7  C7  UNL     1      23.310   0.290  53.987  1.00  0.00     0.030 C 
HETATM    8  C8  UNL     1      23.323  -0.860  54.642  1.00  0.00    -0.013 C 
HETATM    9  C9  UNL     1      22.236  -1.482  54.919  1.00  0.00    -0.015 C 
HETATM   10  C10 UNL     1      21.164  -1.406  54.178  1.00  0.00     0.029 C 
HETATM   11  C11 UNL     1      20.421  -0.824  53.005  1.00  0.00     0.246 C 
HETATM   12  F1  UNL     1      19.335  -0.121  53.454  1.00  0.00    -0.238 F 
ENDROOT
BRANCH   1  13
HETATM   13  N1  UNL     1      24.639   1.935  52.320  1.00  0.00    -0.366 N 
HETATM   14  H5  UNL     1      24.965   2.536  53.076  1.00  0.00     0.161 HD
BRANCH  13  15
HETATM   15  C2  UNL     1      25.761   1.536  51.494  1.00  0.00     0.112 C 
HETATM   16  C1  UNL     1      26.380   2.707  50.748  1.00  0.00     0.037 C 
BRANCH  15  17
HETATM   17  C12 UNL     1      26.806   0.783  52.213  1.00  0.00    -0.036 A 
HETATM   18  C13 UNL     1      26.829  -0.611  52.326  1.00  0.00     0.012 A 
HETATM   19  C14 UNL     1      27.871  -1.190  53.029  1.00  0.00     0.043 A 
HETATM   20  C15 UNL     1      28.870  -0.429  53.610  1.00  0.00     0.116 A 
HETATM   21  F2  UNL     1      29.867  -1.054  54.289  1.00  0.00    -0.206 F 
HETATM   22  C16 UNL     1      28.863   0.959  53.508  1.00  0.00     0.043 A 
HETATM   23  C17 UNL     1      27.814   1.535  52.799  1.00  0.00     0.012 A 
ENDBRANCH  15  17
ENDBRANCH  13  15
ENDBRANCH   1  13
TORSDOF 3
ENDMDL
MODEL 5
REMARK VINA RESULT:      -7.9      3.537      6.890
REMARK  3 active torsions:
REMARK  status: ('A' for Active; 'I' for Inactive)
REMARK    1  A    between atoms: C2_2  and  N1_3 
REMARK    2  A    between atoms: C2_2  and  C12_16 
REMARK    3  A    between atoms: N1_3  and  C3_4 
ROOT
HETATM    1  C3  UNL     1      23.453   1.440  51.509  1.00  0.00     0.137 A 
HETATM    2  N2  UNL     1      22.281   1.328  50.860  1.00  0.00    -0.224 NA
HETATM    3  C4  UNL     1      21.291   0.551  51.289  1.00  0.00     0.235 A 
HETATM    4  N3  UNL     1      21.366  -0.195  52.405  1.00  0.00    -0.242 NA
HETATM    5  C5  UNL     1      22.526  -0.136  53.121  1.00  0.00     0.087 A 
HETATM    6  C6  UNL     1      23.558   0.688  52.655  1.00  0.00     0.038 A 
HETATM    7  C7  UNL     1      24.880   0.901  53.283  1.00  0.00     0.030 C 
HETATM    8  C8  UNL     1      25.617  -0.001  53.911  1.00  0.00    -0.013 C 
HETATM    9  C9  UNL     1      25.123  -0.737  54.839  1.00  0.00    -0.015 C 
HETATM   10  C10 UNL     1      23.866  -1.087  54.876  1.00  0.00     0.029 C 
HETATM   11  C11 UNL     1      22.468  -1.010  54.323  1.00  0.00     0.246 C 
HETATM   12  F1  UNL     1      21.636  -0.452  55.258  1.00  0.00    -0.238 F 
ENDROOT
BRANCH   1  13
HETATM   13  N1  UNL     1      24.483   2.274  51.002  1.00  0.00    -0.366 N 
HETATM   14  H5  UNL     1      25.463   2.119  50.767  1.00  0.00     0.161 HD
BRANCH  13  15
HETATM   15  C2  UNL     1      24.127   3.653  50.731  1.00  0.00     0.112 C 
HETATM   16  C1  UNL     1      23.757   4.416  51.993  1.00  0.00     0.037 C 
BRANCH  15  17
HETATM   17  C12 UNL     1      25.140   4.401  49.964  1.00  0.00    -0.036 A 
HETATM   18  C13 UNL     1      24.980   5.723  49.536  1.00  0.00     0.012 A 
HETATM   19  C14 UNL     1      26.013   6.307  48.824  1.00  0.00     0.043 A 
HETATM   20  C15 UNL     1      27.179   5.619  48.534  1.00  0.00     0.116 A 
HETATM   21  F2  UNL     1      28.157   6.245  47.830  1.00  0.00    -0.206 F 
HETATM   22  C16 UNL     1      27.355   4.303  48.951  1.00  0.00     0.043 A 
HETATM   23  C17 UNL     1      26.314   3.722  49.667  1.00  0.00     0.012 A 
ENDBRANCH  15  17
ENDBRANCH  13  15
ENDBRANCH   1  13
TORSDOF 3
ENDMDL
MODEL 6
REMARK VINA RESULT:      -7.8      2.416      6.757
REMARK  3 active torsions:
REMARK  status: ('A' for Active; 'I' for Inactive)
REMARK    1  A    between atoms: C2_2  and  N1_3 
REMARK    2  A    between atoms: C2_2  and  C12_16 
REMARK    3  A    between atoms: N1_3  and  C3_4 
ROOT
HETATM    1  C3  UNL     1      24.294   1.384  52.149  1.00  0.00     0.137 A 
HETATM    2  N2  UNL     1      25.316   1.985  51.517  1.00  0.00    -0.224 NA
HETATM    3  C4  UNL     1      25.221   3.200  50.986  1.00  0.00     0.235 A 
HETATM    4  N3  UNL     1      24.100   3.941  51.029  1.00  0.00    -0.242 NA
HETATM    5  C5  UNL     1      23.015   3.400  51.655  1.00  0.00     0.087 A 
HETATM    6  C6  UNL     1      23.133   2.119  52.209  1.00  0.00     0.038 A 
HETATM    7  C7  UNL     1      22.088   1.362  52.933  1.00  0.00     0.030 C 
HETATM    8  C8  UNL     1      20.792   1.344  52.669  1.00  0.00    -0.013 C 
HETATM    9  C9  UNL     1      20.124   2.430  52.529  1.00  0.00    -0.015 C 
HETATM   10  C10 UNL     1      20.653   3.537  52.082  1.00  0.00     0.029 C 
HETATM   11  C11 UNL     1      21.851   4.325  51.624  1.00  0.00     0.246 C 
HETATM   12  F1  UNL     1      22.069   5.368  52.485  1.00  0.00    -0.238 F 
ENDROOT
BRANCH   1  13
HETATM   13  N1  UNL     1      24.443   0.079  52.687  1.00  0.00    -0.366 N 
HETATM   14  H5  UNL     1      24.178  -0.850  52.363  1.00  0.00     0.161 HD
BRANCH  13  15
HETATM   15  C2  UNL     1      25.116  -0.022  53.967  1.00  0.00     0.112 C 
HETATM   16  C1  UNL     1      24.432  -1.003  54.907  1.00  0.00     0.037 C 
BRANCH  15  17
HETATM   17  C12 UNL     1      26.555  -0.329  53.872  1.00  0.00    -0.036 A 
HETATM   18  C13 UNL     1      27.101  -1.257  52.980  1.00  0.00     0.012 A 
HETATM   19  C14 UNL     1      28.472  -1.448  52.995  1.00  0.00     0.043 A 
HETATM   20  C15 UNL     1      29.295  -0.750  53.862  1.00  0.00     0.116 A 
HETATM   21  F2  UNL     1      30.633  -0.981  53.832  1.00  0.00    -0.206 F 
HETATM   22  C16 UNL     1      28.769   0.176  54.758  1.00  0.00     0.043 A 
HETATM   23  C17 UNL     1      27.391   0.364  54.736  1.00  0.00     0.012 A 
ENDBRANCH  15  17
ENDBRANCH  13  15
ENDBRANCH   1  13
TORSDOF 3
ENDMDL
MODEL 7
REMARK VINA RESULT:      -7.7      4.916      6.713
REMARK  3 active torsions:
REMARK  status: ('A' for Active; 'I' for Inactive)
REMARK    1  A    between atoms: C2_2  and  N1_3 
REMARK    2  A    between atoms: C2_2  and  C12_16 
REMARK    3  A    between atoms: N1_3  and  C3_4 
ROOT
HETATM    1  C3  UNL     1      24.990   4.834  50.230  1.00  0.00     0.137 A 
HETATM    2  N2  UNL     1      24.120   5.480  51.024  1.00  0.00    -0.224 NA
HETATM    3  C4  UNL     1      24.141   6.799  51.193  1.00  0.00     0.235 A 
HETATM    4  N3  UNL     1      25.029   7.609  50.591  1.00  0.00    -0.242 NA
HETATM    5  C5  UNL     1      25.948   7.027  49.766  1.00  0.00     0.087 A 
HETATM    6  C6  UNL     1      25.911   5.637  49.599  1.00  0.00     0.038 A 
HETATM    7  C7  UNL     1      26.802   4.818  48.750  1.00  0.00     0.030 C 
HETATM    8  C8  UNL     1      28.095   5.007  48.538  1.00  0.00    -0.013 C 
HETATM    9  C9  UNL     1      28.552   6.152  48.181  1.00  0.00    -0.015 C 
HETATM   10  C10 UNL     1      27.987   7.279  48.517  1.00  0.00     0.029 C 
HETATM   11  C11 UNL     1      26.863   8.038  49.173  1.00  0.00     0.246 C 
HETATM   12  F1  UNL     1      26.192   8.768  48.228  1.00  0.00    -0.238 F 
ENDROOT
BRANCH   1  13
HETATM   13  N1  UNL     1      24.933   3.422  50.095  1.00  0.00    -0.366 N 
HETATM   14  H5  UNL     1      25.323   2.764  49.421  1.00  0.00     0.161 HD
BRANCH  13  15
HETATM   15  C2  UNL     1      24.180   2.703  51.103  1.00  0.00     0.112 C 
HETATM   16  C1  UNL     1      22.843   2.202  50.582  1.00  0.00     0.037 C 
BRANCH  15  17
HETATM   17  C12 UNL     1      24.922   1.600  51.741  1.00  0.00    -0.036 A 
HETATM   18  C13 UNL     1      26.287   1.360  51.551  1.00  0.00     0.012 A 
HETATM   19  C14 UNL     1      26.859   0.288  52.213  1.00  0.00     0.043 A 
HETATM   20  C15 UNL     1      26.118  -0.535  53.043  1.00  0.00     0.116 A 
HETATM   21  F2  UNL     1      26.734  -1.573  53.666  1.00  0.00    -0.206 F 
HETATM   22  C16 UNL     1      24.758  -0.312  53.244  1.00  0.00     0.043 A 
HETATM   23  C17 UNL     1      24.190   0.767  52.576  1.00  0.00     0.012 A 
ENDBRANCH  15  17
ENDBRANCH  13  15
ENDBRANCH   1  13
TORSDOF 3
ENDMDL
MODEL 8
REMARK VINA RESULT:      -7.6      2.777      6.541
REMARK  3 active torsions:
REMARK  status: ('A' for Active; 'I' for Inactive)
REMARK    1  A    between atoms: C2_2  and  N1_3 
REMARK    2  A    between atoms: C2_2  and  C12_16 
REMARK    3  A    between atoms: N1_3  and  C3_4 
ROOT
HETATM    1  C3  UNL     1      25.960   2.753  51.660  1.00  0.00     0.137 A 
HETATM    2  N2  UNL     1      26.760   3.123  50.647  1.00  0.00    -0.224 NA
HETATM    3  C4  UNL     1      26.297   3.643  49.514  1.00  0.00     0.235 A 
HETATM    4  N3  UNL     1      24.990   3.846  49.274  1.00  0.00    -0.242 NA
HETATM    5  C5  UNL     1      24.110   3.495  50.256  1.00  0.00     0.087 A 
HETATM    6  C6  UNL     1      24.616   2.950  51.443  1.00  0.00     0.038 A 
HETATM    7  C7  UNL     1      23.841   2.517  52.626  1.00  0.00     0.030 C 
HETATM    8  C8  UNL     1      22.656   1.928  52.628  1.00  0.00    -0.013 C 
HETATM    9  C9  UNL     1      21.668   2.413  51.967  1.00  0.00    -0.015 C 
HETATM   10  C10 UNL     1      21.819   3.105  50.870  1.00  0.00     0.029 C 
HETATM   11  C11 UNL     1      22.706   3.772  49.853  1.00  0.00     0.246 C 
HETATM   12  F1  UNL     1      22.481   5.124  49.868  1.00  0.00    -0.238 F 
ENDROOT
BRANCH   1  13
HETATM   13  N1  UNL     1      26.505   2.191  52.844  1.00  0.00    -0.366 N 
HETATM   14  H5  UNL     1      26.119   1.974  53.762  1.00  0.00     0.161 HD
BRANCH  13  15
HETATM   15  C2  UNL     1      27.905   1.819  52.801  1.00  0.00     0.112 C 
HETATM   16  C1  UNL     1      28.740   2.581  53.817  1.00  0.00     0.037 C 
BRANCH  15  17
HETATM   17  C12 UNL     1      28.151   0.371  52.926  1.00  0.00    -0.036 A 
HETATM   18  C13 UNL     1      29.346  -0.183  53.395  1.00  0.00     0.012 A 
HETATM   19  C14 UNL     1      29.444  -1.562  53.463  1.00  0.00     0.043 A 
HETATM   20  C15 UNL     1      28.399  -2.386  53.082  1.00  0.00     0.116 A 
HETATM   21  F2  UNL     1      28.554  -3.733  53.170  1.00  0.00    -0.206 F 
HETATM   22  C16 UNL     1      27.202  -1.853  52.612  1.00  0.00     0.043 A 
HETATM   23  C17 UNL     1      27.111  -0.467  52.547  1.00  0.00     0.012 A 
ENDBRANCH  15  17
ENDBRANCH  13  15
ENDBRANCH   1  13
TORSDOF 3
ENDMDL
MODEL 9
REMARK VINA RESULT:      -7.5      4.160      5.906
REMARK  3 active torsions:
REMARK  status: ('A' for Active; 'I' for Inactive)
REMARK    1  A    between atoms: C2_2  and  N1_3 
REMARK    2  A    between atoms: C2_2  and  C12_16 
REMARK    3  A    between atoms: N1_3  and  C3_4 
ROOT
HETATM    1  C3  UNL     1      23.714   4.056  50.902  1.00  0.00     0.137 A 
HETATM    2  N2  UNL     1      22.757   4.864  51.388  1.00  0.00    -0.224 NA
HETATM    3  C4  UNL     1      22.697   6.162  51.105  1.00  0.00     0.235 A 
HETATM    4  N3  UNL     1      23.583   6.788  50.310  1.00  0.00    -0.242 NA
HETATM    5  C5  UNL     1      24.587   6.034  49.776  1.00  0.00     0.087 A 
HETATM    6  C6  UNL     1      24.635   4.669  50.085  1.00  0.00     0.038 A 
HETATM    7  C7  UNL     1      25.627   3.682  49.606  1.00  0.00     0.030 C 
HETATM    8  C8  UNL     1      26.919   3.885  49.408  1.00  0.00    -0.013 C 
HETATM    9  C9  UNL     1      27.340   4.875  48.709  1.00  0.00    -0.015 C 
HETATM   10  C10 UNL     1      26.694   6.006  48.618  1.00  0.00     0.029 C 
HETATM   11  C11 UNL     1      25.488   6.855  48.924  1.00  0.00     0.246 C 
HETATM   12  F1  UNL     1      24.849   7.178  47.756  1.00  0.00    -0.238 F 
ENDROOT
BRANCH   1  13
HETATM   13  N1  UNL     1      23.741   2.680  51.247  1.00  0.00    -0.366 N 
HETATM   14  H5  UNL     1      24.484   2.039  51.525  1.00  0.00     0.161 HD
BRANCH  13  15
HETATM   15  C2  UNL     1      22.473   1.980  51.225  1.00  0.00     0.112 C 
HETATM   16  C1  UNL     1      22.131   1.440  49.845  1.00  0.00     0.037 C 
BRANCH  15  17
HETATM   17  C12 UNL     1      22.352   0.911  52.232  1.00  0.00    -0.036 A 
HETATM   18  C13 UNL     1      21.148   0.288  52.574  1.00  0.00     0.012 A 
HETATM   19  C14 UNL     1      21.177  -0.705  53.538  1.00  0.00     0.043 A 
HETATM   20  C15 UNL     1      22.355  -1.084  54.158  1.00  0.00     0.116 A 
HETATM   21  F2  UNL     1      22.321  -2.064  55.097  1.00  0.00    -0.206 F 
HETATM   22  C16 UNL     1      23.563  -0.475  53.831  1.00  0.00     0.043 A 
HETATM   23  C17 UNL     1      23.527   0.521  52.861  1.00  0.00     0.012 A 
ENDBRANCH  15  17
ENDBRANCH  13  15
ENDBRANCH   1  13
TORSDOF 3
ENDMDL
