MODEL 1
REMARK VINA RESULT:      -8.3      0.000      0.000
REMARK  2 active torsions:
REMARK  status: ('A' for Active; 'I' for Inactive)
REMARK    1  A    between atoms: N1_1  and  C1_2 
REMARK    2  A    between atoms: C8_12  and  C9_13 
ROOT
HETATM    1  C1  UNL     1      22.916   2.036  52.584  1.00  0.00     0.339 C 
HETATM    2  C2  UNL     1      24.098   1.107  52.600  1.00  0.00     0.076 C 
HETATM    3  C3  UNL     1      23.976  -0.198  53.249  1.00  0.00     0.094 A 
HETATM    4  C4  UNL     1      22.665  -0.528  53.883  1.00  0.00     0.047 A 
HETATM    5  C5  UNL     1      21.403  -0.271  53.480  1.00  0.00     0.047 C 
HETATM    6  C6  UNL     1      21.096   0.456  52.224  1.00  0.00     0.115 C 
HETATM    7  N2  UNL     1      21.779   1.498  51.816  1.00  0.00    -0.266 NA
HETATM    8  N3  UNL     1      22.467  -1.182  55.159  1.00  0.00    -0.246 NA
HETATM    9  C7  UNL     1      23.530  -1.490  55.812  1.00  0.00     0.233 A 
HETATM   10  N4  UNL     1      24.807  -1.194  55.282  1.00  0.00    -0.245 NA
HETATM   11  C8  UNL     1      25.056  -0.624  54.155  1.00  0.00     0.056 A 
ENDROOT
BRANCH  11  12
HETATM   12  C9  UNL     1      26.487  -0.499  53.948  1.00  0.00    -0.009 A 
HETATM   13  C10 UNL     1      27.235  -1.446  53.268  1.00  0.00     0.016 A 
HETATM   14  C11 UNL     1      28.587  -1.377  53.021  1.00  0.00     0.045 A 
HETATM   15  C12 UNL     1      29.270  -0.277  53.485  1.00  0.00     0.138 A 
HETATM   16  F1  UNL     1      30.596  -0.214  53.241  1.00  0.00    -0.204 F 
HETATM   17  C13 UNL     1      28.626   0.727  54.174  1.00  0.00     0.073 A 
HETATM   18 CL1  UNL     1      29.504   2.112  54.754  1.00  0.00    -0.081 Cl
HETATM   19  C14 UNL     1      27.281   0.545  54.357  1.00  0.00     0.040 A 
ENDBRANCH  11  12
BRANCH   1  20
HETATM   20  N1  UNL     1      23.299   3.310  52.069  1.00  0.00     0.103 N 
HETATM   21  H1  UNL     1      23.255   3.294  51.021  1.00  0.00     0.315 HD
HETATM   22  H2  UNL     1      22.657   4.085  52.351  1.00  0.00     0.315 HD
ENDBRANCH   1  20
TORSDOF 2
ENDMDL
MODEL 2
REMARK VINA RESULT:      -7.9      1.733      2.313
REMARK  2 active torsions:
REMARK  status: ('A' for Active; 'I' for Inactive)
REMARK    1  A    between atoms: N1_1  and  C1_2 
REMARK    2  A    between atoms: C8_12  and  C9_13 
ROOT
HETATM    1  C1  UNL     1      23.377   4.021  52.921  1.00  0.00     0.339 C 
HETATM    2  C2  UNL     1      24.393   2.950  52.635  1.00  0.00     0.076 C 
HETATM    3  C3  UNL     1      23.959   1.556  52.545  1.00  0.00     0.094 A 
HETATM    4  C4  UNL     1      22.509   1.274  52.765  1.00  0.00     0.047 A 
HETATM    5  C5  UNL     1      21.412   1.958  52.378  1.00  0.00     0.047 C 
HETATM    6  C6  UNL     1      21.487   3.222  51.607  1.00  0.00     0.115 C 
HETATM    7  N2  UNL     1      22.374   4.156  51.849  1.00  0.00    -0.266 NA
HETATM    8  N3  UNL     1      21.951   0.175  53.523  1.00  0.00    -0.246 NA
HETATM    9  C7  UNL     1      22.795  -0.622  54.076  1.00  0.00     0.233 A 
HETATM   10  N4  UNL     1      24.185  -0.409  53.926  1.00  0.00    -0.245 NA
HETATM   11  C8  UNL     1      24.748   0.539  53.261  1.00  0.00     0.056 A 
ENDROOT
BRANCH  11  12
HETATM   12  C9  UNL     1      26.194   0.424  53.328  1.00  0.00    -0.009 A 
HETATM   13  C10 UNL     1      27.024   1.509  53.554  1.00  0.00     0.016 A 
HETATM   14  C11 UNL     1      28.396   1.464  53.648  1.00  0.00     0.045 A 
HETATM   15  C12 UNL     1      29.011   0.243  53.507  1.00  0.00     0.138 A 
HETATM   16  F1  UNL     1      30.358   0.205  53.599  1.00  0.00    -0.204 F 
HETATM   17  C13 UNL     1      28.283  -0.904  53.278  1.00  0.00     0.073 A 
HETATM   18 CL1  UNL     1      29.075  -2.441  53.101  1.00  0.00    -0.081 Cl
HETATM   19  C14 UNL     1      26.925  -0.731  53.205  1.00  0.00     0.040 A 
ENDBRANCH  11  12
BRANCH   1  20
HETATM   20  N1  UNL     1      24.029   5.270  53.144  1.00  0.00     0.103 N 
HETATM   21  H1  UNL     1      23.502   5.820  53.865  1.00  0.00     0.315 HD
HETATM   22  H2  UNL     1      24.993   5.173  53.536  1.00  0.00     0.315 HD
ENDBRANCH   1  20
TORSDOF 2
ENDMDL
MODEL 3
REMARK VINA RESULT:      -7.9      1.414      1.875
REMARK  2 active torsions:
REMARK  status: ('A' for Active; 'I' for Inactive)
REMARK    1  A    between atoms: N1_1  and  C1_2 
REMARK    2  A    between atoms: C8_12  and  C9_13 
ROOT
HETATM    1  C1  UNL     1      23.124   4.026  52.722  1.00  0.00     0.339 C 
HETATM    2  C2  UNL     1      24.028   2.850  52.476  1.00  0.00     0.076 C 
HETATM    3  C3  UNL     1      23.468   1.499  52.495  1.00  0.00     0.094 A 
HETATM    4  C4  UNL     1      22.009   1.366  52.780  1.00  0.00     0.047 A 
HETATM    5  C5  UNL     1      20.963   2.122  52.384  1.00  0.00     0.047 C 
HETATM    6  C6  UNL     1      21.121   3.321  51.527  1.00  0.00     0.115 C 
HETATM    7  N2  UNL     1      22.098   4.184  51.676  1.00  0.00    -0.266 NA
HETATM    8  N3  UNL     1      21.384   0.374  53.629  1.00  0.00    -0.246 NA
HETATM    9  C7  UNL     1      22.174  -0.460  54.206  1.00  0.00     0.233 A 
HETATM   10  N4  UNL     1      23.571  -0.386  53.997  1.00  0.00    -0.245 NA
HETATM   11  C8  UNL     1      24.191   0.461  53.251  1.00  0.00     0.056 A 
ENDROOT
BRANCH  11  12
HETATM   12  C9  UNL     1      25.621   0.219  53.279  1.00  0.00    -0.009 A 
HETATM   13  C10 UNL     1      26.187  -0.987  52.899  1.00  0.00     0.016 A 
HETATM   14  C11 UNL     1      27.533  -1.273  52.884  1.00  0.00     0.045 A 
HETATM   15  C12 UNL     1      28.405  -0.286  53.276  1.00  0.00     0.138 A 
HETATM   16  F1  UNL     1      29.725  -0.572  53.259  1.00  0.00    -0.204 F 
HETATM   17  C13 UNL     1      27.953   0.953  53.673  1.00  0.00     0.073 A 
HETATM   18 CL1  UNL     1      29.068   2.192  54.167  1.00  0.00    -0.081 Cl
HETATM   19  C14 UNL     1      26.592   1.118  53.646  1.00  0.00     0.040 A 
ENDBRANCH  11  12
BRANCH   1  20
HETATM   20  N1  UNL     1      23.895   5.222  52.838  1.00  0.00     0.103 N 
HETATM   21  H1  UNL     1      23.446   5.863  53.537  1.00  0.00     0.315 HD
HETATM   22  H2  UNL     1      24.860   5.062  53.204  1.00  0.00     0.315 HD
ENDBRANCH   1  20
TORSDOF 2
ENDMDL
MODEL 4
REMARK VINA RESULT:      -7.7      2.546      4.211
REMARK  2 active torsions:
REMARK  status: ('A' for Active; 'I' for Inactive)
REMARK    1  A    between atoms: N1_1  and  C1_2 
REMARK    2  A    between atoms: C8_12  and  C9_13 
ROOT
HETATM    1  C1  UNL     1      22.554   1.577  51.906  1.00  0.00     0.339 C 
HETATM    2  C2  UNL     1      23.942   1.618  52.483  1.00  0.00     0.076 C 
HETATM    3  C3  UNL     1      24.831   2.726  52.133  1.00  0.00     0.094 A 
HETATM    4  C4  UNL     1      24.303   3.758  51.193  1.00  0.00     0.047 A 
HETATM    5  C5  UNL     1      23.076   4.312  51.094  1.00  0.00     0.047 C 
HETATM    6  C6  UNL     1      21.953   3.937  51.987  1.00  0.00     0.115 C 
HETATM    7  N2  UNL     1      21.716   2.702  52.357  1.00  0.00    -0.266 NA
HETATM    8  N3  UNL     1      25.022   4.376  50.100  1.00  0.00    -0.246 NA
HETATM    9  C7  UNL     1      26.230   3.976  49.916  1.00  0.00     0.233 A 
HETATM   10  N4  UNL     1      26.794   2.988  50.756  1.00  0.00    -0.245 NA
HETATM   11  C8  UNL     1      26.217   2.406  51.749  1.00  0.00     0.056 A 
ENDROOT
BRANCH  11  12
HETATM   12  C9  UNL     1      27.115   1.457  52.381  1.00  0.00    -0.009 A 
HETATM   13  C10 UNL     1      28.192   1.845  53.161  1.00  0.00     0.016 A 
HETATM   14  C11 UNL     1      29.066   0.998  53.801  1.00  0.00     0.045 A 
HETATM   15  C12 UNL     1      28.867  -0.356  53.665  1.00  0.00     0.138 A 
HETATM   16  F1  UNL     1      29.728  -1.183  54.295  1.00  0.00    -0.204 F 
HETATM   17  C13 UNL     1      27.827  -0.854  52.912  1.00  0.00     0.073 A 
HETATM   18 CL1  UNL     1      27.588  -2.569  52.748  1.00  0.00    -0.081 Cl
HETATM   19  C14 UNL     1      27.024   0.088  52.323  1.00  0.00     0.040 A 
ENDBRANCH  11  12
BRANCH   1  20
HETATM   20  N1  UNL     1      21.926   0.336  52.225  1.00  0.00     0.103 N 
HETATM   21  H1  UNL     1      21.493   0.396  53.179  1.00  0.00     0.315 HD
HETATM   22  H2  UNL     1      21.134   0.093  51.589  1.00  0.00     0.315 HD
ENDBRANCH   1  20
TORSDOF 2
ENDMDL
MODEL 5
REMARK VINA RESULT:      -7.5      4.183      7.036
REMARK  2 active torsions:
REMARK  status: ('A' for Active; 'I' for Inactive)
REMARK    1  A    between atoms: N1_1  and  C1_2 
REMARK    2  A    between atoms: C8_12  and  C9_13 
ROOT
HETATM    1  C1  UNL     1      25.516  -0.483  54.801  1.00  0.00     0.339 C 
HETATM    2  C2  UNL     1      24.346  -0.530  53.857  1.00  0.00     0.076 C 
HETATM    3  C3  UNL     1      24.346   0.328  52.672  1.00  0.00     0.094 A 
HETATM    4  C4  UNL     1      25.521   1.228  52.478  1.00  0.00     0.047 A 
HETATM    5  C5  UNL     1      26.836   1.018  52.700  1.00  0.00     0.047 C 
HETATM    6  C6  UNL     1      27.365  -0.262  53.229  1.00  0.00     0.115 C 
HETATM    7  N2  UNL     1      26.770  -0.943  54.178  1.00  0.00    -0.266 NA
HETATM    8  N3  UNL     1      25.487   2.605  52.035  1.00  0.00    -0.246 NA
HETATM    9  C7  UNL     1      24.322   3.101  51.807  1.00  0.00     0.233 A 
HETATM   10  N4  UNL     1      23.161   2.313  51.985  1.00  0.00    -0.245 NA
HETATM   11  C8  UNL     1      23.120   1.084  52.365  1.00  0.00     0.056 A 
ENDROOT
BRANCH  11  12
HETATM   12  C9  UNL     1      21.749   0.610  52.422  1.00  0.00    -0.009 A 
HETATM   13  C10 UNL     1      21.219  -0.027  53.532  1.00  0.00     0.016 A 
HETATM   14  C11 UNL     1      19.926  -0.482  53.656  1.00  0.00     0.045 A 
HETATM   15  C12 UNL     1      19.073  -0.294  52.593  1.00  0.00     0.138 A 
HETATM   16  F1  UNL     1      17.806  -0.742  52.720  1.00  0.00    -0.204 F 
HETATM   17  C13 UNL     1      19.494   0.329  51.439  1.00  0.00     0.073 A 
HETATM   18 CL1  UNL     1      18.404   0.559  50.103  1.00  0.00    -0.081 Cl
HETATM   19  C14 UNL     1      20.802   0.737  51.435  1.00  0.00     0.040 A 
ENDBRANCH  11  12
BRANCH   1  20
HETATM   20  N1  UNL     1      25.235  -1.253  55.969  1.00  0.00     0.103 N 
HETATM   21  H1  UNL     1      25.456  -0.688  56.825  1.00  0.00     0.315 HD
HETATM   22  H2  UNL     1      24.227  -1.505  56.070  1.00  0.00     0.315 HD
ENDBRANCH   1  20
TORSDOF 2
ENDMDL
MODEL 6
REMARK VINA RESULT:      -7.4      3.742      5.650
REMARK  2 active torsions:
REMARK  status: ('A' for Active; 'I' for Inactive)
REMARK    1  A    between atoms: N1_1  and  C1_2 
REMARK    2  A    between atoms: C8_12  and  C9_13 
ROOT
HETATM    1  C1  UNL     1      23.721   5.022  51.369  1.00  0.00     0.339 C 
HETATM    2  C2  UNL     1      23.858   3.558  51.687  1.00  0.00     0.076 C 
HETATM    3  C3  UNL     1      23.570   2.569  50.648  1.00  0.00     0.094 A 
HETATM    4  C4  UNL     1      23.133   3.082  49.316  1.00  0.00     0.047 A 
HETATM    5  C5  UNL     1      23.546   4.154  48.607  1.00  0.00     0.047 C 
HETATM    6  C6  UNL     1      24.595   5.081  49.095  1.00  0.00     0.115 C 
HETATM    7  N2  UNL     1      24.678   5.474  50.344  1.00  0.00    -0.266 NA
HETATM    8  N3  UNL     1      22.081   2.535  48.486  1.00  0.00    -0.246 NA
HETATM    9  C7  UNL     1      21.454   1.517  48.959  1.00  0.00     0.233 A 
HETATM   10  N4  UNL     1      21.801   0.985  50.222  1.00  0.00    -0.245 NA
HETATM   11  C8  UNL     1      22.728   1.415  51.006  1.00  0.00     0.056 A 
ENDROOT
BRANCH  11  12
HETATM   12  C9  UNL     1      22.796   0.608  52.211  1.00  0.00    -0.009 A 
HETATM   13  C10 UNL     1      21.681   0.022  52.787  1.00  0.00     0.016 A 
HETATM   14  C11 UNL     1      21.681  -0.768  53.914  1.00  0.00     0.045 A 
HETATM   15  C12 UNL     1      22.885  -1.005  54.534  1.00  0.00     0.138 A 
HETATM   16  F1  UNL     1      22.880  -1.779  55.640  1.00  0.00    -0.204 F 
HETATM   17  C13 UNL     1      24.058  -0.471  54.047  1.00  0.00     0.073 A 
HETATM   18 CL1  UNL     1      25.574  -0.779  54.842  1.00  0.00    -0.081 Cl
HETATM   19  C14 UNL     1      23.930   0.297  52.920  1.00  0.00     0.040 A 
ENDBRANCH  11  12
BRANCH   1  20
HETATM   20  N1  UNL     1      23.870   5.798  52.557  1.00  0.00     0.103 N 
HETATM   21  H1  UNL     1      23.619   6.797  52.359  1.00  0.00     0.315 HD
HETATM   22  H2  UNL     1      23.226   5.509  53.328  1.00  0.00     0.315 HD
ENDBRANCH   1  20
TORSDOF 2
ENDMDL
MODEL 7
REMARK VINA RESULT:      -7.3      4.240      6.079
REMARK  2 active torsions:
REMARK  status: ('A' for Active; 'I' for Inactive)
REMARK    1  A    between atoms: N1_1  and  C1_2 
REMARK    2  A    between atoms: C8_12  and  C9_13 
ROOT
HETATM    1  C1  UNL     1      23.440   3.048  48.830  1.00  0.00     0.339 C 
HETATM    2  C2  UNL     1      23.166   2.554  50.224  1.00  0.00     0.076 C 
HETATM    3  C3  UNL     1      24.240   2.580  51.217  1.00  0.00     0.094 A 
HETATM    4  C4  UNL     1      25.571   3.088  50.774  1.00  0.00     0.047 A 
HETATM    5  C5  UNL     1      25.894   4.110  49.953  1.00  0.00     0.047 C 
HETATM    6  C6  UNL     1      24.874   4.962  49.297  1.00  0.00     0.115 C 
HETATM    7  N2  UNL     1      23.763   4.486  48.789  1.00  0.00    -0.266 NA
HETATM    8  N3  UNL     1      26.863   2.528  51.111  1.00  0.00    -0.246 NA
HETATM    9  C7  UNL     1      26.851   1.476  51.850  1.00  0.00     0.233 A 
HETATM   10  N4  UNL     1      25.627   0.927  52.296  1.00  0.00    -0.245 NA
HETATM   11  C8  UNL     1      24.447   1.377  52.043  1.00  0.00     0.056 A 
ENDROOT
BRANCH  11  12
HETATM   12  C9  UNL     1      23.436   0.555  52.681  1.00  0.00    -0.009 A 
HETATM   13  C10 UNL     1      23.715  -0.296  53.738  1.00  0.00     0.016 A 
HETATM   14  C11 UNL     1      22.800  -1.085  54.397  1.00  0.00     0.045 A 
HETATM   15  C12 UNL     1      21.491  -1.035  53.982  1.00  0.00     0.138 A 
HETATM   16  F1  UNL     1      20.597  -1.812  54.631  1.00  0.00    -0.204 F 
HETATM   17  C13 UNL     1      21.100  -0.224  52.939  1.00  0.00     0.073 A 
HETATM   18 CL1  UNL     1      19.440  -0.173  52.424  1.00  0.00    -0.081 Cl
HETATM   19  C14 UNL     1      22.101   0.513  52.363  1.00  0.00     0.040 A 
ENDBRANCH  11  12
BRANCH   1  20
HETATM   20  N1  UNL     1      22.326   2.770  47.983  1.00  0.00     0.103 N 
HETATM   21  H1  UNL     1      21.442   3.102  48.442  1.00  0.00     0.315 HD
HETATM   22  H2  UNL     1      22.359   3.278  47.071  1.00  0.00     0.315 HD
ENDBRANCH   1  20
TORSDOF 2
ENDMDL
MODEL 8
REMARK VINA RESULT:      -7.2      4.122      6.978
REMARK  2 active torsions:
REMARK  status: ('A' for Active; 'I' for Inactive)
REMARK    1  A    between atoms: N1_1  and  C1_2 
REMARK    2  A    between atoms: C8_12  and  C9_13 
ROOT
HETATM    1  C1  UNL     1      25.504  -0.591  54.350  1.00  0.00     0.339 C 
HETATM    2  C2  UNL     1      24.442  -0.110  53.400  1.00  0.00     0.076 C 
HETATM    3  C3  UNL     1      24.835   0.607  52.187  1.00  0.00     0.094 A 
HETATM    4  C4  UNL     1      26.293   0.838  51.971  1.00  0.00     0.047 A 
HETATM    5  C5  UNL     1      27.355   0.039  52.208  1.00  0.00     0.047 C 
HETATM    6  C6  UNL     1      27.222  -1.321  52.783  1.00  0.00     0.115 C 
HETATM    7  N2  UNL     1      26.385  -1.609  53.750  1.00  0.00    -0.266 NA
HETATM    8  N3  UNL     1      26.909   2.053  51.482  1.00  0.00    -0.246 NA
HETATM    9  C7  UNL     1      26.115   3.033  51.231  1.00  0.00     0.233 A 
HETATM   10  N4  UNL     1      24.722   2.894  51.427  1.00  0.00    -0.245 NA
HETATM   11  C8  UNL     1      24.108   1.843  51.849  1.00  0.00     0.056 A 
ENDROOT
BRANCH  11  12
HETATM   12  C9  UNL     1      22.677   2.076  51.912  1.00  0.00    -0.009 A 
HETATM   13  C10 UNL     1      22.129   3.313  52.206  1.00  0.00     0.016 A 
HETATM   14  C11 UNL     1      20.784   3.603  52.262  1.00  0.00     0.045 A 
HETATM   15  C12 UNL     1      19.896   2.586  52.007  1.00  0.00     0.138 A 
HETATM   16  F1  UNL     1      18.578   2.875  52.065  1.00  0.00    -0.204 F 
HETATM   17  C13 UNL     1      20.330   1.314  51.704  1.00  0.00     0.073 A 
HETATM   18 CL1  UNL     1      19.194   0.037  51.385  1.00  0.00    -0.081 Cl
HETATM   19  C14 UNL     1      21.690   1.150  51.678  1.00  0.00     0.040 A 
ENDBRANCH  11  12
BRANCH   1  20
HETATM   20  N1  UNL     1      24.905  -1.098  55.541  1.00  0.00     0.103 N 
HETATM   21  H1  UNL     1      24.437  -0.316  56.061  1.00  0.00     0.315 HD
HETATM   22  H2  UNL     1      24.145  -1.792  55.363  1.00  0.00     0.315 HD
ENDBRANCH   1  20
TORSDOF 2
ENDMDL
MODEL 9
REMARK VINA RESULT:      -7.1      2.109      2.792
REMARK  2 active torsions:
REMARK  status: ('A' for Active; 'I' for Inactive)
REMARK    1  A    between atoms: N1_1  and  C1_2 
REMARK    2  A    between atoms: C8_12  and  C9_13 
ROOT
HETATM    1  C1  UNL     1      20.342   2.484  52.269  1.00  0.00     0.339 C 
HETATM    2  C2  UNL     1      21.661   1.784  52.094  1.00  0.00     0.076 C 
HETATM    3  C3  UNL     1      21.770   0.364  52.427  1.00  0.00     0.094 A 
HETATM    4  C4  UNL     1      20.545  -0.313  52.947  1.00  0.00     0.047 A 
HETATM    5  C5  UNL     1      19.250  -0.184  52.590  1.00  0.00     0.047 C 
HETATM    6  C6  UNL     1      18.801   0.748  51.527  1.00  0.00     0.115 C 
HETATM    7  N2  UNL     1      19.294   1.954  51.379  1.00  0.00    -0.266 NA
HETATM    8  N3  UNL     1      20.484  -1.264  54.037  1.00  0.00    -0.246 NA
HETATM    9  C7  UNL     1      21.597  -1.531  54.622  1.00  0.00     0.233 A 
HETATM   10  N4  UNL     1      22.796  -0.915  54.196  1.00  0.00    -0.245 NA
HETATM   11  C8  UNL     1      22.924  -0.072  53.232  1.00  0.00     0.056 A 
ENDROOT
BRANCH  11  12
HETATM   12  C9  UNL     1      24.310   0.333  53.084  1.00  0.00    -0.009 A 
HETATM   13  C10 UNL     1      25.315  -0.101  53.934  1.00  0.00     0.016 A 
HETATM   14  C11 UNL     1      26.647   0.228  53.836  1.00  0.00     0.045 A 
HETATM   15  C12 UNL     1      27.031   1.061  52.811  1.00  0.00     0.138 A 
HETATM   16  F1  UNL     1      28.339   1.382  52.721  1.00  0.00    -0.204 F 
HETATM   17  C13 UNL     1      26.115   1.553  51.907  1.00  0.00     0.073 A 
HETATM   18 CL1  UNL     1      26.615   2.605  50.617  1.00  0.00    -0.081 Cl
HETATM   19  C14 UNL     1      24.820   1.153  52.108  1.00  0.00     0.040 A 
ENDBRANCH  11  12
BRANCH   1  20
HETATM   20  N1  UNL     1      20.499   3.887  52.063  1.00  0.00     0.103 N 
HETATM   21  H1  UNL     1      20.995   4.057  51.154  1.00  0.00     0.315 HD
HETATM   22  H2  UNL     1      19.593   4.399  51.972  1.00  0.00     0.315 HD
ENDBRANCH   1  20
TORSDOF 2
ENDMDL
