MODEL 1
REMARK VINA RESULT:      -8.1      0.000      0.000
REMARK  4 active torsions:
REMARK  status: ('A' for Active; 'I' for Inactive)
REMARK    1  A    between atoms: C4_5  and  C5_6 
REMARK    2  A    between atoms: C6_7  and  C7_8 
REMARK    3  A    between atoms: C7_8  and  O1_9 
REMARK    4  A    between atoms: O1_9  and  C8_10 
ROOT
HETATM    1  C8  UNL     1      23.194   0.890  52.303  1.00  0.00     0.168 C 
HETATM    2  C9  UNL     1      21.857   0.222  53.281  1.00  0.00     0.053 C 
HETATM    3  C10 UNL     1      22.080  -0.924  53.859  1.00  0.00     0.113 C 
HETATM    4  N1  UNL     1      20.683  -0.836  54.399  1.00  0.00    -0.362 N 
HETATM    5  C11 UNL     1      19.633  -0.645  53.371  1.00  0.00     0.248 A 
HETATM    6  C12 UNL     1      18.222  -1.010  53.306  1.00  0.00     0.382 A 
HETATM    7  S1  UNL     1      18.191  -0.176  51.534  1.00  0.00     0.110 SA
HETATM    8  C13 UNL     1      19.911   0.356  51.453  1.00  0.00     0.278 A 
HETATM    9  N2  UNL     1      19.035  -0.260  52.216  1.00  0.00     0.101 N 
HETATM   10  N3  UNL     1      21.006   0.888  51.107  1.00  0.00    -0.361 NA
HETATM   11  C14 UNL     1      22.184   1.295  51.024  1.00  0.00     0.292 C 
HETATM   12  H10 UNL     1      20.102  -0.846  55.320  1.00  0.00     0.161 HD
ENDROOT
BRANCH   1  13
HETATM   13  O1  UNL     1      23.100   2.018  52.936  1.00  0.00    -0.377 OA
BRANCH  13  14
HETATM   14  C7  UNL     1      24.159   2.892  53.045  1.00  0.00     0.196 C 
BRANCH  14  15
HETATM   15  C6  UNL     1      25.375   2.004  53.199  1.00  0.00    -0.000 C 
HETATM   16  C5  UNL     1      26.612   2.015  53.687  1.00  0.00     0.009 C 
BRANCH  16  17
HETATM   17  C4  UNL     1      27.474   0.842  53.606  1.00  0.00    -0.036 A 
HETATM   18  C3  UNL     1      26.763  -0.225  53.092  1.00  0.00     0.014 A 
HETATM   19  C2  UNL     1      27.499  -1.402  52.932  1.00  0.00     0.043 A 
HETATM   20  C1  UNL     1      28.864  -1.431  53.290  1.00  0.00     0.116 A 
HETATM   21  F1  UNL     1      29.475  -2.640  53.100  1.00  0.00    -0.206 F 
HETATM   22  C16 UNL     1      29.479  -0.269  53.808  1.00  0.00     0.043 A 
HETATM   23  C15 UNL     1      28.766   0.887  53.967  1.00  0.00     0.014 A 
ENDBRANCH  16  17
ENDBRANCH  14  15
ENDBRANCH  13  14
ENDBRANCH   1  13
TORSDOF 4
ENDMDL
MODEL 2
REMARK VINA RESULT:      -7.9      5.636      7.498
REMARK  4 active torsions:
REMARK  status: ('A' for Active; 'I' for Inactive)
REMARK    1  A    between atoms: C4_5  and  C5_6 
REMARK    2  A    between atoms: C6_7  and  C7_8 
REMARK    3  A    between atoms: C7_8  and  O1_9 
REMARK    4  A    between atoms: O1_9  and  C8_10 
ROOT
HETATM    1  C8  UNL     1      24.480   1.244  52.807  1.00  0.00     0.168 C 
HETATM    2  C9  UNL     1      25.848   0.104  52.670  1.00  0.00     0.053 C 
HETATM    3  C10 UNL     1      25.630  -1.113  53.082  1.00  0.00     0.113 C 
HETATM    4  N1  UNL     1      27.051  -1.412  52.709  1.00  0.00    -0.362 N 
HETATM    5  C11 UNL     1      28.057  -0.519  53.332  1.00  0.00     0.248 A 
HETATM    6  C12 UNL     1      29.456  -0.698  53.703  1.00  0.00     0.382 A 
HETATM    7  S1  UNL     1      29.421   1.156  54.335  1.00  0.00     0.110 SA
HETATM    8  C13 UNL     1      27.710   1.549  53.930  1.00  0.00     0.278 A 
HETATM    9  N2  UNL     1      28.608   0.591  53.884  1.00  0.00     0.101 N 
HETATM   10  N3  UNL     1      26.610   2.146  53.738  1.00  0.00    -0.361 NA
HETATM   11  C14 UNL     1      25.438   2.465  53.450  1.00  0.00     0.292 C 
HETATM   12  H10 UNL     1      27.674  -2.069  52.103  1.00  0.00     0.161 HD
ENDROOT
BRANCH   1  13
HETATM   13  O1  UNL     1      24.625   1.575  51.562  1.00  0.00    -0.377 OA
BRANCH  13  14
HETATM   14  C7  UNL     1      23.743   2.415  50.916  1.00  0.00     0.196 C 
BRANCH  14  15
HETATM   15  C6  UNL     1      24.622   3.442  50.235  1.00  0.00    -0.000 C 
HETATM   16  C5  UNL     1      25.836   3.583  49.710  1.00  0.00     0.009 C 
BRANCH  16  17
HETATM   17  C4  UNL     1      26.270   4.844  49.122  1.00  0.00    -0.036 A 
HETATM   18  C3  UNL     1      27.609   4.769  48.792  1.00  0.00     0.014 A 
HETATM   19  C2  UNL     1      28.132   5.913  48.183  1.00  0.00     0.043 A 
HETATM   20  C1  UNL     1      27.299   7.028  47.952  1.00  0.00     0.116 A 
HETATM   21  F1  UNL     1      27.925   8.092  47.361  1.00  0.00    -0.206 F 
HETATM   22  C16 UNL     1      25.940   6.983  48.337  1.00  0.00     0.043 A 
HETATM   23  C15 UNL     1      25.420   5.866  48.933  1.00  0.00     0.014 A 
ENDBRANCH  16  17
ENDBRANCH  14  15
ENDBRANCH  13  14
ENDBRANCH   1  13
TORSDOF 4
ENDMDL
MODEL 3
REMARK VINA RESULT:      -7.8      4.133      5.753
REMARK  4 active torsions:
REMARK  status: ('A' for Active; 'I' for Inactive)
REMARK    1  A    between atoms: C4_5  and  C5_6 
REMARK    2  A    between atoms: C6_7  and  C7_8 
REMARK    3  A    between atoms: C7_8  and  O1_9 
REMARK    4  A    between atoms: O1_9  and  C8_10 
ROOT
HETATM    1  C8  UNL     1      23.054   3.372  51.321  1.00  0.00     0.168 C 
HETATM    2  C9  UNL     1      23.815   4.973  51.533  1.00  0.00     0.053 C 
HETATM    3  C10 UNL     1      23.006   5.982  51.686  1.00  0.00     0.113 C 
HETATM    4  N1  UNL     1      24.227   6.849  51.774  1.00  0.00    -0.362 N 
HETATM    5  C11 UNL     1      25.156   6.729  50.625  1.00  0.00     0.248 A 
HETATM    6  C12 UNL     1      26.106   7.650  50.010  1.00  0.00     0.382 A 
HETATM    7  S1  UNL     1      26.529   6.212  48.749  1.00  0.00     0.110 SA
HETATM    8  C13 UNL     1      25.414   4.950  49.391  1.00  0.00     0.278 A 
HETATM    9  N2  UNL     1      25.817   6.188  49.571  1.00  0.00     0.101 N 
HETATM   10  N3  UNL     1      24.801   3.865  49.611  1.00  0.00    -0.361 NA
HETATM   11  C14 UNL     1      24.060   2.956  50.041  1.00  0.00     0.292 C 
HETATM   12  H10 UNL     1      24.739   7.574  52.407  1.00  0.00     0.161 HD
ENDROOT
BRANCH   1  13
HETATM   13  O1  UNL     1      23.799   2.886  52.265  1.00  0.00    -0.377 OA
BRANCH  13  14
HETATM   14  C7  UNL     1      23.672   1.588  52.709  1.00  0.00     0.196 C 
BRANCH  14  15
HETATM   15  C6  UNL     1      25.094   1.090  52.848  1.00  0.00    -0.000 C 
HETATM   16  C5  UNL     1      26.195   0.883  52.131  1.00  0.00     0.009 C 
BRANCH  16  17
HETATM   17  C4  UNL     1      27.412   0.356  52.737  1.00  0.00    -0.036 A 
HETATM   18  C3  UNL     1      27.405  -1.024  52.672  1.00  0.00     0.014 A 
HETATM   19  C2  UNL     1      28.544  -1.644  53.192  1.00  0.00     0.043 A 
HETATM   20  C1  UNL     1      29.588  -0.860  53.729  1.00  0.00     0.116 A 
HETATM   21  F1  UNL     1      30.644  -1.578  54.219  1.00  0.00    -0.206 F 
HETATM   22  C16 UNL     1      29.475   0.549  53.739  1.00  0.00     0.043 A 
HETATM   23  C15 UNL     1      28.363   1.164  53.231  1.00  0.00     0.014 A 
ENDBRANCH  16  17
ENDBRANCH  14  15
ENDBRANCH  13  14
ENDBRANCH   1  13
TORSDOF 4
ENDMDL
MODEL 4
REMARK VINA RESULT:      -7.7      4.535      7.846
REMARK  4 active torsions:
REMARK  status: ('A' for Active; 'I' for Inactive)
REMARK    1  A    between atoms: C4_5  and  C5_6 
REMARK    2  A    between atoms: C6_7  and  C7_8 
REMARK    3  A    between atoms: C7_8  and  O1_9 
REMARK    4  A    between atoms: O1_9  and  C8_10 
ROOT
HETATM    1  C8  UNL     1      24.442   1.166  52.968  1.00  0.00     0.168 C 
HETATM    2  C9  UNL     1      25.816   0.028  52.893  1.00  0.00     0.053 C 
HETATM    3  C10 UNL     1      25.626  -1.145  53.426  1.00  0.00     0.113 C 
HETATM    4  N1  UNL     1      27.037  -1.467  53.034  1.00  0.00    -0.362 N 
HETATM    5  C11 UNL     1      28.053  -0.511  53.533  1.00  0.00     0.248 A 
HETATM    6  C12 UNL     1      29.466  -0.643  53.871  1.00  0.00     0.382 A 
HETATM    7  S1  UNL     1      29.432   1.263  54.324  1.00  0.00     0.110 SA
HETATM    8  C13 UNL     1      27.704   1.602  53.943  1.00  0.00     0.278 A 
HETATM    9  N2  UNL     1      28.611   0.651  53.957  1.00  0.00     0.101 N 
HETATM   10  N3  UNL     1      26.592   2.169  53.733  1.00  0.00    -0.361 NA
HETATM   11  C14 UNL     1      25.407   2.450  53.457  1.00  0.00     0.292 C 
HETATM   12  H10 UNL     1      27.647  -2.175  52.472  1.00  0.00     0.161 HD
ENDROOT
BRANCH   1  13
HETATM   13  O1  UNL     1      24.540   1.377  51.692  1.00  0.00    -0.377 OA
BRANCH  13  14
HETATM   14  C7  UNL     1      23.604   2.107  50.992  1.00  0.00     0.196 C 
BRANCH  14  15
HETATM   15  C6  UNL     1      22.288   1.418  51.280  1.00  0.00    -0.000 C 
HETATM   16  C5  UNL     1      21.165   1.035  50.679  1.00  0.00     0.009 C 
BRANCH  16  17
HETATM   17  C4  UNL     1      20.103   0.354  51.410  1.00  0.00    -0.036 A 
HETATM   18  C3  UNL     1      20.582  -0.082  52.630  1.00  0.00     0.014 A 
HETATM   19  C2  UNL     1      19.639  -0.721  53.440  1.00  0.00     0.043 A 
HETATM   20  C1  UNL     1      18.312  -0.877  52.983  1.00  0.00     0.116 A 
HETATM   21  F1  UNL     1      17.485  -1.528  53.857  1.00  0.00    -0.206 F 
HETATM   22  C16 UNL     1      17.945  -0.387  51.710  1.00  0.00     0.043 A 
HETATM   23  C15 UNL     1      18.862   0.241  50.912  1.00  0.00     0.014 A 
ENDBRANCH  16  17
ENDBRANCH  14  15
ENDBRANCH  13  14
ENDBRANCH   1  13
TORSDOF 4
ENDMDL
MODEL 5
REMARK VINA RESULT:      -7.5      1.994      3.483
REMARK  4 active torsions:
REMARK  status: ('A' for Active; 'I' for Inactive)
REMARK    1  A    between atoms: C4_5  and  C5_6 
REMARK    2  A    between atoms: C6_7  and  C7_8 
REMARK    3  A    between atoms: C7_8  and  O1_9 
REMARK    4  A    between atoms: O1_9  and  C8_10 
ROOT
HETATM    1  C8  UNL     1      21.727   0.706  53.239  1.00  0.00     0.168 C 
HETATM    2  C9  UNL     1      22.750   1.572  52.058  1.00  0.00     0.053 C 
HETATM    3  C10 UNL     1      23.099   2.786  52.377  1.00  0.00     0.113 C 
HETATM    4  N1  UNL     1      23.825   2.839  51.065  1.00  0.00    -0.362 N 
HETATM    5  C11 UNL     1      22.990   2.526  49.882  1.00  0.00     0.248 A 
HETATM    6  C12 UNL     1      23.053   2.930  48.481  1.00  0.00     0.382 A 
HETATM    7  S1  UNL     1      21.460   1.826  48.196  1.00  0.00     0.110 SA
HETATM    8  C13 UNL     1      21.242   1.223  49.880  1.00  0.00     0.278 A 
HETATM    9  N2  UNL     1      22.002   1.985  49.126  1.00  0.00     0.101 N 
HETATM   10  N3  UNL     1      20.846   0.601  50.909  1.00  0.00    -0.361 NA
HETATM   11  C14 UNL     1      20.676   0.141  52.057  1.00  0.00     0.292 C 
HETATM   12  H10 UNL     1      24.801   3.018  50.615  1.00  0.00     0.161 HD
ENDROOT
BRANCH   1  13
HETATM   13  O1  UNL     1      22.542  -0.302  53.213  1.00  0.00    -0.377 OA
BRANCH  13  14
HETATM   14  C7  UNL     1      23.051  -0.867  54.362  1.00  0.00     0.196 C 
BRANCH  14  15
HETATM   15  C6  UNL     1      24.553  -0.759  54.210  1.00  0.00    -0.000 C 
HETATM   16  C5  UNL     1      25.480  -0.241  53.409  1.00  0.00     0.009 C 
BRANCH  16  17
HETATM   17  C4  UNL     1      26.902  -0.402  53.684  1.00  0.00    -0.036 A 
HETATM   18  C3  UNL     1      27.407  -1.447  52.933  1.00  0.00     0.014 A 
HETATM   19  C2  UNL     1      28.777  -1.674  53.086  1.00  0.00     0.043 A 
HETATM   20  C1  UNL     1      29.531  -0.861  53.959  1.00  0.00     0.116 A 
HETATM   21  F1  UNL     1      30.857  -1.187  54.035  1.00  0.00    -0.206 F 
HETATM   22  C16 UNL     1      28.896   0.178  54.675  1.00  0.00     0.043 A 
HETATM   23  C15 UNL     1      27.556   0.409  54.531  1.00  0.00     0.014 A 
ENDBRANCH  16  17
ENDBRANCH  14  15
ENDBRANCH  13  14
ENDBRANCH   1  13
TORSDOF 4
ENDMDL
MODEL 6
REMARK VINA RESULT:      -7.5      4.524      6.305
REMARK  4 active torsions:
REMARK  status: ('A' for Active; 'I' for Inactive)
REMARK    1  A    between atoms: C4_5  and  C5_6 
REMARK    2  A    between atoms: C6_7  and  C7_8 
REMARK    3  A    between atoms: C7_8  and  O1_9 
REMARK    4  A    between atoms: O1_9  and  C8_10 
ROOT
HETATM    1  C8  UNL     1      22.654   4.249  50.369  1.00  0.00     0.168 C 
HETATM    2  C9  UNL     1      23.616   5.649  50.921  1.00  0.00     0.053 C 
HETATM    3  C10 UNL     1      22.954   6.743  51.171  1.00  0.00     0.113 C 
HETATM    4  N1  UNL     1      24.272   7.370  51.517  1.00  0.00    -0.362 N 
HETATM    5  C11 UNL     1      25.301   7.276  50.455  1.00  0.00     0.248 A 
HETATM    6  C12 UNL     1      26.444   8.109  50.097  1.00  0.00     0.382 A 
HETATM    7  S1  UNL     1      26.793   6.834  48.652  1.00  0.00     0.110 SA
HETATM    8  C13 UNL     1      25.434   5.692  48.962  1.00  0.00     0.278 A 
HETATM    9  N2  UNL     1      25.993   6.802  49.389  1.00  0.00     0.101 N 
HETATM   10  N3  UNL     1      24.644   4.703  48.936  1.00  0.00    -0.361 NA
HETATM   11  C14 UNL     1      23.731   3.875  49.135  1.00  0.00     0.292 C 
HETATM   12  H10 UNL     1      24.808   7.892  52.309  1.00  0.00     0.161 HD
ENDROOT
BRANCH   1  13
HETATM   13  O1  UNL     1      23.202   3.507  51.280  1.00  0.00    -0.377 OA
BRANCH  13  14
HETATM   14  C7  UNL     1      23.075   2.135  51.286  1.00  0.00     0.196 C 
BRANCH  14  15
HETATM   15  C6  UNL     1      24.431   1.626  51.724  1.00  0.00    -0.000 C 
HETATM   16  C5  UNL     1      25.723   1.938  51.669  1.00  0.00     0.009 C 
BRANCH  16  17
HETATM   17  C4  UNL     1      26.739   1.090  52.280  1.00  0.00    -0.036 A 
HETATM   18  C3  UNL     1      27.705   1.876  52.879  1.00  0.00     0.014 A 
HETATM   19  C2  UNL     1      28.717   1.170  53.533  1.00  0.00     0.043 A 
HETATM   20  C1  UNL     1      28.696  -0.241  53.543  1.00  0.00     0.116 A 
HETATM   21  F1  UNL     1      29.745  -0.820  54.204  1.00  0.00    -0.206 F 
HETATM   22  C16 UNL     1      27.651  -0.933  52.891  1.00  0.00     0.043 A 
HETATM   23  C15 UNL     1      26.655  -0.249  52.249  1.00  0.00     0.014 A 
ENDBRANCH  16  17
ENDBRANCH  14  15
ENDBRANCH  13  14
ENDBRANCH   1  13
TORSDOF 4
ENDMDL
MODEL 7
REMARK VINA RESULT:      -7.2      5.199      6.786
REMARK  4 active torsions:
REMARK  status: ('A' for Active; 'I' for Inactive)
REMARK    1  A    between atoms: C4_5  and  C5_6 
REMARK    2  A    between atoms: C6_7  and  C7_8 
REMARK    3  A    between atoms: C7_8  and  O1_9 
REMARK    4  A    between atoms: O1_9  and  C8_10 
ROOT
HETATM    1  C8  UNL     1      24.183   2.560  50.788  1.00  0.00     0.168 C 
HETATM    2  C9  UNL     1      25.490   2.411  51.995  1.00  0.00     0.053 C 
HETATM    3  C10 UNL     1      26.706   2.376  51.530  1.00  0.00     0.113 C 
HETATM    4  N1  UNL     1      27.165   2.243  52.951  1.00  0.00    -0.362 N 
HETATM    5  C11 UNL     1      26.556   1.116  53.696  1.00  0.00     0.248 A 
HETATM    6  C12 UNL     1      27.014   0.293  54.810  1.00  0.00     0.382 A 
HETATM    7  S1  UNL     1      25.304  -0.654  54.683  1.00  0.00     0.110 SA
HETATM    8  C13 UNL     1      24.582   0.271  53.315  1.00  0.00     0.278 A 
HETATM    9  N2  UNL     1      25.652   0.177  54.073  1.00  0.00     0.101 N 
HETATM   10  N3  UNL     1      23.794   0.731  52.438  1.00  0.00    -0.361 NA
HETATM   11  C14 UNL     1      23.249   1.365  51.510  1.00  0.00     0.292 C 
HETATM   12  H10 UNL     1      27.808   2.695  53.706  1.00  0.00     0.161 HD
ENDROOT
BRANCH   1  13
HETATM   13  O1  UNL     1      23.684   3.561  51.445  1.00  0.00    -0.377 OA
BRANCH  13  14
HETATM   14  C7  UNL     1      23.231   4.701  50.818  1.00  0.00     0.196 C 
BRANCH  14  15
HETATM   15  C6  UNL     1      24.428   5.214  50.046  1.00  0.00    -0.000 C 
HETATM   16  C5  UNL     1      24.758   6.107  49.116  1.00  0.00     0.009 C 
BRANCH  16  17
HETATM   17  C4  UNL     1      26.133   6.255  48.656  1.00  0.00    -0.036 A 
HETATM   18  C3  UNL     1      26.838   5.095  48.911  1.00  0.00     0.014 A 
HETATM   19  C2  UNL     1      28.167   5.106  48.478  1.00  0.00     0.043 A 
HETATM   20  C1  UNL     1      28.686   6.249  47.834  1.00  0.00     0.116 A 
HETATM   21  F1  UNL     1      30.000   6.146  47.467  1.00  0.00    -0.206 F 
HETATM   22  C16 UNL     1      27.861   7.378  47.632  1.00  0.00     0.043 A 
HETATM   23  C15 UNL     1      26.559   7.376  48.052  1.00  0.00     0.014 A 
ENDBRANCH  16  17
ENDBRANCH  14  15
ENDBRANCH  13  14
ENDBRANCH   1  13
TORSDOF 4
ENDMDL
MODEL 8
REMARK VINA RESULT:      -7.2      4.700      6.984
REMARK  4 active torsions:
REMARK  status: ('A' for Active; 'I' for Inactive)
REMARK    1  A    between atoms: C4_5  and  C5_6 
REMARK    2  A    between atoms: C6_7  and  C7_8 
REMARK    3  A    between atoms: C7_8  and  O1_9 
REMARK    4  A    between atoms: O1_9  and  C8_10 
ROOT
HETATM    1  C8  UNL     1      25.268   2.722  50.649  1.00  0.00     0.168 C 
HETATM    2  C9  UNL     1      24.485   4.198  51.281  1.00  0.00     0.053 C 
HETATM    3  C10 UNL     1      23.183   4.192  51.313  1.00  0.00     0.113 C 
HETATM    4  N1  UNL     1      23.268   5.582  51.870  1.00  0.00    -0.362 N 
HETATM    5  C11 UNL     1      24.048   6.534  51.044  1.00  0.00     0.248 A 
HETATM    6  C12 UNL     1      23.987   7.980  50.863  1.00  0.00     0.382 A 
HETATM    7  S1  UNL     1      25.483   7.785  49.612  1.00  0.00     0.110 SA
HETATM    8  C13 UNL     1      25.702   6.000  49.727  1.00  0.00     0.278 A 
HETATM    9  N2  UNL     1      24.979   7.002  50.175  1.00  0.00     0.101 N 
HETATM   10  N3  UNL     1      26.138   4.817  49.615  1.00  0.00    -0.361 NA
HETATM   11  C14 UNL     1      26.339   3.586  49.686  1.00  0.00     0.292 C 
HETATM   12  H10 UNL     1      22.968   6.204  52.713  1.00  0.00     0.161 HD
ENDROOT
BRANCH   1  13
HETATM   13  O1  UNL     1      26.022   2.665  51.703  1.00  0.00    -0.377 OA
BRANCH  13  14
HETATM   14  C7  UNL     1      26.379   1.470  52.289  1.00  0.00     0.196 C 
BRANCH  14  15
HETATM   15  C6  UNL     1      25.070   0.855  52.734  1.00  0.00    -0.000 C 
HETATM   16  C5  UNL     1      24.587  -0.097  53.527  1.00  0.00     0.009 C 
BRANCH  16  17
HETATM   17  C4  UNL     1      23.155  -0.339  53.645  1.00  0.00    -0.036 A 
HETATM   18  C3  UNL     1      22.487   0.313  52.626  1.00  0.00     0.014 A 
HETATM   19  C2  UNL     1      21.102   0.124  52.614  1.00  0.00     0.043 A 
HETATM   20  C1  UNL     1      20.495  -0.684  53.599  1.00  0.00     0.116 A 
HETATM   21  F1  UNL     1      19.135  -0.785  53.492  1.00  0.00    -0.206 F 
HETATM   22  C16 UNL     1      21.290  -1.298  54.593  1.00  0.00     0.043 A 
HETATM   23  C15 UNL     1      22.646  -1.119  54.611  1.00  0.00     0.014 A 
ENDBRANCH  16  17
ENDBRANCH  14  15
ENDBRANCH  13  14
ENDBRANCH   1  13
TORSDOF 4
ENDMDL
MODEL 9
REMARK VINA RESULT:      -7.2      2.892      4.513
REMARK  4 active torsions:
REMARK  status: ('A' for Active; 'I' for Inactive)
REMARK    1  A    between atoms: C4_5  and  C5_6 
REMARK    2  A    between atoms: C6_7  and  C7_8 
REMARK    3  A    between atoms: C7_8  and  O1_9 
REMARK    4  A    between atoms: O1_9  and  C8_10 
ROOT
HETATM    1  C8  UNL     1      21.946   1.999  52.377  1.00  0.00     0.168 C 
HETATM    2  C9  UNL     1      23.306   2.953  51.721  1.00  0.00     0.053 C 
HETATM    3  C10 UNL     1      23.802   3.867  52.505  1.00  0.00     0.113 C 
HETATM    4  N1  UNL     1      24.754   4.195  51.393  1.00  0.00    -0.362 N 
HETATM    5  C11 UNL     1      24.107   4.510  50.098  1.00  0.00     0.248 A 
HETATM    6  C12 UNL     1      24.497   5.343  48.965  1.00  0.00     0.382 A 
HETATM    7  S1  UNL     1      22.812   4.808  48.121  1.00  0.00     0.110 SA
HETATM    8  C13 UNL     1      22.184   3.733  49.424  1.00  0.00     0.278 A 
HETATM    9  N2  UNL     1      23.193   4.508  49.095  1.00  0.00     0.101 N 
HETATM   10  N3  UNL     1      21.502   2.907  50.098  1.00  0.00    -0.361 NA
HETATM   11  C14 UNL     1      21.045   2.135  50.966  1.00  0.00     0.292 C 
HETATM   12  H10 UNL     1      25.812   4.284  51.148  1.00  0.00     0.161 HD
ENDROOT
BRANCH   1  13
HETATM   13  O1  UNL     1      22.558   0.900  52.063  1.00  0.00    -0.377 OA
BRANCH  13  14
HETATM   14  C7  UNL     1      22.654  -0.165  52.932  1.00  0.00     0.196 C 
BRANCH  14  15
HETATM   15  C6  UNL     1      24.136  -0.313  53.196  1.00  0.00    -0.000 C 
HETATM   16  C5  UNL     1      24.999  -0.511  54.189  1.00  0.00     0.009 C 
BRANCH  16  17
HETATM   17  C4  UNL     1      26.434  -0.592  53.948  1.00  0.00    -0.036 A 
HETATM   18  C3  UNL     1      27.104   0.222  54.841  1.00  0.00     0.014 A 
HETATM   19  C2  UNL     1      28.496   0.198  54.730  1.00  0.00     0.043 A 
HETATM   20  C1  UNL     1      29.110  -0.618  53.755  1.00  0.00     0.116 A 
HETATM   21  F1  UNL     1      30.476  -0.548  53.734  1.00  0.00    -0.206 F 
HETATM   22  C16 UNL     1      28.312  -1.407  52.897  1.00  0.00     0.043 A 
HETATM   23  C15 UNL     1      26.948  -1.391  53.000  1.00  0.00     0.014 A 
ENDBRANCH  16  17
ENDBRANCH  14  15
ENDBRANCH  13  14
ENDBRANCH   1  13
TORSDOF 4
ENDMDL
