MODEL 1
REMARK VINA RESULT:      -7.8      0.000      0.000
REMARK  6 active torsions:
REMARK  status: ('A' for Active; 'I' for Inactive)
REMARK    1  A    between atoms: O1_2  and  C2_3 
REMARK    2  A    between atoms: C6_9  and  S1_10 
REMARK    3  A    between atoms: S1_10  and  C7_11 
REMARK    4  A    between atoms: C15_20  and  O2_21 
REMARK    5  A    between atoms: O2_21  and  C16_22 
REMARK    6  A    between atoms: C16_22  and  N3_23 
ROOT
HETATM    1  C2  UNL     1      19.942  -0.334  52.837  1.00  0.00     0.103 A 
HETATM    2  C3  UNL     1      20.440  -0.972  53.954  1.00  0.00     0.072 A 
HETATM    3  C4  UNL     1      21.777  -0.876  54.155  1.00  0.00     0.074 A 
HETATM    4  N1  UNL     1      22.259  -1.511  55.261  1.00  0.00    -0.241 NA
HETATM    5  C5  UNL     1      23.583  -1.456  55.522  1.00  0.00     0.234 A 
HETATM    6  N2  UNL     1      24.491  -0.817  54.772  1.00  0.00    -0.234 NA
HETATM    7  C6  UNL     1      24.074  -0.176  53.671  1.00  0.00     0.112 A 
HETATM    8  C13 UNL     1      22.711  -0.217  53.380  1.00  0.00     0.031 A 
HETATM    9  C14 UNL     1      22.134   0.403  52.270  1.00  0.00     0.056 A 
HETATM   10  C15 UNL     1      20.786   0.355  51.992  1.00  0.00     0.105 A 
ENDROOT
BRANCH   7  11
HETATM   11  S1  UNL     1      25.005   0.746  52.489  1.00  0.00    -0.070 SA
BRANCH  11  12
HETATM   12  C7  UNL     1      26.693   0.894  53.022  1.00  0.00     0.008 A 
HETATM   13  C8  UNL     1      27.446   1.967  53.437  1.00  0.00     0.019 A 
HETATM   14  C9  UNL     1      28.761   1.801  53.803  1.00  0.00     0.003 A 
HETATM   15  C10 UNL     1      29.399   0.565  53.777  1.00  0.00     0.024 A 
HETATM   16  C11 UNL     1      28.644  -0.536  53.357  1.00  0.00     0.035 A 
HETATM   17 CL1  UNL     1      29.514  -2.033  53.355  1.00  0.00    -0.084 Cl
HETATM   18  C12 UNL     1      27.307  -0.345  52.989  1.00  0.00     0.042 A 
ENDBRANCH  11  12
ENDBRANCH   7  11
BRANCH  10  19
HETATM   19  O2  UNL     1      20.228   0.976  50.888  1.00  0.00    -0.319 OA
BRANCH  19  20
HETATM   20  C16 UNL     1      20.972   1.797  50.010  1.00  0.00     0.441 C 
BRANCH  20  21
HETATM   21  N3  UNL     1      20.582   1.461  48.656  1.00  0.00     0.101 N 
HETATM   22  H13 UNL     1      19.847   0.720  48.619  1.00  0.00     0.315 HD
HETATM   23  H14 UNL     1      20.335   2.305  48.097  1.00  0.00     0.315 HD
ENDBRANCH  20  21
ENDBRANCH  19  20
ENDBRANCH  10  19
BRANCH   1  24
HETATM   24  O1  UNL     1      18.583  -0.380  52.555  1.00  0.00    -0.353 OA
HETATM   25  C1  UNL     1      17.768  -1.308  53.248  1.00  0.00     0.210 C 
ENDBRANCH   1  24
TORSDOF 6
ENDMDL
MODEL 2
REMARK VINA RESULT:      -7.6      4.977      6.823
REMARK  6 active torsions:
REMARK  status: ('A' for Active; 'I' for Inactive)
REMARK    1  A    between atoms: O1_2  and  C2_3 
REMARK    2  A    between atoms: C6_9  and  S1_10 
REMARK    3  A    between atoms: S1_10  and  C7_11 
REMARK    4  A    between atoms: C15_20  and  O2_21 
REMARK    5  A    between atoms: O2_21  and  C16_22 
REMARK    6  A    between atoms: C16_22  and  N3_23 
ROOT
HETATM    1  C2  UNL     1      25.717   0.363  53.689  1.00  0.00     0.103 A 
HETATM    2  C3  UNL     1      24.535  -0.108  53.157  1.00  0.00     0.072 A 
HETATM    3  C4  UNL     1      23.661   0.828  52.714  1.00  0.00     0.074 A 
HETATM    4  N1  UNL     1      22.495   0.351  52.191  1.00  0.00    -0.241 NA
HETATM    5  C5  UNL     1      21.579   1.229  51.729  1.00  0.00     0.234 A 
HETATM    6  N2  UNL     1      21.714   2.562  51.738  1.00  0.00    -0.234 NA
HETATM    7  C6  UNL     1      22.840   3.087  52.242  1.00  0.00     0.112 A 
HETATM    8  C13 UNL     1      23.803   2.201  52.725  1.00  0.00     0.031 A 
HETATM    9  C14 UNL     1      25.021   2.602  53.276  1.00  0.00     0.056 A 
HETATM   10  C15 UNL     1      25.964   1.718  53.750  1.00  0.00     0.105 A 
ENDROOT
BRANCH   7  11
HETATM   11  S1  UNL     1      23.319   4.778  52.397  1.00  0.00    -0.070 SA
BRANCH  11  12
HETATM   12  C7  UNL     1      24.368   5.243  51.041  1.00  0.00     0.008 A 
HETATM   13  C8  UNL     1      24.984   4.515  50.050  1.00  0.00     0.019 A 
HETATM   14  C9  UNL     1      25.760   5.139  49.101  1.00  0.00     0.003 A 
HETATM   15  C10 UNL     1      25.967   6.515  49.085  1.00  0.00     0.024 A 
HETATM   16  C11 UNL     1      25.346   7.267  50.088  1.00  0.00     0.035 A 
HETATM   17 CL1  UNL     1      25.657   8.969  49.992  1.00  0.00    -0.084 Cl
HETATM   18  C12 UNL     1      24.560   6.613  51.043  1.00  0.00     0.042 A 
ENDBRANCH  11  12
ENDBRANCH   7  11
BRANCH  10  19
HETATM   19  O2  UNL     1      27.169   2.131  54.294  1.00  0.00    -0.319 OA
BRANCH  19  20
HETATM   20  C16 UNL     1      28.311   2.408  53.509  1.00  0.00     0.441 C 
BRANCH  20  21
HETATM   21  N3  UNL     1      29.477   2.238  54.351  1.00  0.00     0.101 N 
HETATM   22  H13 UNL     1      30.364   2.509  53.872  1.00  0.00     0.315 HD
HETATM   23  H14 UNL     1      29.361   2.697  55.280  1.00  0.00     0.315 HD
ENDBRANCH  20  21
ENDBRANCH  19  20
ENDBRANCH  10  19
BRANCH   1  24
HETATM   24  O1  UNL     1      26.670  -0.527  54.168  1.00  0.00    -0.353 OA
HETATM   25  C1  UNL     1      27.518  -1.189  53.247  1.00  0.00     0.210 C 
ENDBRANCH   1  24
TORSDOF 6
ENDMDL
MODEL 3
REMARK VINA RESULT:      -7.6      4.157      7.129
REMARK  6 active torsions:
REMARK  status: ('A' for Active; 'I' for Inactive)
REMARK    1  A    between atoms: O1_2  and  C2_3 
REMARK    2  A    between atoms: C6_9  and  S1_10 
REMARK    3  A    between atoms: S1_10  and  C7_11 
REMARK    4  A    between atoms: C15_20  and  O2_21 
REMARK    5  A    between atoms: O2_21  and  C16_22 
REMARK    6  A    between atoms: C16_22  and  N3_23 
ROOT
HETATM    1  C2  UNL     1      26.913  -0.195  53.770  1.00  0.00     0.103 A 
HETATM    2  C3  UNL     1      25.729  -0.815  54.112  1.00  0.00     0.072 A 
HETATM    3  C4  UNL     1      24.591  -0.178  53.744  1.00  0.00     0.074 A 
HETATM    4  N1  UNL     1      23.426  -0.798  54.088  1.00  0.00    -0.241 NA
HETATM    5  C5  UNL     1      22.253  -0.219  53.752  1.00  0.00     0.234 A 
HETATM    6  N2  UNL     1      22.126   0.942  53.094  1.00  0.00    -0.234 NA
HETATM    7  C6  UNL     1      23.239   1.596  52.732  1.00  0.00     0.112 A 
HETATM    8  C13 UNL     1      24.463   1.019  53.067  1.00  0.00     0.031 A 
HETATM    9  C14 UNL     1      25.700   1.585  52.756  1.00  0.00     0.056 A 
HETATM   10  C15 UNL     1      26.903   1.005  53.092  1.00  0.00     0.105 A 
ENDROOT
BRANCH   7  11
HETATM   11  S1  UNL     1      23.410   3.126  51.868  1.00  0.00    -0.070 SA
BRANCH  11  12
HETATM   12  C7  UNL     1      22.893   2.935  50.179  1.00  0.00     0.008 A 
HETATM   13  C8  UNL     1      22.418   1.858  49.469  1.00  0.00     0.019 A 
HETATM   14  C9  UNL     1      22.083   1.986  48.141  1.00  0.00     0.003 A 
HETATM   15  C10 UNL     1      22.201   3.187  47.448  1.00  0.00     0.024 A 
HETATM   16  C11 UNL     1      22.683   4.292  48.160  1.00  0.00     0.035 A 
HETATM   17 CL1  UNL     1      22.797   5.744  47.223  1.00  0.00    -0.084 Cl
HETATM   18  C12 UNL     1      23.017   4.140  49.511  1.00  0.00     0.042 A 
ENDBRANCH  11  12
ENDBRANCH   7  11
BRANCH  10  19
HETATM   19  O2  UNL     1      28.123   1.578  52.775  1.00  0.00    -0.319 OA
BRANCH  19  20
HETATM   20  C16 UNL     1      28.697   2.629  53.526  1.00  0.00     0.441 C 
BRANCH  20  21
HETATM   21  N3  UNL     1      29.474   2.035  54.594  1.00  0.00     0.101 N 
HETATM   22  H13 UNL     1      29.960   2.746  55.184  1.00  0.00     0.315 HD
HETATM   23  H14 UNL     1      28.916   1.355  55.154  1.00  0.00     0.315 HD
ENDBRANCH  20  21
ENDBRANCH  19  20
ENDBRANCH  10  19
BRANCH   1  24
HETATM   24  O1  UNL     1      28.128  -0.778  54.108  1.00  0.00    -0.353 OA
HETATM   25  C1  UNL     1      28.729  -1.688  53.205  1.00  0.00     0.210 C 
ENDBRANCH   1  24
TORSDOF 6
ENDMDL
MODEL 4
REMARK VINA RESULT:      -7.5      5.062      6.831
REMARK  6 active torsions:
REMARK  status: ('A' for Active; 'I' for Inactive)
REMARK    1  A    between atoms: O1_2  and  C2_3 
REMARK    2  A    between atoms: C6_9  and  S1_10 
REMARK    3  A    between atoms: S1_10  and  C7_11 
REMARK    4  A    between atoms: C15_20  and  O2_21 
REMARK    5  A    between atoms: O2_21  and  C16_22 
REMARK    6  A    between atoms: C16_22  and  N3_23 
ROOT
HETATM    1  C2  UNL     1      25.424  -0.158  53.514  1.00  0.00     0.103 A 
HETATM    2  C3  UNL     1      24.245   0.550  53.404  1.00  0.00     0.072 A 
HETATM    3  C4  UNL     1      24.217   1.528  52.466  1.00  0.00     0.074 A 
HETATM    4  N1  UNL     1      23.047   2.222  52.367  1.00  0.00    -0.241 NA
HETATM    5  C5  UNL     1      22.948   3.210  51.452  1.00  0.00     0.234 A 
HETATM    6  N2  UNL     1      23.923   3.582  50.610  1.00  0.00    -0.234 NA
HETATM    7  C6  UNL     1      25.095   2.934  50.664  1.00  0.00     0.112 A 
HETATM    8  C13 UNL     1      25.222   1.909  51.600  1.00  0.00     0.031 A 
HETATM    9  C14 UNL     1      26.382   1.150  51.769  1.00  0.00     0.056 A 
HETATM   10  C15 UNL     1      26.495   0.139  52.697  1.00  0.00     0.105 A 
ENDROOT
BRANCH   7  11
HETATM   11  S1  UNL     1      26.557   3.179  49.706  1.00  0.00    -0.070 SA
BRANCH  11  12
HETATM   12  C7  UNL     1      26.589   4.831  49.052  1.00  0.00     0.008 A 
HETATM   13  C8  UNL     1      25.625   5.805  48.940  1.00  0.00     0.019 A 
HETATM   14  C9  UNL     1      25.924   7.025  48.381  1.00  0.00     0.003 A 
HETATM   15  C10 UNL     1      27.191   7.345  47.904  1.00  0.00     0.024 A 
HETATM   16  C11 UNL     1      28.182   6.362  48.012  1.00  0.00     0.035 A 
HETATM   17 CL1  UNL     1      29.727   6.842  47.395  1.00  0.00    -0.084 Cl
HETATM   18  C12 UNL     1      27.857   5.127  48.585  1.00  0.00     0.042 A 
ENDBRANCH  11  12
ENDBRANCH   7  11
BRANCH  10  19
HETATM   19  O2  UNL     1      27.651  -0.606  52.853  1.00  0.00    -0.319 OA
BRANCH  19  20
HETATM   20  C16 UNL     1      28.786  -0.130  53.548  1.00  0.00     0.441 C 
BRANCH  20  21
HETATM   21  N3  UNL     1      28.504  -0.217  54.965  1.00  0.00     0.101 N 
HETATM   22  H13 UNL     1      27.656  -0.789  55.174  1.00  0.00     0.315 HD
HETATM   23  H14 UNL     1      29.339  -0.513  55.515  1.00  0.00     0.315 HD
ENDBRANCH  20  21
ENDBRANCH  19  20
ENDBRANCH  10  19
BRANCH   1  24
HETATM   24  O1  UNL     1      25.541  -1.177  54.449  1.00  0.00    -0.353 OA
HETATM   25  C1  UNL     1      24.708  -1.160  55.594  1.00  0.00     0.210 C 
ENDBRANCH   1  24
TORSDOF 6
ENDMDL
MODEL 5
REMARK VINA RESULT:      -7.4      2.462      2.856
REMARK  6 active torsions:
REMARK  status: ('A' for Active; 'I' for Inactive)
REMARK    1  A    between atoms: O1_2  and  C2_3 
REMARK    2  A    between atoms: C6_9  and  S1_10 
REMARK    3  A    between atoms: S1_10  and  C7_11 
REMARK    4  A    between atoms: C15_20  and  O2_21 
REMARK    5  A    between atoms: O2_21  and  C16_22 
REMARK    6  A    between atoms: C16_22  and  N3_23 
ROOT
HETATM    1  C2  UNL     1      20.686   3.047  52.207  1.00  0.00     0.103 A 
HETATM    2  C3  UNL     1      20.674   1.832  52.860  1.00  0.00     0.072 A 
HETATM    3  C4  UNL     1      21.859   1.179  52.934  1.00  0.00     0.074 A 
HETATM    4  N1  UNL     1      21.836  -0.021  53.581  1.00  0.00    -0.241 NA
HETATM    5  C5  UNL     1      22.983  -0.726  53.693  1.00  0.00     0.234 A 
HETATM    6  N2  UNL     1      24.173  -0.343  53.212  1.00  0.00    -0.234 NA
HETATM    7  C6  UNL     1      24.255   0.829  52.566  1.00  0.00     0.112 A 
HETATM    8  C13 UNL     1      23.085   1.576  52.438  1.00  0.00     0.031 A 
HETATM    9  C14 UNL     1      23.019   2.812  51.792  1.00  0.00     0.056 A 
HETATM   10  C15 UNL     1      21.857   3.541  51.671  1.00  0.00     0.105 A 
ENDROOT
BRANCH   7  11
HETATM   11  S1  UNL     1      25.656   1.606  51.826  1.00  0.00    -0.070 SA
BRANCH  11  12
HETATM   12  C7  UNL     1      27.128   1.208  52.737  1.00  0.00     0.008 A 
HETATM   13  C8  UNL     1      27.990   1.971  53.490  1.00  0.00     0.019 A 
HETATM   14  C9  UNL     1      29.079   1.398  54.103  1.00  0.00     0.003 A 
HETATM   15  C10 UNL     1      29.373   0.042  54.002  1.00  0.00     0.024 A 
HETATM   16  C11 UNL     1      28.504  -0.746  53.238  1.00  0.00     0.035 A 
HETATM   17 CL1  UNL     1      28.943  -2.419  53.166  1.00  0.00    -0.084 Cl
HETATM   18  C12 UNL     1      27.400  -0.143  52.623  1.00  0.00     0.042 A 
ENDBRANCH  11  12
ENDBRANCH   7  11
BRANCH  10  19
HETATM   19  O2  UNL     1      21.807   4.766  51.029  1.00  0.00    -0.319 OA
BRANCH  19  20
HETATM   20  C16 UNL     1      22.855   5.712  51.094  1.00  0.00     0.441 C 
BRANCH  20  21
HETATM   21  N3  UNL     1      22.267   7.001  51.394  1.00  0.00     0.101 N 
HETATM   22  H13 UNL     1      22.108   7.145  52.416  1.00  0.00     0.315 HD
HETATM   23  H14 UNL     1      22.793   7.786  50.952  1.00  0.00     0.315 HD
ENDBRANCH  20  21
ENDBRANCH  19  20
ENDBRANCH  10  19
BRANCH   1  24
HETATM   24  O1  UNL     1      19.516   3.784  52.084  1.00  0.00    -0.353 OA
HETATM   25  C1  UNL     1      18.367   3.166  51.532  1.00  0.00     0.210 C 
ENDBRANCH   1  24
TORSDOF 6
ENDMDL
MODEL 6
REMARK VINA RESULT:      -7.4      4.266      7.887
REMARK  6 active torsions:
REMARK  status: ('A' for Active; 'I' for Inactive)
REMARK    1  A    between atoms: O1_2  and  C2_3 
REMARK    2  A    between atoms: C6_9  and  S1_10 
REMARK    3  A    between atoms: S1_10  and  C7_11 
REMARK    4  A    between atoms: C15_20  and  O2_21 
REMARK    5  A    between atoms: O2_21  and  C16_22 
REMARK    6  A    between atoms: C16_22  and  N3_23 
ROOT
HETATM    1  C2  UNL     1      26.980   0.707  53.505  1.00  0.00     0.103 A 
HETATM    2  C3  UNL     1      26.510   1.991  53.324  1.00  0.00     0.072 A 
HETATM    3  C4  UNL     1      25.187   2.114  53.057  1.00  0.00     0.074 A 
HETATM    4  N1  UNL     1      24.734   3.388  52.878  1.00  0.00    -0.241 NA
HETATM    5  C5  UNL     1      23.424   3.584  52.609  1.00  0.00     0.234 A 
HETATM    6  N2  UNL     1      22.506   2.614  52.499  1.00  0.00    -0.234 NA
HETATM    7  C6  UNL     1      22.896   1.342  52.664  1.00  0.00     0.112 A 
HETATM    8  C13 UNL     1      24.243   1.113  52.943  1.00  0.00     0.031 A 
HETATM    9  C14 UNL     1      24.791  -0.156  53.139  1.00  0.00     0.056 A 
HETATM   10  C15 UNL     1      26.124  -0.370  53.414  1.00  0.00     0.105 A 
ENDROOT
BRANCH   7  11
HETATM   11  S1  UNL     1      21.946  -0.143  52.583  1.00  0.00    -0.070 SA
BRANCH  11  12
HETATM   12  C7  UNL     1      20.414   0.158  51.734  1.00  0.00     0.008 A 
HETATM   13  C8  UNL     1      20.117   0.790  50.549  1.00  0.00     0.019 A 
HETATM   14  C9  UNL     1      18.817   0.884  50.112  1.00  0.00     0.003 A 
HETATM   15  C10 UNL     1      17.744   0.358  50.824  1.00  0.00     0.024 A 
HETATM   16  C11 UNL     1      18.033  -0.288  52.031  1.00  0.00     0.035 A 
HETATM   17 CL1  UNL     1      16.641  -0.912  52.852  1.00  0.00    -0.084 Cl
HETATM   18  C12 UNL     1      19.363  -0.374  52.458  1.00  0.00     0.042 A 
ENDBRANCH  11  12
ENDBRANCH   7  11
BRANCH  10  19
HETATM   19  O2  UNL     1      26.653  -1.634  53.607  1.00  0.00    -0.319 OA
BRANCH  19  20
HETATM   20  C16 UNL     1      27.195  -2.410  52.557  1.00  0.00     0.441 C 
BRANCH  20  21
HETATM   21  N3  UNL     1      28.323  -3.146  53.089  1.00  0.00     0.101 N 
HETATM   22  H13 UNL     1      29.225  -2.631  52.989  1.00  0.00     0.315 HD
HETATM   23  H14 UNL     1      28.152  -3.479  54.063  1.00  0.00     0.315 HD
ENDBRANCH  20  21
ENDBRANCH  19  20
ENDBRANCH  10  19
BRANCH   1  24
HETATM   24  O1  UNL     1      28.323   0.488  53.783  1.00  0.00    -0.353 OA
HETATM   25  C1  UNL     1      29.133   1.583  54.171  1.00  0.00     0.210 C 
ENDBRANCH   1  24
TORSDOF 6
ENDMDL
MODEL 7
REMARK VINA RESULT:      -7.4      4.578      5.727
REMARK  6 active torsions:
REMARK  status: ('A' for Active; 'I' for Inactive)
REMARK    1  A    between atoms: O1_2  and  C2_3 
REMARK    2  A    between atoms: C6_9  and  S1_10 
REMARK    3  A    between atoms: S1_10  and  C7_11 
REMARK    4  A    between atoms: C15_20  and  O2_21 
REMARK    5  A    between atoms: O2_21  and  C16_22 
REMARK    6  A    between atoms: C16_22  and  N3_23 
ROOT
HETATM    1  C2  UNL     1      23.513  -0.294  53.549  1.00  0.00     0.103 A 
HETATM    2  C3  UNL     1      24.855  -0.167  53.841  1.00  0.00     0.072 A 
HETATM    3  C4  UNL     1      25.548   0.731  53.098  1.00  0.00     0.074 A 
HETATM    4  N1  UNL     1      26.874   0.848  53.394  1.00  0.00    -0.241 NA
HETATM    5  C5  UNL     1      27.625   1.725  52.694  1.00  0.00     0.234 A 
HETATM    6  N2  UNL     1      27.174   2.511  51.707  1.00  0.00    -0.234 NA
HETATM    7  C6  UNL     1      25.878   2.437  51.373  1.00  0.00     0.112 A 
HETATM    8  C13 UNL     1      25.080   1.540  52.082  1.00  0.00     0.031 A 
HETATM    9  C14 UNL     1      23.717   1.355  51.844  1.00  0.00     0.056 A 
HETATM   10  C15 UNL     1      22.940   0.466  52.551  1.00  0.00     0.105 A 
ENDROOT
BRANCH   7  11
HETATM   11  S1  UNL     1      24.986   3.325  50.136  1.00  0.00    -0.070 SA
BRANCH  11  12
HETATM   12  C7  UNL     1      26.042   4.528  49.365  1.00  0.00     0.008 A 
HETATM   13  C8  UNL     1      27.351   4.482  48.945  1.00  0.00     0.019 A 
HETATM   14  C9  UNL     1      27.940   5.580  48.366  1.00  0.00     0.003 A 
HETATM   15  C10 UNL     1      27.265   6.781  48.171  1.00  0.00     0.024 A 
HETATM   16  C11 UNL     1      25.932   6.841  48.592  1.00  0.00     0.035 A 
HETATM   17 CL1  UNL     1      25.168   8.370  48.312  1.00  0.00    -0.084 Cl
HETATM   18  C12 UNL     1      25.351   5.711  49.180  1.00  0.00     0.042 A 
ENDBRANCH  11  12
ENDBRANCH   7  11
BRANCH  10  19
HETATM   19  O2  UNL     1      21.588   0.294  52.305  1.00  0.00    -0.319 OA
BRANCH  19  20
HETATM   20  C16 UNL     1      20.581   0.902  53.088  1.00  0.00     0.441 C 
BRANCH  20  21
HETATM   21  N3  UNL     1      19.939  -0.137  53.866  1.00  0.00     0.101 N 
HETATM   22  H13 UNL     1      20.480  -1.030  53.872  1.00  0.00     0.315 HD
HETATM   23  H14 UNL     1      19.684   0.189  54.823  1.00  0.00     0.315 HD
ENDBRANCH  20  21
ENDBRANCH  19  20
ENDBRANCH  10  19
BRANCH   1  24
HETATM   24  O1  UNL     1      22.726  -1.191  54.260  1.00  0.00    -0.353 OA
HETATM   25  C1  UNL     1      23.093  -1.527  55.586  1.00  0.00     0.210 C 
ENDBRANCH   1  24
TORSDOF 6
ENDMDL
MODEL 8
REMARK VINA RESULT:      -7.2      3.748      5.956
REMARK  6 active torsions:
REMARK  status: ('A' for Active; 'I' for Inactive)
REMARK    1  A    between atoms: O1_2  and  C2_3 
REMARK    2  A    between atoms: C6_9  and  S1_10 
REMARK    3  A    between atoms: S1_10  and  C7_11 
REMARK    4  A    between atoms: C15_20  and  O2_21 
REMARK    5  A    between atoms: O2_21  and  C16_22 
REMARK    6  A    between atoms: C16_22  and  N3_23 
ROOT
HETATM    1  C2  UNL     1      25.959  -0.477  53.783  1.00  0.00     0.103 A 
HETATM    2  C3  UNL     1      24.963  -0.919  54.629  1.00  0.00     0.072 A 
HETATM    3  C4  UNL     1      23.689  -0.680  54.232  1.00  0.00     0.074 A 
HETATM    4  N1  UNL     1      22.712  -1.120  55.076  1.00  0.00    -0.241 NA
HETATM    5  C5  UNL     1      21.419  -0.916  54.742  1.00  0.00     0.234 A 
HETATM    6  N2  UNL     1      20.998  -0.304  53.627  1.00  0.00    -0.234 NA
HETATM    7  C6  UNL     1      21.915   0.150  52.761  1.00  0.00     0.112 A 
HETATM    8  C13 UNL     1      23.257  -0.049  53.082  1.00  0.00     0.031 A 
HETATM    9  C14 UNL     1      24.319   0.369  52.278  1.00  0.00     0.056 A 
HETATM   10  C15 UNL     1      25.641   0.167  52.606  1.00  0.00     0.105 A 
ENDROOT
BRANCH   7  11
HETATM   11  S1  UNL     1      21.690   0.987  51.224  1.00  0.00    -0.070 SA
BRANCH  11  12
HETATM   12  C7  UNL     1      22.156   2.694  51.384  1.00  0.00     0.008 A 
HETATM   13  C8  UNL     1      21.746   3.694  52.235  1.00  0.00     0.019 A 
HETATM   14  C9  UNL     1      22.282   4.957  52.142  1.00  0.00     0.003 A 
HETATM   15  C10 UNL     1      23.252   5.295  51.203  1.00  0.00     0.024 A 
HETATM   16  C11 UNL     1      23.679   4.287  50.332  1.00  0.00     0.035 A 
HETATM   17 CL1  UNL     1      24.885   4.794  49.197  1.00  0.00    -0.084 Cl
HETATM   18  C12 UNL     1      23.120   3.008  50.443  1.00  0.00     0.042 A 
ENDBRANCH  11  12
ENDBRANCH   7  11
BRANCH  10  19
HETATM   19  O2  UNL     1      26.684   0.586  51.797  1.00  0.00    -0.319 OA
BRANCH  19  20
HETATM   20  C16 UNL     1      26.759   1.888  51.252  1.00  0.00     0.441 C 
BRANCH  20  21
HETATM   21  N3  UNL     1      27.242   2.775  52.290  1.00  0.00     0.101 N 
HETATM   22  H13 UNL     1      27.409   2.283  53.196  1.00  0.00     0.315 HD
HETATM   23  H14 UNL     1      28.062   3.337  51.976  1.00  0.00     0.315 HD
ENDBRANCH  20  21
ENDBRANCH  19  20
ENDBRANCH  10  19
BRANCH   1  24
HETATM   24  O1  UNL     1      27.293  -0.679  54.111  1.00  0.00    -0.353 OA
HETATM   25  C1  UNL     1      27.960   0.284  54.906  1.00  0.00     0.210 C 
ENDBRANCH   1  24
TORSDOF 6
ENDMDL
MODEL 9
REMARK VINA RESULT:      -7.2      3.762      6.339
REMARK  6 active torsions:
REMARK  status: ('A' for Active; 'I' for Inactive)
REMARK    1  A    between atoms: O1_2  and  C2_3 
REMARK    2  A    between atoms: C6_9  and  S1_10 
REMARK    3  A    between atoms: S1_10  and  C7_11 
REMARK    4  A    between atoms: C15_20  and  O2_21 
REMARK    5  A    between atoms: O2_21  and  C16_22 
REMARK    6  A    between atoms: C16_22  and  N3_23 
ROOT
HETATM    1  C2  UNL     1      25.735   0.296  53.457  1.00  0.00     0.103 A 
HETATM    2  C3  UNL     1      24.864  -0.633  53.986  1.00  0.00     0.072 A 
HETATM    3  C4  UNL     1      23.542  -0.373  53.833  1.00  0.00     0.074 A 
HETATM    4  N1  UNL     1      22.690  -1.297  54.361  1.00  0.00    -0.241 NA
HETATM    5  C5  UNL     1      21.359  -1.102  54.243  1.00  0.00     0.234 A 
HETATM    6  N2  UNL     1      20.784  -0.053  53.639  1.00  0.00    -0.234 NA
HETATM    7  C6  UNL     1      21.574   0.888  53.102  1.00  0.00     0.112 A 
HETATM    8  C13 UNL     1      22.952   0.709  53.210  1.00  0.00     0.031 A 
HETATM    9  C14 UNL     1      23.895   1.604  52.700  1.00  0.00     0.056 A 
HETATM   10  C15 UNL     1      25.254   1.416  52.812  1.00  0.00     0.105 A 
ENDROOT
BRANCH   7  11
HETATM   11  S1  UNL     1      21.135   2.369  52.250  1.00  0.00    -0.070 SA
BRANCH  11  12
HETATM   12  C7  UNL     1      21.507   2.213  50.520  1.00  0.00     0.008 A 
HETATM   13  C8  UNL     1      21.345   1.182  49.624  1.00  0.00     0.019 A 
HETATM   14  C9  UNL     1      21.726   1.328  48.311  1.00  0.00     0.003 A 
HETATM   15  C10 UNL     1      22.288   2.502  47.817  1.00  0.00     0.024 A 
HETATM   16  C11 UNL     1      22.458   3.559  48.718  1.00  0.00     0.035 A 
HETATM   17 CL1  UNL     1      23.162   4.979  48.020  1.00  0.00    -0.084 Cl
HETATM   18  C12 UNL     1      22.063   3.389  50.050  1.00  0.00     0.042 A 
ENDBRANCH  11  12
ENDBRANCH   7  11
BRANCH  10  19
HETATM   19  O2  UNL     1      26.177   2.312  52.300  1.00  0.00    -0.319 OA
BRANCH  19  20
HETATM   20  C16 UNL     1      26.365   2.514  50.914  1.00  0.00     0.441 C 
BRANCH  20  21
HETATM   21  N3  UNL     1      26.241   3.934  50.655  1.00  0.00     0.101 N 
HETATM   22  H13 UNL     1      26.785   4.241  49.818  1.00  0.00     0.315 HD
HETATM   23  H14 UNL     1      25.245   4.243  50.627  1.00  0.00     0.315 HD
ENDBRANCH  20  21
ENDBRANCH  19  20
ENDBRANCH  10  19
BRANCH   1  24
HETATM   24  O1  UNL     1      27.106   0.109  53.569  1.00  0.00    -0.353 OA
HETATM   25  C1  UNL     1      27.704   0.146  54.852  1.00  0.00     0.210 C 
ENDBRANCH   1  24
TORSDOF 6
ENDMDL
