MODEL 1
REMARK VINA RESULT:      -7.9      0.000      0.000
REMARK  6 active torsions:
REMARK  status: ('A' for Active; 'I' for Inactive)
REMARK    1  A    between atoms: O1_2  and  C2_3 
REMARK    2  A    between atoms: C6_7  and  N1_8 
REMARK    3  A    between atoms: N1_8  and  C7_9 
REMARK    4  A    between atoms: C10_13  and  N3_14 
REMARK    5  A    between atoms: N3_14  and  C11_15 
REMARK    6  A    between atoms: C15_19  and  O2_20 
ROOT
HETATM    1  C7  UNL     1      23.214   2.559  51.616  1.00  0.00     0.148 A 
HETATM    2  C8  UNL     1      23.104   2.822  50.273  1.00  0.00     0.071 A 
HETATM    3  C9  UNL     1      24.126   3.104  49.395  1.00  0.00     0.140 A 
HETATM    4  N2  UNL     1      25.358   3.117  49.952  1.00  0.00    -0.075 NA
HETATM    5  C10 UNL     1      25.536   2.868  51.269  1.00  0.00     0.728 A 
HETATM    6  N4  UNL     1      24.479   2.603  52.039  1.00  0.00    -0.045 NA
ENDROOT
BRANCH   1   7
HETATM    7  N1  UNL     1      22.193   2.253  52.531  1.00  0.00    -0.340 N 
HETATM    8  H7  UNL     1      21.712   3.088  52.978  1.00  0.00     0.167 HD
BRANCH   7   9
HETATM    9  C6  UNL     1      21.634   1.059  53.030  1.00  0.00     0.036 A 
HETATM   10  C5  UNL     1      20.390   0.572  52.701  1.00  0.00     0.029 A 
HETATM   11  C4  UNL     1      19.850  -0.601  53.241  1.00  0.00     0.005 A 
HETATM   12  C3  UNL     1      20.602  -1.302  54.144  1.00  0.00     0.037 A 
HETATM   13  C2  UNL     1      21.845  -0.871  54.510  1.00  0.00     0.070 A 
HETATM   14  C18 UNL     1      22.312   0.284  53.944  1.00  0.00     0.066 A 
BRANCH  13  15
HETATM   15  O1  UNL     1      22.525  -1.651  55.428  1.00  0.00    -0.356 OA
HETATM   16  C1  UNL     1      23.897  -1.383  55.644  1.00  0.00     0.210 C 
ENDBRANCH  13  15
ENDBRANCH   7   9
ENDBRANCH   1   7
BRANCH   5  17
HETATM   17  N3  UNL     1      26.878   2.904  51.728  1.00  0.00    -0.188 N 
HETATM   18  H10 UNL     1      27.392   3.745  51.384  1.00  0.00     0.184 HD
BRANCH  17  19
HETATM   19  C11 UNL     1      27.465   1.915  52.563  1.00  0.00     0.052 A 
HETATM   20  C12 UNL     1      28.384   2.301  53.512  1.00  0.00     0.030 A 
HETATM   21  C13 UNL     1      28.972   1.329  54.320  1.00  0.00     0.005 A 
HETATM   22  C14 UNL     1      28.592   0.019  54.113  1.00  0.00     0.037 A 
HETATM   23  C15 UNL     1      27.658  -0.368  53.147  1.00  0.00     0.070 A 
HETATM   24  C17 UNL     1      27.088   0.603  52.362  1.00  0.00     0.066 A 
BRANCH  23  25
HETATM   25  O2  UNL     1      27.430  -1.735  53.118  1.00  0.00    -0.356 OA
HETATM   26  C16 UNL     1      28.531  -2.639  52.988  1.00  0.00     0.210 C 
ENDBRANCH  23  25
ENDBRANCH  17  19
ENDBRANCH   5  17
TORSDOF 6
ENDMDL
MODEL 2
REMARK VINA RESULT:      -7.8      1.092      6.133
REMARK  6 active torsions:
REMARK  status: ('A' for Active; 'I' for Inactive)
REMARK    1  A    between atoms: O1_2  and  C2_3 
REMARK    2  A    between atoms: C6_7  and  N1_8 
REMARK    3  A    between atoms: N1_8  and  C7_9 
REMARK    4  A    between atoms: C10_13  and  N3_14 
REMARK    5  A    between atoms: N3_14  and  C11_15 
REMARK    6  A    between atoms: C15_19  and  O2_20 
ROOT
HETATM    1  C7  UNL     1      25.173   2.930  51.488  1.00  0.00     0.148 A 
HETATM    2  C8  UNL     1      24.480   4.113  51.549  1.00  0.00     0.071 A 
HETATM    3  C9  UNL     1      23.124   4.291  51.395  1.00  0.00     0.140 A 
HETATM    4  N2  UNL     1      22.432   3.154  51.159  1.00  0.00    -0.075 NA
HETATM    5  C10 UNL     1      23.053   1.955  51.085  1.00  0.00     0.728 A 
HETATM    6  N4  UNL     1      24.376   1.886  51.250  1.00  0.00    -0.045 NA
ENDROOT
BRANCH   1   7
HETATM    7  N1  UNL     1      26.552   2.717  51.657  1.00  0.00    -0.340 N 
HETATM    8  H7  UNL     1      27.184   3.260  50.997  1.00  0.00     0.167 HD
BRANCH   7   9
HETATM    9  C6  UNL     1      27.334   1.919  52.515  1.00  0.00     0.036 A 
HETATM   10  C5  UNL     1      28.241   2.400  53.432  1.00  0.00     0.029 A 
HETATM   11  C4  UNL     1      29.027   1.579  54.248  1.00  0.00     0.005 A 
HETATM   12  C3  UNL     1      28.886   0.222  54.126  1.00  0.00     0.037 A 
HETATM   13  C2  UNL     1      28.002  -0.316  53.235  1.00  0.00     0.070 A 
HETATM   14  C18 UNL     1      27.264   0.545  52.469  1.00  0.00     0.066 A 
BRANCH  13  15
HETATM   15  O1  UNL     1      27.932  -1.697  53.191  1.00  0.00    -0.356 OA
HETATM   16  C1  UNL     1      26.872  -2.288  52.465  1.00  0.00     0.210 C 
ENDBRANCH  13  15
ENDBRANCH   7   9
ENDBRANCH   1   7
BRANCH   5  17
HETATM   17  N3  UNL     1      22.214   0.838  50.840  1.00  0.00    -0.188 N 
HETATM   18  H10 UNL     1      22.274   0.507  49.851  1.00  0.00     0.184 HD
BRANCH  17  19
HETATM   19  C11 UNL     1      21.384   0.230  51.820  1.00  0.00     0.052 A 
HETATM   20  C12 UNL     1      20.017   0.337  51.697  1.00  0.00     0.030 A 
HETATM   21  C13 UNL     1      19.203  -0.246  52.668  1.00  0.00     0.005 A 
HETATM   22  C14 UNL     1      19.828  -0.901  53.708  1.00  0.00     0.037 A 
HETATM   23  C15 UNL     1      21.217  -1.006  53.829  1.00  0.00     0.070 A 
HETATM   24  C17 UNL     1      22.002  -0.428  52.862  1.00  0.00     0.066 A 
BRANCH  23  25
HETATM   25  O2  UNL     1      21.621  -1.709  54.952  1.00  0.00    -0.356 OA
HETATM   26  C16 UNL     1      22.933  -1.508  55.486  1.00  0.00     0.210 C 
ENDBRANCH  23  25
ENDBRANCH  17  19
ENDBRANCH   5  17
TORSDOF 6
ENDMDL
MODEL 3
REMARK VINA RESULT:      -7.8      1.236      6.190
REMARK  6 active torsions:
REMARK  status: ('A' for Active; 'I' for Inactive)
REMARK    1  A    between atoms: O1_2  and  C2_3 
REMARK    2  A    between atoms: C6_7  and  N1_8 
REMARK    3  A    between atoms: N1_8  and  C7_9 
REMARK    4  A    between atoms: C10_13  and  N3_14 
REMARK    5  A    between atoms: N3_14  and  C11_15 
REMARK    6  A    between atoms: C15_19  and  O2_20 
ROOT
HETATM    1  C7  UNL     1      25.679   2.947  51.171  1.00  0.00     0.148 A 
HETATM    2  C8  UNL     1      25.320   3.221  49.875  1.00  0.00     0.071 A 
HETATM    3  C9  UNL     1      24.045   3.282  49.361  1.00  0.00     0.140 A 
HETATM    4  N2  UNL     1      23.064   3.039  50.260  1.00  0.00    -0.075 NA
HETATM    5  C10 UNL     1      23.349   2.761  51.552  1.00  0.00     0.728 A 
HETATM    6  N4  UNL     1      24.621   2.725  51.955  1.00  0.00    -0.045 NA
ENDROOT
BRANCH   1   7
HETATM    7  N1  UNL     1      26.969   2.893  51.726  1.00  0.00    -0.340 N 
HETATM    8  H7  UNL     1      27.632   3.664  51.419  1.00  0.00     0.167 HD
BRANCH   7   9
HETATM    9  C6  UNL     1      27.629   2.026  52.619  1.00  0.00     0.036 A 
HETATM   10  C5  UNL     1      28.527   2.420  53.585  1.00  0.00     0.029 A 
HETATM   11  C4  UNL     1      29.191   1.528  54.434  1.00  0.00     0.005 A 
HETATM   12  C3  UNL     1      28.933   0.191  54.297  1.00  0.00     0.037 A 
HETATM   13  C2  UNL     1      28.051  -0.263  53.358  1.00  0.00     0.070 A 
HETATM   14  C18 UNL     1      27.436   0.663  52.560  1.00  0.00     0.066 A 
BRANCH  13  15
HETATM   15  O1  UNL     1      27.858  -1.631  53.301  1.00  0.00    -0.356 OA
HETATM   16  C1  UNL     1      26.829  -2.125  52.467  1.00  0.00     0.210 C 
ENDBRANCH  13  15
ENDBRANCH   7   9
ENDBRANCH   1   7
BRANCH   5  17
HETATM   17  N3  UNL     1      22.232   2.532  52.396  1.00  0.00    -0.188 N 
HETATM   18  H10 UNL     1      21.702   3.410  52.598  1.00  0.00     0.184 HD
BRANCH  17  19
HETATM   19  C11 UNL     1      21.866   1.260  52.913  1.00  0.00     0.052 A 
HETATM   20  C12 UNL     1      22.853   0.417  53.373  1.00  0.00     0.030 A 
HETATM   21  C13 UNL     1      22.495  -0.839  53.864  1.00  0.00     0.005 A 
HETATM   22  C14 UNL     1      21.155  -1.163  53.857  1.00  0.00     0.037 A 
HETATM   23  C15 UNL     1      20.157  -0.303  53.388  1.00  0.00     0.070 A 
HETATM   24  C17 UNL     1      20.527   0.929  52.910  1.00  0.00     0.066 A 
BRANCH  23  25
HETATM   25  O2  UNL     1      18.881  -0.838  53.477  1.00  0.00    -0.356 OA
HETATM   26  C16 UNL     1      17.995  -0.759  52.357  1.00  0.00     0.210 C 
ENDBRANCH  23  25
ENDBRANCH  17  19
ENDBRANCH   5  17
TORSDOF 6
ENDMDL
MODEL 4
REMARK VINA RESULT:      -7.7      2.636      5.087
REMARK  6 active torsions:
REMARK  status: ('A' for Active; 'I' for Inactive)
REMARK    1  A    between atoms: O1_2  and  C2_3 
REMARK    2  A    between atoms: C6_7  and  N1_8 
REMARK    3  A    between atoms: N1_8  and  C7_9 
REMARK    4  A    between atoms: C10_13  and  N3_14 
REMARK    5  A    between atoms: N3_14  and  C11_15 
REMARK    6  A    between atoms: C15_19  and  O2_20 
ROOT
HETATM    1  C7  UNL     1      21.495   0.309  53.075  1.00  0.00     0.148 A 
HETATM    2  C8  UNL     1      20.589  -0.607  53.549  1.00  0.00     0.071 A 
HETATM    3  C9  UNL     1      20.828  -1.626  54.441  1.00  0.00     0.140 A 
HETATM    4  N2  UNL     1      22.105  -1.705  54.876  1.00  0.00    -0.075 NA
HETATM    5  C10 UNL     1      23.048  -0.835  54.448  1.00  0.00     0.728 A 
HETATM    6  N4  UNL     1      22.717   0.123  53.580  1.00  0.00    -0.045 NA
ENDROOT
BRANCH   1   7
HETATM    7  N1  UNL     1      21.277   1.369  52.178  1.00  0.00    -0.340 N 
HETATM    8  H7  UNL     1      20.656   2.153  52.537  1.00  0.00     0.167 HD
BRANCH   7   9
HETATM    9  C6  UNL     1      21.687   1.653  50.860  1.00  0.00     0.036 A 
HETATM   10  C5  UNL     1      21.134   1.104  49.726  1.00  0.00     0.029 A 
HETATM   11  C4  UNL     1      21.588   1.381  48.431  1.00  0.00     0.005 A 
HETATM   12  C3  UNL     1      22.639   2.246  48.286  1.00  0.00     0.037 A 
HETATM   13  C2  UNL     1      23.230   2.824  49.374  1.00  0.00     0.070 A 
HETATM   14  C18 UNL     1      22.736   2.509  50.611  1.00  0.00     0.066 A 
BRANCH  13  15
HETATM   15  O1  UNL     1      24.283   3.685  49.122  1.00  0.00    -0.356 OA
HETATM   16  C1  UNL     1      24.651   4.602  50.133  1.00  0.00     0.210 C 
ENDBRANCH  13  15
ENDBRANCH   7   9
ENDBRANCH   1   7
BRANCH   5  17
HETATM   17  N3  UNL     1      24.348  -1.019  54.985  1.00  0.00    -0.188 N 
HETATM   18  H10 UNL     1      24.326  -1.438  55.942  1.00  0.00     0.184 HD
BRANCH  17  19
HETATM   19  C11 UNL     1      25.550  -0.678  54.308  1.00  0.00     0.052 A 
HETATM   20  C12 UNL     1      25.824  -1.270  53.096  1.00  0.00     0.030 A 
HETATM   21  C13 UNL     1      27.012  -0.948  52.439  1.00  0.00     0.005 A 
HETATM   22  C14 UNL     1      27.851  -0.043  53.055  1.00  0.00     0.037 A 
HETATM   23  C15 UNL     1      27.567   0.555  54.286  1.00  0.00     0.070 A 
HETATM   24  C17 UNL     1      26.393   0.227  54.918  1.00  0.00     0.066 A 
BRANCH  23  25
HETATM   25  O2  UNL     1      28.552   1.432  54.713  1.00  0.00    -0.356 OA
HETATM   26  C16 UNL     1      29.020   2.460  53.835  1.00  0.00     0.210 C 
ENDBRANCH  23  25
ENDBRANCH  17  19
ENDBRANCH   5  17
TORSDOF 6
ENDMDL
MODEL 5
REMARK VINA RESULT:      -7.7      2.557      6.521
REMARK  6 active torsions:
REMARK  status: ('A' for Active; 'I' for Inactive)
REMARK    1  A    between atoms: O1_2  and  C2_3 
REMARK    2  A    between atoms: C6_7  and  N1_8 
REMARK    3  A    between atoms: N1_8  and  C7_9 
REMARK    4  A    between atoms: C10_13  and  N3_14 
REMARK    5  A    between atoms: N3_14  and  C11_15 
REMARK    6  A    between atoms: C15_19  and  O2_20 
ROOT
HETATM    1  C7  UNL     1      22.902  -0.748  54.318  1.00  0.00     0.148 A 
HETATM    2  C8  UNL     1      21.832  -1.574  54.560  1.00  0.00     0.071 A 
HETATM    3  C9  UNL     1      20.548  -1.429  54.088  1.00  0.00     0.140 A 
HETATM    4  N2  UNL     1      20.355  -0.344  53.305  1.00  0.00    -0.075 NA
HETATM    5  C10 UNL     1      21.366   0.511  53.029  1.00  0.00     0.728 A 
HETATM    6  N4  UNL     1      22.580   0.283  53.535  1.00  0.00    -0.045 NA
ENDROOT
BRANCH   1   7
HETATM    7  N1  UNL     1      24.225  -0.880  54.773  1.00  0.00    -0.340 N 
HETATM    8  H7  UNL     1      24.335  -1.239  55.766  1.00  0.00     0.167 HD
BRANCH   7   9
HETATM    9  C6  UNL     1      25.494  -0.631  54.214  1.00  0.00     0.036 A 
HETATM   10  C5  UNL     1      25.917  -1.078  52.983  1.00  0.00     0.029 A 
HETATM   11  C4  UNL     1      27.197  -0.843  52.470  1.00  0.00     0.005 A 
HETATM   12  C3  UNL     1      28.077  -0.126  53.236  1.00  0.00     0.037 A 
HETATM   13  C2  UNL     1      27.717   0.347  54.466  1.00  0.00     0.070 A 
HETATM   14  C18 UNL     1      26.450   0.080  54.906  1.00  0.00     0.066 A 
BRANCH  13  15
HETATM   15  O1  UNL     1      28.678   1.061  55.159  1.00  0.00    -0.356 OA
HETATM   16  C1  UNL     1      29.427   2.030  54.453  1.00  0.00     0.210 C 
ENDBRANCH  13  15
ENDBRANCH   7   9
ENDBRANCH   1   7
BRANCH   5  17
HETATM   17  N3  UNL     1      21.037   1.607  52.190  1.00  0.00    -0.188 N 
HETATM   18  H10 UNL     1      20.370   2.269  52.647  1.00  0.00     0.184 HD
BRANCH  17  19
HETATM   19  C11 UNL     1      21.551   1.793  50.878  1.00  0.00     0.052 A 
HETATM   20  C12 UNL     1      20.995   1.084  49.837  1.00  0.00     0.030 A 
HETATM   21  C13 UNL     1      21.510   1.254  48.552  1.00  0.00     0.005 A 
HETATM   22  C14 UNL     1      22.561   2.134  48.403  1.00  0.00     0.037 A 
HETATM   23  C15 UNL     1      23.122   2.852  49.464  1.00  0.00     0.070 A 
HETATM   24  C17 UNL     1      22.601   2.673  50.721  1.00  0.00     0.066 A 
BRANCH  23  25
HETATM   25  O2  UNL     1      24.167   3.677  49.080  1.00  0.00    -0.356 OA
HETATM   26  C16 UNL     1      25.324   3.795  49.913  1.00  0.00     0.210 C 
ENDBRANCH  23  25
ENDBRANCH  17  19
ENDBRANCH   5  17
TORSDOF 6
ENDMDL
MODEL 6
REMARK VINA RESULT:      -7.6      3.481      6.666
REMARK  6 active torsions:
REMARK  status: ('A' for Active; 'I' for Inactive)
REMARK    1  A    between atoms: O1_2  and  C2_3 
REMARK    2  A    between atoms: C6_7  and  N1_8 
REMARK    3  A    between atoms: N1_8  and  C7_9 
REMARK    4  A    between atoms: C10_13  and  N3_14 
REMARK    5  A    between atoms: N3_14  and  C11_15 
REMARK    6  A    between atoms: C15_19  and  O2_20 
ROOT
HETATM    1  C7  UNL     1      24.780   4.274  50.439  1.00  0.00     0.148 A 
HETATM    2  C8  UNL     1      23.905   4.845  51.330  1.00  0.00     0.071 A 
HETATM    3  C9  UNL     1      23.516   4.343  52.550  1.00  0.00     0.140 A 
HETATM    4  N2  UNL     1      24.076   3.155  52.873  1.00  0.00    -0.075 NA
HETATM    5  C10 UNL     1      24.944   2.538  52.040  1.00  0.00     0.728 A 
HETATM    6  N4  UNL     1      25.259   3.108  50.875  1.00  0.00    -0.045 NA
ENDROOT
BRANCH   1   7
HETATM    7  N1  UNL     1      25.207   4.771  49.195  1.00  0.00    -0.340 N 
HETATM    8  H7  UNL     1      24.562   4.570  48.375  1.00  0.00     0.167 HD
BRANCH   7   9
HETATM    9  C6  UNL     1      26.332   5.492  48.749  1.00  0.00     0.036 A 
HETATM   10  C5  UNL     1      26.313   6.798  48.317  1.00  0.00     0.029 A 
HETATM   11  C4  UNL     1      27.444   7.476  47.848  1.00  0.00     0.005 A 
HETATM   12  C3  UNL     1      28.635   6.801  47.819  1.00  0.00     0.037 A 
HETATM   13  C2  UNL     1      28.719   5.504  48.236  1.00  0.00     0.070 A 
HETATM   14  C18 UNL     1      27.575   4.901  48.683  1.00  0.00     0.066 A 
BRANCH  13  15
HETATM   15  O1  UNL     1      29.968   4.912  48.170  1.00  0.00    -0.356 OA
HETATM   16  C1  UNL     1      31.106   5.740  48.309  1.00  0.00     0.210 C 
ENDBRANCH  13  15
ENDBRANCH   7   9
ENDBRANCH   1   7
BRANCH   5  17
HETATM   17  N3  UNL     1      25.466   1.301  52.498  1.00  0.00    -0.188 N 
HETATM   18  H10 UNL     1      24.773   0.524  52.417  1.00  0.00     0.184 HD
BRANCH  17  19
HETATM   19  C11 UNL     1      26.781   1.127  53.009  1.00  0.00     0.052 A 
HETATM   20  C12 UNL     1      27.522   2.240  53.336  1.00  0.00     0.030 A 
HETATM   21  C13 UNL     1      28.819   2.070  53.822  1.00  0.00     0.005 A 
HETATM   22  C14 UNL     1      29.285   0.778  53.944  1.00  0.00     0.037 A 
HETATM   23  C15 UNL     1      28.528  -0.348  53.609  1.00  0.00     0.070 A 
HETATM   24  C17 UNL     1      27.253  -0.162  53.134  1.00  0.00     0.066 A 
BRANCH  23  25
HETATM   25  O2  UNL     1      29.198  -1.544  53.814  1.00  0.00    -0.356 OA
HETATM   26  C16 UNL     1      28.817  -2.710  53.077  1.00  0.00     0.210 C 
ENDBRANCH  23  25
ENDBRANCH  17  19
ENDBRANCH   5  17
TORSDOF 6
ENDMDL
MODEL 7
REMARK VINA RESULT:      -7.6      2.368      6.057
REMARK  6 active torsions:
REMARK  status: ('A' for Active; 'I' for Inactive)
REMARK    1  A    between atoms: O1_2  and  C2_3 
REMARK    2  A    between atoms: C6_7  and  N1_8 
REMARK    3  A    between atoms: N1_8  and  C7_9 
REMARK    4  A    between atoms: C10_13  and  N3_14 
REMARK    5  A    between atoms: N3_14  and  C11_15 
REMARK    6  A    between atoms: C15_19  and  O2_20 
ROOT
HETATM    1  C7  UNL     1      27.363   1.793  53.000  1.00  0.00     0.148 A 
HETATM    2  C8  UNL     1      28.566   1.598  53.632  1.00  0.00     0.071 A 
HETATM    3  C9  UNL     1      28.858   0.654  54.589  1.00  0.00     0.140 A 
HETATM    4  N2  UNL     1      27.823  -0.150  54.920  1.00  0.00    -0.075 NA
HETATM    5  C10 UNL     1      26.611  -0.010  54.337  1.00  0.00     0.728 A 
HETATM    6  N4  UNL     1      26.427   0.937  53.415  1.00  0.00    -0.045 NA
ENDROOT
BRANCH   1   7
HETATM    7  N1  UNL     1      27.041   2.737  52.009  1.00  0.00    -0.340 N 
HETATM    8  H7  UNL     1      27.823   3.404  51.740  1.00  0.00     0.167 HD
BRANCH   7   9
HETATM    9  C6  UNL     1      25.884   3.033  51.261  1.00  0.00     0.036 A 
HETATM   10  C5  UNL     1      25.856   3.252  49.903  1.00  0.00     0.029 A 
HETATM   11  C4  UNL     1      24.695   3.579  49.195  1.00  0.00     0.005 A 
HETATM   12  C3  UNL     1      23.521   3.685  49.892  1.00  0.00     0.037 A 
HETATM   13  C2  UNL     1      23.484   3.478  51.242  1.00  0.00     0.070 A 
HETATM   14  C18 UNL     1      24.657   3.163  51.872  1.00  0.00     0.066 A 
BRANCH  13  15
HETATM   15  O1  UNL     1      22.250   3.608  51.853  1.00  0.00    -0.356 OA
HETATM   16  C1  UNL     1      21.390   4.638  51.408  1.00  0.00     0.210 C 
ENDBRANCH  13  15
ENDBRANCH   7   9
ENDBRANCH   1   7
BRANCH   5  17
HETATM   17  N3  UNL     1      25.610  -0.920  54.765  1.00  0.00    -0.188 N 
HETATM   18  H10 UNL     1      26.000  -1.686  55.360  1.00  0.00     0.184 HD
BRANCH  17  19
HETATM   19  C11 UNL     1      24.233  -0.812  54.431  1.00  0.00     0.052 A 
HETATM   20  C12 UNL     1      23.290  -1.229  55.342  1.00  0.00     0.030 A 
HETATM   21  C13 UNL     1      21.939  -1.138  55.008  1.00  0.00     0.005 A 
HETATM   22  C14 UNL     1      21.628  -0.630  53.764  1.00  0.00     0.037 A 
HETATM   23  C15 UNL     1      22.590  -0.208  52.842  1.00  0.00     0.070 A 
HETATM   24  C17 UNL     1      23.915  -0.303  53.189  1.00  0.00     0.066 A 
BRANCH  23  25
HETATM   25  O2  UNL     1      22.048   0.267  51.658  1.00  0.00    -0.356 OA
HETATM   26  C16 UNL     1      20.631   0.423  51.534  1.00  0.00     0.210 C 
ENDBRANCH  23  25
ENDBRANCH  17  19
ENDBRANCH   5  17
TORSDOF 6
ENDMDL
MODEL 8
REMARK VINA RESULT:      -7.5      3.008      5.196
REMARK  6 active torsions:
REMARK  status: ('A' for Active; 'I' for Inactive)
REMARK    1  A    between atoms: O1_2  and  C2_3 
REMARK    2  A    between atoms: C6_7  and  N1_8 
REMARK    3  A    between atoms: N1_8  and  C7_9 
REMARK    4  A    between atoms: C10_13  and  N3_14 
REMARK    5  A    between atoms: N3_14  and  C11_15 
REMARK    6  A    between atoms: C15_19  and  O2_20 
ROOT
HETATM    1  C7  UNL     1      25.794   0.614  53.053  1.00  0.00     0.148 A 
HETATM    2  C8  UNL     1      26.828   1.097  53.816  1.00  0.00     0.071 A 
HETATM    3  C9  UNL     1      27.792   2.001  53.432  1.00  0.00     0.140 A 
HETATM    4  N2  UNL     1      27.677   2.438  52.158  1.00  0.00    -0.075 NA
HETATM    5  C10 UNL     1      26.682   2.001  51.353  1.00  0.00     0.728 A 
HETATM    6  N4  UNL     1      25.793   1.123  51.819  1.00  0.00    -0.045 NA
ENDROOT
BRANCH   1   7
HETATM    7  N1  UNL     1      24.788  -0.295  53.423  1.00  0.00    -0.340 N 
HETATM    8  H7  UNL     1      25.099  -1.305  53.527  1.00  0.00     0.167 HD
BRANCH   7   9
HETATM    9  C6  UNL     1      23.408  -0.192  53.690  1.00  0.00     0.036 A 
HETATM   10  C5  UNL     1      22.700  -1.030  54.521  1.00  0.00     0.029 A 
HETATM   11  C4  UNL     1      21.322  -0.921  54.739  1.00  0.00     0.005 A 
HETATM   12  C3  UNL     1      20.642   0.075  54.091  1.00  0.00     0.037 A 
HETATM   13  C2  UNL     1      21.289   0.940  53.255  1.00  0.00     0.070 A 
HETATM   14  C18 UNL     1      22.637   0.777  53.087  1.00  0.00     0.066 A 
BRANCH  13  15
HETATM   15  O1  UNL     1      20.513   1.912  52.650  1.00  0.00    -0.356 OA
HETATM   16  C1  UNL     1      20.608   2.064  51.248  1.00  0.00     0.210 C 
ENDBRANCH  13  15
ENDBRANCH   7   9
ENDBRANCH   1   7
BRANCH   5  17
HETATM   17  N3  UNL     1      26.667   2.542  50.041  1.00  0.00    -0.188 N 
HETATM   18  H10 UNL     1      26.871   1.820  49.313  1.00  0.00     0.184 HD
BRANCH  17  19
HETATM   19  C11 UNL     1      26.406   3.905  49.740  1.00  0.00     0.052 A 
HETATM   20  C12 UNL     1      27.257   4.577  48.891  1.00  0.00     0.030 A 
HETATM   21  C13 UNL     1      27.010   5.920  48.609  1.00  0.00     0.005 A 
HETATM   22  C14 UNL     1      25.912   6.502  49.208  1.00  0.00     0.037 A 
HETATM   23  C15 UNL     1      25.051   5.815  50.070  1.00  0.00     0.070 A 
HETATM   24  C17 UNL     1      25.309   4.493  50.335  1.00  0.00     0.066 A 
BRANCH  23  25
HETATM   25  O2  UNL     1      24.016   6.599  50.554  1.00  0.00    -0.356 OA
HETATM   26  C16 UNL     1      22.884   5.980  51.174  1.00  0.00     0.210 C 
ENDBRANCH  23  25
ENDBRANCH  17  19
ENDBRANCH   5  17
TORSDOF 6
ENDMDL
MODEL 9
REMARK VINA RESULT:      -7.5      3.359      6.254
REMARK  6 active torsions:
REMARK  status: ('A' for Active; 'I' for Inactive)
REMARK    1  A    between atoms: O1_2  and  C2_3 
REMARK    2  A    between atoms: C6_7  and  N1_8 
REMARK    3  A    between atoms: N1_8  and  C7_9 
REMARK    4  A    between atoms: C10_13  and  N3_14 
REMARK    5  A    between atoms: N3_14  and  C11_15 
REMARK    6  A    between atoms: C15_19  and  O2_20 
ROOT
HETATM    1  C7  UNL     1      23.536   3.025  51.075  1.00  0.00     0.148 A 
HETATM    2  C8  UNL     1      22.425   2.424  50.539  1.00  0.00     0.071 A 
HETATM    3  C9  UNL     1      21.891   1.204  50.884  1.00  0.00     0.140 A 
HETATM    4  N2  UNL     1      22.562   0.554  51.862  1.00  0.00    -0.075 NA
HETATM    5  C10 UNL     1      23.665   1.089  52.432  1.00  0.00     0.728 A 
HETATM    6  N4  UNL     1      24.105   2.282  52.027  1.00  0.00    -0.045 NA
ENDROOT
BRANCH   1   7
HETATM    7  N1  UNL     1      24.093   4.275  50.753  1.00  0.00    -0.340 N 
HETATM    8  H7  UNL     1      23.573   5.120  51.133  1.00  0.00     0.167 HD
BRANCH   7   9
HETATM    9  C6  UNL     1      25.213   4.699  50.011  1.00  0.00     0.036 A 
HETATM   10  C5  UNL     1      26.236   3.881  49.589  1.00  0.00     0.029 A 
HETATM   11  C4  UNL     1      27.352   4.340  48.881  1.00  0.00     0.005 A 
HETATM   12  C3  UNL     1      27.430   5.676  48.593  1.00  0.00     0.037 A 
HETATM   13  C2  UNL     1      26.445   6.539  48.983  1.00  0.00     0.070 A 
HETATM   14  C18 UNL     1      25.382   6.023  49.672  1.00  0.00     0.066 A 
BRANCH  13  15
HETATM   15  O1  UNL     1      26.616   7.868  48.641  1.00  0.00    -0.356 OA
HETATM   16  C1  UNL     1      27.561   8.627  49.369  1.00  0.00     0.210 C 
ENDBRANCH  13  15
ENDBRANCH   7   9
ENDBRANCH   1   7
BRANCH   5  17
HETATM   17  N3  UNL     1      24.273   0.311  53.451  1.00  0.00    -0.188 N 
HETATM   18  H10 UNL     1      23.583  -0.014  54.166  1.00  0.00     0.184 HD
BRANCH  17  19
HETATM   19  C11 UNL     1      25.659   0.003  53.503  1.00  0.00     0.052 A 
HETATM   20  C12 UNL     1      26.137  -1.052  52.759  1.00  0.00     0.030 A 
HETATM   21  C13 UNL     1      27.495  -1.365  52.823  1.00  0.00     0.005 A 
HETATM   22  C14 UNL     1      28.286  -0.587  53.643  1.00  0.00     0.037 A 
HETATM   23  C15 UNL     1      27.795   0.482  54.397  1.00  0.00     0.070 A 
HETATM   24  C17 UNL     1      26.456   0.777  54.320  1.00  0.00     0.066 A 
BRANCH  23  25
HETATM   25  O2  UNL     1      28.770   1.121  55.147  1.00  0.00    -0.356 OA
HETATM   26  C16 UNL     1      29.627   2.085  54.529  1.00  0.00     0.210 C 
ENDBRANCH  23  25
ENDBRANCH  17  19
ENDBRANCH   5  17
TORSDOF 6
ENDMDL
