MODEL 1
REMARK VINA RESULT:      -7.4      0.000      0.000
REMARK  7 active torsions:
REMARK  status: ('A' for Active; 'I' for Inactive)
REMARK    1  A    between atoms: C2_2  and  C3_3 
REMARK    2  A    between atoms: C3_3  and  C4_4 
REMARK    3  A    between atoms: C4_4  and  N4_19 
REMARK    4  A    between atoms: C5_5  and  C6_6 
REMARK       I    between atoms: N4_19  and  C16_20 
REMARK    5  A    between atoms: C16_20  and  C17_22 
REMARK    6  A    between atoms: C18_23  and  C19_24 
REMARK    7  A    between atoms: C19_24  and  N5_25 
ROOT
HETATM    1  C6  UNL     1      23.612   4.332  52.404  1.00  0.00     0.085 A 
HETATM    2  C7  UNL     1      22.157   4.507  52.199  1.00  0.00     0.100 A 
HETATM    3  N1  UNL     1      21.102   3.757  52.135  1.00  0.00    -0.275 NA
HETATM    4  C8  UNL     1      21.368   2.362  52.308  1.00  0.00     0.136 A 
HETATM    5  C9  UNL     1      22.643   2.097  52.503  1.00  0.00     0.070 A 
HETATM    6  C10 UNL     1      22.867   0.661  52.672  1.00  0.00     0.099 C 
HETATM    7  N2  UNL     1      23.067  -0.494  52.814  1.00  0.00    -0.192 NA
HETATM    8  C11 UNL     1      23.892   2.885  52.605  1.00  0.00     0.109 A 
HETATM    9  C12 UNL     1      25.015   2.397  53.359  1.00  0.00     0.023 A 
HETATM   10  C13 UNL     1      26.135   1.905  53.997  1.00  0.00     0.023 A 
HETATM   11  C14 UNL     1      26.941   1.465  52.948  1.00  0.00     0.013 A 
HETATM   12  C15 UNL     1      26.276   1.711  51.741  1.00  0.00     0.067 A 
HETATM   13  N3  UNL     1      25.081   2.293  52.038  1.00  0.00    -0.240 NA
ENDROOT
BRANCH   1  14
HETATM   14  C5  UNL     1      24.419   4.833  51.237  1.00  0.00     0.011 C 
HETATM   15  C4  UNL     1      24.420   4.874  49.921  1.00  0.00     0.012 C 
BRANCH  15  16
HETATM   16  C3  UNL     1      23.506   4.383  48.863  1.00  0.00     0.083 C 
BRANCH  16  17
HETATM   17  C2  UNL     1      23.393   2.886  48.906  1.00  0.00    -0.031 C 
HETATM   18  C1  UNL     1      22.309   2.145  48.723  1.00  0.00     0.007 C 
ENDBRANCH  16  17
ENDBRANCH  15  16
BRANCH  15  19
HETATM   19  N4  UNL     1      25.499   5.515  49.261  1.00  0.00    -0.327 N 
HETATM   20  C16 UNL     1      26.768   4.949  48.985  1.00  0.00     0.245 C 
HETATM   21  O1  UNL     1      27.140   3.787  49.283  1.00  0.00    -0.268 OA
HETATM   22  H13 UNL     1      25.237   6.488  48.993  1.00  0.00     0.169 HD
BRANCH  20  23
HETATM   23  C17 UNL     1      27.693   5.833  48.289  1.00  0.00     0.072 C 
HETATM   24  C18 UNL     1      28.993   5.595  48.327  1.00  0.00     0.008 C 
BRANCH  24  25
HETATM   25  C19 UNL     1      30.211   6.216  47.783  1.00  0.00     0.299 C 
BRANCH  25  26
HETATM   26  N5  UNL     1      30.868   6.939  48.877  1.00  0.00     0.083 N 
HETATM   27  C20 UNL     1      31.673   8.034  48.302  1.00  0.00     0.309 C 
HETATM   28  C21 UNL     1      31.808   5.978  49.450  1.00  0.00     0.309 C 
ENDBRANCH  25  26
ENDBRANCH  24  25
ENDBRANCH  20  23
ENDBRANCH  15  19
ENDBRANCH   1  14
TORSDOF 7
ENDMDL
MODEL 2
REMARK VINA RESULT:      -6.7      3.367     10.483
REMARK  7 active torsions:
REMARK  status: ('A' for Active; 'I' for Inactive)
REMARK    1  A    between atoms: C2_2  and  C3_3 
REMARK    2  A    between atoms: C3_3  and  C4_4 
REMARK    3  A    between atoms: C4_4  and  N4_19 
REMARK    4  A    between atoms: C5_5  and  C6_6 
REMARK       I    between atoms: N4_19  and  C16_20 
REMARK    5  A    between atoms: C16_20  and  C17_22 
REMARK    6  A    between atoms: C18_23  and  C19_24 
REMARK    7  A    between atoms: C19_24  and  N5_25 
ROOT
HETATM    1  C6  UNL     1      33.821   5.499  47.793  1.00  0.00     0.085 A 
HETATM    2  C7  UNL     1      34.452   4.182  48.039  1.00  0.00     0.100 A 
HETATM    3  N1  UNL     1      35.010   3.244  47.340  1.00  0.00    -0.275 NA
HETATM    4  C8  UNL     1      35.053   3.509  45.935  1.00  0.00     0.136 A 
HETATM    5  C9  UNL     1      34.517   4.667  45.609  1.00  0.00     0.070 A 
HETATM    6  C10 UNL     1      34.582   4.894  44.165  1.00  0.00     0.099 C 
HETATM    7  N2  UNL     1      34.628   5.098  43.003  1.00  0.00    -0.192 NA
HETATM    8  C11 UNL     1      33.882   5.790  46.336  1.00  0.00     0.109 A 
HETATM    9  C12 UNL     1      33.901   7.124  45.799  1.00  0.00     0.023 A 
HETATM   10  C13 UNL     1      33.827   8.390  45.257  1.00  0.00     0.023 A 
HETATM   11  C14 UNL     1      32.522   8.460  44.770  1.00  0.00     0.013 A 
HETATM   12  C15 UNL     1      31.880   7.246  45.039  1.00  0.00     0.067 A 
HETATM   13  N3  UNL     1      32.770   6.441  45.681  1.00  0.00    -0.240 NA
ENDROOT
BRANCH   1  14
HETATM   14  C5  UNL     1      32.386   5.538  48.244  1.00  0.00     0.011 C 
HETATM   15  C4  UNL     1      31.525   6.294  48.895  1.00  0.00     0.012 C 
BRANCH  15  16
HETATM   16  C3  UNL     1      31.594   7.616  49.559  1.00  0.00     0.083 C 
BRANCH  16  17
HETATM   17  C2  UNL     1      31.831   8.707  48.555  1.00  0.00    -0.031 C 
HETATM   18  C1  UNL     1      31.177   9.854  48.427  1.00  0.00     0.007 C 
ENDBRANCH  16  17
ENDBRANCH  15  16
BRANCH  15  19
HETATM   19  N4  UNL     1      30.196   5.829  49.053  1.00  0.00    -0.327 N 
HETATM   20  C16 UNL     1      29.108   6.085  48.182  1.00  0.00     0.245 C 
HETATM   21  O1  UNL     1      29.149   6.768  47.128  1.00  0.00    -0.268 OA
HETATM   22  H13 UNL     1      30.110   5.254  49.918  1.00  0.00     0.169 HD
BRANCH  20  23
HETATM   23  C17 UNL     1      27.846   5.479  48.585  1.00  0.00     0.072 C 
HETATM   24  C18 UNL     1      26.735   6.196  48.576  1.00  0.00     0.008 C 
BRANCH  24  25
HETATM   25  C19 UNL     1      25.316   5.974  48.896  1.00  0.00     0.299 C 
BRANCH  25  26
HETATM   26  N5  UNL     1      25.247   5.415  50.250  1.00  0.00     0.083 N 
HETATM   27  C20 UNL     1      24.791   4.015  50.160  1.00  0.00     0.309 C 
HETATM   28  C21 UNL     1      24.182   6.165  50.911  1.00  0.00     0.309 C 
ENDBRANCH  25  26
ENDBRANCH  24  25
ENDBRANCH  20  23
ENDBRANCH  15  19
ENDBRANCH   1  14
TORSDOF 7
ENDMDL
MODEL 3
REMARK VINA RESULT:      -6.6      3.620      9.010
REMARK  7 active torsions:
REMARK  status: ('A' for Active; 'I' for Inactive)
REMARK    1  A    between atoms: C2_2  and  C3_3 
REMARK    2  A    between atoms: C3_3  and  C4_4 
REMARK    3  A    between atoms: C4_4  and  N4_19 
REMARK    4  A    between atoms: C5_5  and  C6_6 
REMARK       I    between atoms: N4_19  and  C16_20 
REMARK    5  A    between atoms: C16_20  and  C17_22 
REMARK    6  A    between atoms: C18_23  and  C19_24 
REMARK    7  A    between atoms: C19_24  and  N5_25 
ROOT
HETATM    1  C6  UNL     1      23.922   1.943  52.982  1.00  0.00     0.085 A 
HETATM    2  C7  UNL     1      24.874   0.837  53.231  1.00  0.00     0.100 A 
HETATM    3  N1  UNL     1      26.005   0.422  52.752  1.00  0.00    -0.275 NA
HETATM    4  C8  UNL     1      26.517   1.226  51.686  1.00  0.00     0.136 A 
HETATM    5  C9  UNL     1      25.742   2.247  51.387  1.00  0.00     0.070 A 
HETATM    6  C10 UNL     1      26.303   3.039  50.292  1.00  0.00     0.099 C 
HETATM    7  N2  UNL     1      26.742   3.692  49.412  1.00  0.00    -0.192 NA
HETATM    8  C11 UNL     1      24.460   2.795  51.888  1.00  0.00     0.109 A 
HETATM    9  C12 UNL     1      24.150   4.193  51.753  1.00  0.00     0.023 A 
HETATM   10  C13 UNL     1      23.793   5.509  51.547  1.00  0.00     0.023 A 
HETATM   11  C14 UNL     1      22.912   5.444  50.469  1.00  0.00     0.013 A 
HETATM   12  C15 UNL     1      22.781   4.106  50.080  1.00  0.00     0.067 A 
HETATM   13  N3  UNL     1      23.566   3.358  50.903  1.00  0.00    -0.240 NA
ENDROOT
BRANCH   1  14
HETATM   14  C5  UNL     1      22.557   1.446  52.594  1.00  0.00     0.011 C 
HETATM   15  C4  UNL     1      21.509   0.812  53.079  1.00  0.00     0.012 C 
BRANCH  15  16
HETATM   16  C3  UNL     1      21.161   0.231  54.397  1.00  0.00     0.083 C 
BRANCH  16  17
HETATM   17  C2  UNL     1      21.826  -1.103  54.585  1.00  0.00    -0.031 C 
HETATM   18  C1  UNL     1      22.875  -1.391  55.345  1.00  0.00     0.007 C 
ENDBRANCH  16  17
ENDBRANCH  15  16
BRANCH  15  19
HETATM   19  N4  UNL     1      20.400   0.580  52.228  1.00  0.00    -0.327 N 
HETATM   20  C16 UNL     1      19.401   1.522  51.876  1.00  0.00     0.245 C 
HETATM   21  O1  UNL     1      19.339   2.715  52.265  1.00  0.00    -0.268 OA
HETATM   22  H13 UNL     1      20.406  -0.401  51.877  1.00  0.00     0.169 HD
BRANCH  20  23
HETATM   23  C17 UNL     1      18.373   1.015  50.977  1.00  0.00     0.072 C 
HETATM   24  C18 UNL     1      17.509   0.109  51.404  1.00  0.00     0.008 C 
BRANCH  24  25
HETATM   25  C19 UNL     1      16.368  -0.630  50.840  1.00  0.00     0.299 C 
BRANCH  25  26
HETATM   26  N5  UNL     1      15.648  -1.255  51.954  1.00  0.00     0.083 N 
HETATM   27  C20 UNL     1      14.995  -0.196  52.747  1.00  0.00     0.309 C 
HETATM   28  C21 UNL     1      16.691  -1.834  52.797  1.00  0.00     0.309 C 
ENDBRANCH  25  26
ENDBRANCH  24  25
ENDBRANCH  20  23
ENDBRANCH  15  19
ENDBRANCH   1  14
TORSDOF 7
ENDMDL
MODEL 4
REMARK VINA RESULT:      -6.6      2.604      4.244
REMARK  7 active torsions:
REMARK  status: ('A' for Active; 'I' for Inactive)
REMARK    1  A    between atoms: C2_2  and  C3_3 
REMARK    2  A    between atoms: C3_3  and  C4_4 
REMARK    3  A    between atoms: C4_4  and  N4_19 
REMARK    4  A    between atoms: C5_5  and  C6_6 
REMARK       I    between atoms: N4_19  and  C16_20 
REMARK    5  A    between atoms: C16_20  and  C17_22 
REMARK    6  A    between atoms: C18_23  and  C19_24 
REMARK    7  A    between atoms: C19_24  and  N5_25 
ROOT
HETATM    1  C6  UNL     1      24.585   0.819  51.749  1.00  0.00     0.085 A 
HETATM    2  C7  UNL     1      25.745   0.336  52.532  1.00  0.00     0.100 A 
HETATM    3  N1  UNL     1      25.954  -0.247  53.671  1.00  0.00    -0.275 NA
HETATM    4  C8  UNL     1      24.763  -0.524  54.412  1.00  0.00     0.136 A 
HETATM    5  C9  UNL     1      23.666  -0.135  53.797  1.00  0.00     0.070 A 
HETATM    6  C10 UNL     1      22.475  -0.436  54.592  1.00  0.00     0.099 C 
HETATM    7  N2  UNL     1      21.502  -0.673  55.217  1.00  0.00    -0.192 NA
HETATM    8  C11 UNL     1      23.341   0.515  52.506  1.00  0.00     0.109 A 
HETATM    9  C12 UNL     1      22.066   0.311  51.875  1.00  0.00     0.023 A 
HETATM   10  C13 UNL     1      20.815   0.204  51.303  1.00  0.00     0.023 A 
HETATM   11  C14 UNL     1      20.199   1.410  51.636  1.00  0.00     0.013 A 
HETATM   12  C15 UNL     1      21.099   2.177  52.385  1.00  0.00     0.067 A 
HETATM   13  N3  UNL     1      22.249   1.460  52.512  1.00  0.00    -0.240 NA
ENDROOT
BRANCH   1  14
HETATM   14  C5  UNL     1      24.651   2.298  51.482  1.00  0.00     0.011 C 
HETATM   15  C4  UNL     1      24.467   3.187  50.529  1.00  0.00     0.012 C 
BRANCH  15  16
HETATM   16  C3  UNL     1      24.059   3.120  49.106  1.00  0.00     0.083 C 
BRANCH  16  17
HETATM   17  C2  UNL     1      22.704   2.487  48.968  1.00  0.00    -0.031 C 
HETATM   18  C1  UNL     1      21.551   3.080  48.691  1.00  0.00     0.007 C 
ENDBRANCH  16  17
ENDBRANCH  15  16
BRANCH  15  19
HETATM   19  N4  UNL     1      24.682   4.557  50.825  1.00  0.00    -0.327 N 
HETATM   20  C16 UNL     1      23.693   5.497  51.206  1.00  0.00     0.245 C 
HETATM   21  O1  UNL     1      22.466   5.267  51.341  1.00  0.00    -0.268 OA
HETATM   22  H13 UNL     1      25.691   4.799  50.726  1.00  0.00     0.169 HD
BRANCH  20  23
HETATM   23  C17 UNL     1      24.193   6.843  51.455  1.00  0.00     0.072 C 
HETATM   24  C18 UNL     1      24.881   7.477  50.520  1.00  0.00     0.008 C 
BRANCH  24  25
HETATM   25  C19 UNL     1      25.533   8.788  50.376  1.00  0.00     0.299 C 
BRANCH  25  26
HETATM   26  N5  UNL     1      26.951   8.550  50.082  1.00  0.00     0.083 N 
HETATM   27  C20 UNL     1      27.519   9.770  49.479  1.00  0.00     0.309 C 
HETATM   28  C21 UNL     1      26.950   7.523  49.043  1.00  0.00     0.309 C 
ENDBRANCH  25  26
ENDBRANCH  24  25
ENDBRANCH  20  23
ENDBRANCH  15  19
ENDBRANCH   1  14
TORSDOF 7
ENDMDL
MODEL 5
REMARK VINA RESULT:      -6.5      4.370      6.578
REMARK  7 active torsions:
REMARK  status: ('A' for Active; 'I' for Inactive)
REMARK    1  A    between atoms: C2_2  and  C3_3 
REMARK    2  A    between atoms: C3_3  and  C4_4 
REMARK    3  A    between atoms: C4_4  and  N4_19 
REMARK    4  A    between atoms: C5_5  and  C6_6 
REMARK       I    between atoms: N4_19  and  C16_20 
REMARK    5  A    between atoms: C16_20  and  C17_22 
REMARK    6  A    between atoms: C18_23  and  C19_24 
REMARK    7  A    between atoms: C19_24  and  N5_25 
ROOT
HETATM    1  C6  UNL     1      20.612   0.578  50.606  1.00  0.00     0.085 A 
HETATM    2  C7  UNL     1      19.383   0.215  51.346  1.00  0.00     0.100 A 
HETATM    3  N1  UNL     1      18.200   0.709  51.537  1.00  0.00    -0.275 NA
HETATM    4  C8  UNL     1      17.971   1.950  50.863  1.00  0.00     0.136 A 
HETATM    5  C9  UNL     1      19.010   2.362  50.167  1.00  0.00     0.070 A 
HETATM    6  C10 UNL     1      18.730   3.633  49.498  1.00  0.00     0.099 C 
HETATM    7  N2  UNL     1      18.523   4.657  48.948  1.00  0.00    -0.192 NA
HETATM    8  C11 UNL     1      20.373   1.857  49.886  1.00  0.00     0.109 A 
HETATM    9  C12 UNL     1      21.063   2.223  48.679  1.00  0.00     0.023 A 
HETATM   10  C13 UNL     1      21.778   2.638  47.575  1.00  0.00     0.023 A 
HETATM   11  C14 UNL     1      22.647   3.599  48.090  1.00  0.00     0.013 A 
HETATM   12  C15 UNL     1      22.416   3.717  49.466  1.00  0.00     0.067 A 
HETATM   13  N3  UNL     1      21.424   2.844  49.795  1.00  0.00    -0.240 NA
ENDROOT
BRANCH   1  14
HETATM   14  C5  UNL     1      21.801   0.739  51.515  1.00  0.00     0.011 C 
HETATM   15  C4  UNL     1      22.127   0.814  52.789  1.00  0.00     0.012 C 
BRANCH  15  16
HETATM   16  C3  UNL     1      21.372   0.766  54.062  1.00  0.00     0.083 C 
BRANCH  16  17
HETATM   17  C2  UNL     1      21.443  -0.603  54.676  1.00  0.00    -0.031 C 
HETATM   18  C1  UNL     1      21.730  -1.751  54.077  1.00  0.00     0.007 C 
ENDBRANCH  16  17
ENDBRANCH  15  16
BRANCH  15  19
HETATM   19  N4  UNL     1      23.492   0.978  53.133  1.00  0.00    -0.327 N 
HETATM   20  C16 UNL     1      24.217   2.195  53.133  1.00  0.00     0.245 C 
HETATM   21  O1  UNL     1      23.763   3.326  52.826  1.00  0.00    -0.268 OA
HETATM   22  H13 UNL     1      23.916   0.062  53.396  1.00  0.00     0.169 HD
BRANCH  20  23
HETATM   23  C17 UNL     1      25.612   2.076  53.533  1.00  0.00     0.072 C 
HETATM   24  C18 UNL     1      26.069   0.930  54.010  1.00  0.00     0.008 C 
BRANCH  24  25
HETATM   25  C19 UNL     1      27.354   0.414  54.505  1.00  0.00     0.299 C 
BRANCH  25  26
HETATM   26  N5  UNL     1      28.079  -0.151  53.362  1.00  0.00     0.083 N 
HETATM   27  C20 UNL     1      27.308  -1.291  52.831  1.00  0.00     0.309 C 
HETATM   28  C21 UNL     1      29.308  -0.698  53.930  1.00  0.00     0.309 C 
ENDBRANCH  25  26
ENDBRANCH  24  25
ENDBRANCH  20  23
ENDBRANCH  15  19
ENDBRANCH   1  14
TORSDOF 7
ENDMDL
MODEL 6
REMARK VINA RESULT:      -6.4      3.444      6.198
REMARK  7 active torsions:
REMARK  status: ('A' for Active; 'I' for Inactive)
REMARK    1  A    between atoms: C2_2  and  C3_3 
REMARK    2  A    between atoms: C3_3  and  C4_4 
REMARK    3  A    between atoms: C4_4  and  N4_19 
REMARK    4  A    between atoms: C5_5  and  C6_6 
REMARK       I    between atoms: N4_19  and  C16_20 
REMARK    5  A    between atoms: C16_20  and  C17_22 
REMARK    6  A    between atoms: C18_23  and  C19_24 
REMARK    7  A    between atoms: C19_24  and  N5_25 
ROOT
HETATM    1  C6  UNL     1      21.501   2.749  49.587  1.00  0.00     0.085 A 
HETATM    2  C7  UNL     1      20.029   2.660  49.717  1.00  0.00     0.100 A 
HETATM    3  N1  UNL     1      19.043   3.452  49.999  1.00  0.00    -0.275 NA
HETATM    4  C8  UNL     1      19.437   4.802  50.263  1.00  0.00     0.136 A 
HETATM    5  C9  UNL     1      20.737   4.991  50.169  1.00  0.00     0.070 A 
HETATM    6  C10 UNL     1      21.093   6.382  50.449  1.00  0.00     0.099 C 
HETATM    7  N2  UNL     1      21.400   7.501  50.668  1.00  0.00    -0.192 NA
HETATM    8  C11 UNL     1      21.915   4.156  49.840  1.00  0.00     0.109 A 
HETATM    9  C12 UNL     1      23.103   4.740  49.281  1.00  0.00     0.023 A 
HETATM   10  C13 UNL     1      24.285   5.293  48.834  1.00  0.00     0.023 A 
HETATM   11  C14 UNL     1      25.088   5.315  49.973  1.00  0.00     0.013 A 
HETATM   12  C15 UNL     1      24.360   4.778  51.042  1.00  0.00     0.067 A 
HETATM   13  N3  UNL     1      23.130   4.431  50.571  1.00  0.00    -0.240 NA
ENDROOT
BRANCH   1  14
HETATM   14  C5  UNL     1      22.217   1.843  50.551  1.00  0.00     0.011 C 
HETATM   15  C4  UNL     1      22.104   1.312  51.751  1.00  0.00     0.012 C 
BRANCH  15  16
HETATM   16  C3  UNL     1      21.088   1.378  52.828  1.00  0.00     0.083 C 
BRANCH  16  17
HETATM   17  C2  UNL     1      20.988   0.064  53.549  1.00  0.00    -0.031 C 
HETATM   18  C1  UNL     1      21.230  -0.184  54.829  1.00  0.00     0.007 C 
ENDBRANCH  16  17
ENDBRANCH  15  16
BRANCH  15  19
HETATM   19  N4  UNL     1      23.138   0.464  52.220  1.00  0.00    -0.327 N 
HETATM   20  C16 UNL     1      24.332   0.875  52.863  1.00  0.00     0.245 C 
HETATM   21  O1  UNL     1      24.665   2.058  53.120  1.00  0.00    -0.268 OA
HETATM   22  H13 UNL     1      22.908  -0.534  52.029  1.00  0.00     0.169 HD
BRANCH  20  23
HETATM   23  C17 UNL     1      25.225  -0.212  53.245  1.00  0.00     0.072 C 
HETATM   24  C18 UNL     1      26.496  -0.184  52.879  1.00  0.00     0.008 C 
BRANCH  24  25
HETATM   25  C19 UNL     1      27.677  -1.044  53.051  1.00  0.00     0.299 C 
BRANCH  25  26
HETATM   26  N5  UNL     1      28.788  -0.192  53.489  1.00  0.00     0.083 N 
HETATM   27  C20 UNL     1      30.006  -1.019  53.587  1.00  0.00     0.309 C 
HETATM   28  C21 UNL     1      28.438   0.210  54.849  1.00  0.00     0.309 C 
ENDBRANCH  25  26
ENDBRANCH  24  25
ENDBRANCH  20  23
ENDBRANCH  15  19
ENDBRANCH   1  14
TORSDOF 7
ENDMDL
MODEL 7
REMARK VINA RESULT:      -6.3      1.898      3.411
REMARK  7 active torsions:
REMARK  status: ('A' for Active; 'I' for Inactive)
REMARK    1  A    between atoms: C2_2  and  C3_3 
REMARK    2  A    between atoms: C3_3  and  C4_4 
REMARK    3  A    between atoms: C4_4  and  N4_19 
REMARK    4  A    between atoms: C5_5  and  C6_6 
REMARK       I    between atoms: N4_19  and  C16_20 
REMARK    5  A    between atoms: C16_20  and  C17_22 
REMARK    6  A    between atoms: C18_23  and  C19_24 
REMARK    7  A    between atoms: C19_24  and  N5_25 
ROOT
HETATM    1  C6  UNL     1      22.834   5.007  48.552  1.00  0.00     0.085 A 
HETATM    2  C7  UNL     1      22.356   4.606  47.209  1.00  0.00     0.100 A 
HETATM    3  N1  UNL     1      21.840   3.557  46.651  1.00  0.00    -0.275 NA
HETATM    4  C8  UNL     1      21.661   2.452  47.542  1.00  0.00     0.136 A 
HETATM    5  C9  UNL     1      22.053   2.707  48.772  1.00  0.00     0.070 A 
HETATM    6  C10 UNL     1      21.853   1.550  49.645  1.00  0.00     0.099 C 
HETATM    7  N2  UNL     1      21.696   0.628  50.366  1.00  0.00    -0.192 NA
HETATM    8  C11 UNL     1      22.630   3.869  49.487  1.00  0.00     0.109 A 
HETATM    9  C12 UNL     1      22.437   4.037  50.902  1.00  0.00     0.023 A 
HETATM   10  C13 UNL     1      22.345   4.165  52.273  1.00  0.00     0.023 A 
HETATM   11  C14 UNL     1      23.593   3.742  52.726  1.00  0.00     0.013 A 
HETATM   12  C15 UNL     1      24.371   3.383  51.619  1.00  0.00     0.067 A 
HETATM   13  N3  UNL     1      23.617   3.581  50.502  1.00  0.00    -0.240 NA
ENDROOT
BRANCH   1  14
HETATM   14  C5  UNL     1      24.289   5.390  48.551  1.00  0.00     0.011 C 
HETATM   15  C4  UNL     1      25.185   6.053  49.252  1.00  0.00     0.012 C 
BRANCH  15  16
HETATM   16  C3  UNL     1      25.159   6.817  50.521  1.00  0.00     0.083 C 
BRANCH  16  17
HETATM   17  C2  UNL     1      24.244   8.003  50.412  1.00  0.00    -0.031 C 
HETATM   18  C1  UNL     1      22.926   8.033  50.559  1.00  0.00     0.007 C 
ENDBRANCH  16  17
ENDBRANCH  15  16
BRANCH  15  19
HETATM   19  N4  UNL     1      26.517   6.112  48.770  1.00  0.00    -0.327 N 
HETATM   20  C16 UNL     1      27.458   5.052  48.772  1.00  0.00     0.245 C 
HETATM   21  O1  UNL     1      27.260   3.889  49.204  1.00  0.00    -0.268 OA
HETATM   22  H13 UNL     1      26.731   7.063  48.400  1.00  0.00     0.169 HD
BRANCH  20  23
HETATM   23  C17 UNL     1      28.759   5.389  48.212  1.00  0.00     0.072 C 
HETATM   24  C18 UNL     1      29.136   6.654  48.126  1.00  0.00     0.008 C 
BRANCH  24  25
HETATM   25  C19 UNL     1      30.317   7.388  47.646  1.00  0.00     0.299 C 
BRANCH  25  26
HETATM   26  N5  UNL     1      31.061   7.854  48.821  1.00  0.00     0.083 N 
HETATM   27  C20 UNL     1      30.478   9.130  49.274  1.00  0.00     0.309 C 
HETATM   28  C21 UNL     1      32.401   8.153  48.322  1.00  0.00     0.309 C 
ENDBRANCH  25  26
ENDBRANCH  24  25
ENDBRANCH  20  23
ENDBRANCH  15  19
ENDBRANCH   1  14
TORSDOF 7
ENDMDL
MODEL 8
REMARK VINA RESULT:      -6.2      1.902      2.724
REMARK  7 active torsions:
REMARK  status: ('A' for Active; 'I' for Inactive)
REMARK    1  A    between atoms: C2_2  and  C3_3 
REMARK    2  A    between atoms: C3_3  and  C4_4 
REMARK    3  A    between atoms: C4_4  and  N4_19 
REMARK    4  A    between atoms: C5_5  and  C6_6 
REMARK       I    between atoms: N4_19  and  C16_20 
REMARK    5  A    between atoms: C16_20  and  C17_22 
REMARK    6  A    between atoms: C18_23  and  C19_24 
REMARK    7  A    between atoms: C19_24  and  N5_25 
ROOT
HETATM    1  C6  UNL     1      23.927   6.511  51.339  1.00  0.00     0.085 A 
HETATM    2  C7  UNL     1      22.917   7.478  50.855  1.00  0.00     0.100 A 
HETATM    3  N1  UNL     1      21.684   7.455  50.454  1.00  0.00    -0.275 NA
HETATM    4  C8  UNL     1      21.090   6.154  50.469  1.00  0.00     0.136 A 
HETATM    5  C9  UNL     1      21.910   5.214  50.891  1.00  0.00     0.070 A 
HETATM    6  C10 UNL     1      21.262   3.902  50.887  1.00  0.00     0.099 C 
HETATM    7  N2  UNL     1      20.755   2.836  50.894  1.00  0.00    -0.192 NA
HETATM    8  C11 UNL     1      23.308   5.158  51.376  1.00  0.00     0.109 A 
HETATM    9  C12 UNL     1      23.740   4.119  52.272  1.00  0.00     0.023 A 
HETATM   10  C13 UNL     1      24.196   3.078  53.053  1.00  0.00     0.023 A 
HETATM   11  C14 UNL     1      24.873   2.262  52.148  1.00  0.00     0.013 A 
HETATM   12  C15 UNL     1      24.794   2.844  50.878  1.00  0.00     0.067 A 
HETATM   13  N3  UNL     1      24.081   3.999  50.995  1.00  0.00    -0.240 NA
ENDROOT
BRANCH   1  14
HETATM   14  C5  UNL     1      25.148   6.470  50.461  1.00  0.00     0.011 C 
HETATM   15  C4  UNL     1      25.529   6.627  49.210  1.00  0.00     0.012 C 
BRANCH  15  16
HETATM   16  C3  UNL     1      24.835   6.957  47.943  1.00  0.00     0.083 C 
BRANCH  16  17
HETATM   17  C2  UNL     1      23.674   6.032  47.712  1.00  0.00    -0.031 C 
HETATM   18  C1  UNL     1      22.585   6.255  46.988  1.00  0.00     0.007 C 
ENDBRANCH  16  17
ENDBRANCH  15  16
BRANCH  15  19
HETATM   19  N4  UNL     1      26.900   6.465  48.891  1.00  0.00    -0.327 N 
HETATM   20  C16 UNL     1      27.583   5.236  48.720  1.00  0.00     0.245 C 
HETATM   21  O1  UNL     1      27.079   4.090  48.825  1.00  0.00    -0.268 OA
HETATM   22  H13 UNL     1      27.365   7.394  48.794  1.00  0.00     0.169 HD
BRANCH  20  23
HETATM   23  C17 UNL     1      28.996   5.362  48.392  1.00  0.00     0.072 C 
HETATM   24  C18 UNL     1      29.434   6.431  47.749  1.00  0.00     0.008 C 
BRANCH  24  25
HETATM   25  C19 UNL     1      30.728   6.925  47.250  1.00  0.00     0.299 C 
BRANCH  25  26
HETATM   26  N5  UNL     1      31.766   6.471  48.181  1.00  0.00     0.083 N 
HETATM   27  C20 UNL     1      32.270   7.637  48.931  1.00  0.00     0.309 C 
HETATM   28  C21 UNL     1      32.859   6.012  47.327  1.00  0.00     0.309 C 
ENDBRANCH  25  26
ENDBRANCH  24  25
ENDBRANCH  20  23
ENDBRANCH  15  19
ENDBRANCH   1  14
TORSDOF 7
ENDMDL
MODEL 9
REMARK VINA RESULT:      -6.2      2.368      4.891
REMARK  7 active torsions:
REMARK  status: ('A' for Active; 'I' for Inactive)
REMARK    1  A    between atoms: C2_2  and  C3_3 
REMARK    2  A    between atoms: C3_3  and  C4_4 
REMARK    3  A    between atoms: C4_4  and  N4_19 
REMARK    4  A    between atoms: C5_5  and  C6_6 
REMARK       I    between atoms: N4_19  and  C16_20 
REMARK    5  A    between atoms: C16_20  and  C17_22 
REMARK    6  A    between atoms: C18_23  and  C19_24 
REMARK    7  A    between atoms: C19_24  and  N5_25 
ROOT
HETATM    1  C6  UNL     1      25.890   3.502  49.535  1.00  0.00     0.085 A 
HETATM    2  C7  UNL     1      26.597   2.780  50.618  1.00  0.00     0.100 A 
HETATM    3  N1  UNL     1      26.296   2.211  51.743  1.00  0.00    -0.275 NA
HETATM    4  C8  UNL     1      24.905   2.267  52.072  1.00  0.00     0.136 A 
HETATM    5  C9  UNL     1      24.182   2.889  51.164  1.00  0.00     0.070 A 
HETATM    6  C10 UNL     1      22.769   2.924  51.543  1.00  0.00     0.099 C 
HETATM    7  N2  UNL     1      21.624   2.960  51.830  1.00  0.00    -0.192 NA
HETATM    8  C11 UNL     1      24.440   3.545  49.862  1.00  0.00     0.109 A 
HETATM    9  C12 UNL     1      23.410   3.636  48.863  1.00  0.00     0.023 A 
HETATM   10  C13 UNL     1      22.410   3.818  47.930  1.00  0.00     0.023 A 
HETATM   11  C14 UNL     1      22.040   5.151  48.104  1.00  0.00     0.013 A 
HETATM   12  C15 UNL     1      22.826   5.703  49.121  1.00  0.00     0.067 A 
HETATM   13  N3  UNL     1      23.667   4.730  49.568  1.00  0.00    -0.240 NA
ENDROOT
BRANCH   1  14
HETATM   14  C5  UNL     1      26.398   4.907  49.358  1.00  0.00     0.011 C 
HETATM   15  C4  UNL     1      27.423   5.585  48.886  1.00  0.00     0.012 C 
BRANCH  15  16
HETATM   16  C3  UNL     1      28.702   5.220  48.232  1.00  0.00     0.083 C 
BRANCH  16  17
HETATM   17  C2  UNL     1      29.647   6.388  48.216  1.00  0.00    -0.031 C 
HETATM   18  C1  UNL     1      30.373   6.835  47.201  1.00  0.00     0.007 C 
ENDBRANCH  16  17
ENDBRANCH  15  16
BRANCH  15  19
HETATM   19  N4  UNL     1      27.401   7.000  48.973  1.00  0.00    -0.327 N 
HETATM   20  C16 UNL     1      26.551   7.776  49.798  1.00  0.00     0.245 C 
HETATM   21  O1  UNL     1      25.678   7.333  50.585  1.00  0.00    -0.268 OA
HETATM   22  H13 UNL     1      28.111   7.417  48.333  1.00  0.00     0.169 HD
BRANCH  20  23
HETATM   23  C17 UNL     1      26.743   9.216  49.690  1.00  0.00     0.072 C 
HETATM   24  C18 UNL     1      27.848   9.698  49.147  1.00  0.00     0.008 C 
BRANCH  24  25
HETATM   25  C19 UNL     1      28.408  11.028  48.861  1.00  0.00     0.299 C 
BRANCH  25  26
HETATM   26  N5  UNL     1      29.841  10.862  48.598  1.00  0.00     0.083 N 
HETATM   27  C20 UNL     1      30.362   9.797  49.477  1.00  0.00     0.309 C 
HETATM   28  C21 UNL     1      30.451  12.113  49.042  1.00  0.00     0.309 C 
ENDBRANCH  25  26
ENDBRANCH  24  25
ENDBRANCH  20  23
ENDBRANCH  15  19
ENDBRANCH   1  14
TORSDOF 7
ENDMDL
