MODEL 1
REMARK VINA RESULT:      -8.0      0.000      0.000
REMARK  2 active torsions:
REMARK  status: ('A' for Active; 'I' for Inactive)
REMARK    1  A    between atoms: O1_2  and  C2_3 
REMARK    2  A    between atoms: C8_11  and  O2_12 
ROOT
HETATM    1  C2  UNL     1      25.095   1.733  53.221  1.00  0.00     0.098 C 
HETATM    2  C3  UNL     1      26.232   2.511  53.355  1.00  0.00     0.168 C 
HETATM    3  C4  UNL     1      27.609   2.011  53.705  1.00  0.00     0.019 A 
HETATM    4  N1  UNL     1      27.680   0.994  54.483  1.00  0.00    -0.339 N 
HETATM    5  C5  UNL     1      26.605   0.362  55.019  1.00  0.00     0.205 C 
HETATM    6  N2  UNL     1      25.767  -0.444  54.669  1.00  0.00    -0.271 NA
HETATM    7  C6  UNL     1      25.766  -1.020  53.259  1.00  0.00     0.167 C 
HETATM    8  C7  UNL     1      24.404  -0.836  53.140  1.00  0.00     0.040 C 
HETATM    9  C8  UNL     1      24.096   0.550  53.121  1.00  0.00     0.074 C 
HETATM   10  C10 UNL     1      26.996  -1.673  53.087  1.00  0.00    -0.029 A 
HETATM   11  C11 UNL     1      27.952  -2.600  52.869  1.00  0.00     0.009 A 
HETATM   12  C12 UNL     1      29.285  -2.270  53.005  1.00  0.00     0.001 A 
HETATM   13  C13 UNL     1      29.858  -1.064  53.352  1.00  0.00     0.009 A 
HETATM   14  C14 UNL     1      29.243   0.125  53.652  1.00  0.00    -0.036 A 
HETATM   15  C15 UNL     1      28.075  -0.712  53.383  1.00  0.00     0.018 A 
HETATM   16  C16 UNL     1      28.935   1.529  54.043  1.00  0.00     0.194 A 
ENDROOT
BRANCH   1  17
HETATM   17  O1  UNL     1      24.372   2.953  52.966  1.00  0.00    -0.383 OA
HETATM   18  C1  UNL     1      24.404   3.602  51.736  1.00  0.00     0.202 C 
ENDBRANCH   1  17
BRANCH   9  19
HETATM   19  O2  UNL     1      22.784   0.872  53.004  1.00  0.00    -0.358 OA
HETATM   20  C9  UNL     1      21.797   0.335  53.854  1.00  0.00     0.209 C 
ENDBRANCH   9  19
TORSDOF 2
ENDMDL
MODEL 2
REMARK VINA RESULT:      -7.7      2.355      5.377
REMARK  2 active torsions:
REMARK  status: ('A' for Active; 'I' for Inactive)
REMARK    1  A    between atoms: O1_2  and  C2_3 
REMARK    2  A    between atoms: C8_11  and  O2_12 
ROOT
HETATM    1  C2  UNL     1      25.675  -0.074  53.750  1.00  0.00     0.098 C 
HETATM    2  C3  UNL     1      24.305  -0.091  53.559  1.00  0.00     0.168 C 
HETATM    3  C4  UNL     1      23.511   0.910  52.762  1.00  0.00     0.019 A 
HETATM    4  N1  UNL     1      23.940   2.119  52.751  1.00  0.00    -0.339 N 
HETATM    5  C5  UNL     1      25.038   2.549  53.423  1.00  0.00     0.205 C 
HETATM    6  N2  UNL     1      26.245   2.524  53.285  1.00  0.00    -0.271 NA
HETATM    7  C6  UNL     1      26.888   1.863  52.073  1.00  0.00     0.167 C 
HETATM    8  C7  UNL     1      27.822   1.226  52.864  1.00  0.00     0.040 C 
HETATM    9  C8  UNL     1      27.189   0.261  53.691  1.00  0.00     0.074 C 
HETATM   10  C10 UNL     1      26.405   2.535  50.941  1.00  0.00    -0.029 A 
HETATM   11  C11 UNL     1      26.309   3.255  49.804  1.00  0.00     0.009 A 
HETATM   12  C12 UNL     1      25.071   3.579  49.287  1.00  0.00     0.001 A 
HETATM   13  C13 UNL     1      23.814   3.271  49.765  1.00  0.00     0.009 A 
HETATM   14  C14 UNL     1      23.473   2.558  50.886  1.00  0.00    -0.036 A 
HETATM   15  C15 UNL     1      24.931   2.504  50.978  1.00  0.00     0.018 A 
HETATM   16  C16 UNL     1      22.747   1.876  51.994  1.00  0.00     0.194 A 
ENDROOT
BRANCH   1  17
HETATM   17  O1  UNL     1      25.506  -1.241  54.578  1.00  0.00    -0.383 OA
HETATM   18  C1  UNL     1      24.647  -1.268  55.672  1.00  0.00     0.202 C 
ENDBRANCH   1  17
BRANCH   9  19
HETATM   19  O2  UNL     1      27.999  -0.443  54.520  1.00  0.00    -0.358 OA
HETATM   20  C9  UNL     1      29.370  -0.629  54.256  1.00  0.00     0.209 C 
ENDBRANCH   9  19
TORSDOF 2
ENDMDL
MODEL 3
REMARK VINA RESULT:      -7.4      2.204      5.242
REMARK  2 active torsions:
REMARK  status: ('A' for Active; 'I' for Inactive)
REMARK    1  A    between atoms: O1_2  and  C2_3 
REMARK    2  A    between atoms: C8_11  and  O2_12 
ROOT
HETATM    1  C2  UNL     1      24.486   0.187  52.999  1.00  0.00     0.098 C 
HETATM    2  C3  UNL     1      23.304   0.906  53.024  1.00  0.00     0.168 C 
HETATM    3  C4  UNL     1      23.129   2.333  52.575  1.00  0.00     0.019 A 
HETATM    4  N1  UNL     1      24.127   3.123  52.737  1.00  0.00    -0.339 N 
HETATM    5  C5  UNL     1      25.307   2.760  53.302  1.00  0.00     0.205 C 
HETATM    6  N2  UNL     1      26.317   2.170  52.976  1.00  0.00    -0.271 NA
HETATM    7  C6  UNL     1      26.483   1.604  51.572  1.00  0.00     0.167 C 
HETATM    8  C7  UNL     1      26.968   0.410  52.066  1.00  0.00     0.040 C 
HETATM    9  C8  UNL     1      25.948  -0.279  52.773  1.00  0.00     0.074 C 
HETATM   10  C10 UNL     1      26.390   2.686  50.685  1.00  0.00    -0.029 A 
HETATM   11  C11 UNL     1      26.652   3.615  49.742  1.00  0.00     0.009 A 
HETATM   12  C12 UNL     1      25.752   4.632  49.499  1.00  0.00     0.001 A 
HETATM   13  C13 UNL     1      24.535   4.887  50.096  1.00  0.00     0.009 A 
HETATM   14  C14 UNL     1      23.903   4.186  51.093  1.00  0.00    -0.036 A 
HETATM   15  C15 UNL     1      25.119   3.389  50.944  1.00  0.00     0.018 A 
HETATM   16  C16 UNL     1      22.962   3.708  52.142  1.00  0.00     0.194 A 
ENDROOT
BRANCH   1  17
HETATM   17  O1  UNL     1      23.756  -0.903  53.596  1.00  0.00    -0.383 OA
HETATM   18  C1  UNL     1      22.412  -1.142  53.330  1.00  0.00     0.202 C 
ENDBRANCH   1  17
BRANCH   9  19
HETATM   19  O2  UNL     1      26.295  -1.476  53.311  1.00  0.00    -0.358 OA
HETATM   20  C9  UNL     1      27.229  -2.335  52.700  1.00  0.00     0.209 C 
ENDBRANCH   9  19
TORSDOF 2
ENDMDL
MODEL 4
REMARK VINA RESULT:      -7.4      2.912      5.939
REMARK  2 active torsions:
REMARK  status: ('A' for Active; 'I' for Inactive)
REMARK    1  A    between atoms: O1_2  and  C2_3 
REMARK    2  A    between atoms: C8_11  and  O2_12 
ROOT
HETATM    1  C2  UNL     1      26.149   2.073  51.646  1.00  0.00     0.098 C 
HETATM    2  C3  UNL     1      25.896   1.155  52.649  1.00  0.00     0.168 C 
HETATM    3  C4  UNL     1      24.536   0.681  53.091  1.00  0.00     0.019 A 
HETATM    4  N1  UNL     1      23.571   1.523  53.014  1.00  0.00    -0.339 N 
HETATM    5  C5  UNL     1      23.704   2.804  52.583  1.00  0.00     0.205 C 
HETATM    6  N2  UNL     1      23.798   3.393  51.525  1.00  0.00    -0.271 NA
HETATM    7  C6  UNL     1      23.779   2.643  50.200  1.00  0.00     0.167 C 
HETATM    8  C7  UNL     1      24.848   3.375  49.724  1.00  0.00     0.040 C 
HETATM    9  C8  UNL     1      26.021   3.069  50.463  1.00  0.00     0.074 C 
HETATM   10  C10 UNL     1      22.553   1.966  50.134  1.00  0.00    -0.029 A 
HETATM   11  C11 UNL     1      21.331   1.531  49.762  1.00  0.00     0.009 A 
HETATM   12  C12 UNL     1      20.634   0.647  50.561  1.00  0.00     0.001 A 
HETATM   13  C13 UNL     1      20.996   0.085  51.768  1.00  0.00     0.009 A 
HETATM   14  C14 UNL     1      22.151   0.262  52.487  1.00  0.00    -0.036 A 
HETATM   15  C15 UNL     1      22.421   1.130  51.342  1.00  0.00     0.018 A 
HETATM   16  C16 UNL     1      23.225   0.226  53.517  1.00  0.00     0.194 A 
ENDROOT
BRANCH   1  17
HETATM   17  O1  UNL     1      27.548   1.933  51.963  1.00  0.00    -0.383 OA
HETATM   18  C1  UNL     1      28.065   2.220  53.222  1.00  0.00     0.202 C 
ENDBRANCH   1  17
BRANCH   9  19
HETATM   19  O2  UNL     1      27.151   3.721  50.093  1.00  0.00    -0.358 OA
HETATM   20  C9  UNL     1      27.208   4.543  48.951  1.00  0.00     0.209 C 
ENDBRANCH   9  19
TORSDOF 2
ENDMDL
MODEL 5
REMARK VINA RESULT:      -7.2      1.425      3.362
REMARK  2 active torsions:
REMARK  status: ('A' for Active; 'I' for Inactive)
REMARK    1  A    between atoms: O1_2  and  C2_3 
REMARK    2  A    between atoms: C8_11  and  O2_12 
ROOT
HETATM    1  C2  UNL     1      24.061   0.383  53.072  1.00  0.00     0.098 C 
HETATM    2  C3  UNL     1      24.566  -0.899  53.196  1.00  0.00     0.168 C 
HETATM    3  C4  UNL     1      26.018  -1.289  53.106  1.00  0.00     0.019 A 
HETATM    4  N1  UNL     1      26.760  -0.600  52.319  1.00  0.00    -0.339 N 
HETATM    5  C5  UNL     1      26.317   0.431  51.555  1.00  0.00     0.205 C 
HETATM    6  N2  UNL     1      26.040   1.605  51.701  1.00  0.00    -0.271 NA
HETATM    7  C6  UNL     1      26.164   2.283  53.059  1.00  0.00     0.167 C 
HETATM    8  C7  UNL     1      24.935   2.892  52.913  1.00  0.00     0.040 C 
HETATM    9  C8  UNL     1      23.901   1.920  52.926  1.00  0.00     0.074 C 
HETATM   10  C10 UNL     1      27.508   2.174  53.445  1.00  0.00    -0.029 A 
HETATM   11  C11 UNL     1      28.778   2.447  53.811  1.00  0.00     0.009 A 
HETATM   12  C12 UNL     1      29.696   1.427  53.954  1.00  0.00     0.001 A 
HETATM   13  C13 UNL     1      29.532   0.069  53.775  1.00  0.00     0.009 A 
HETATM   14  C14 UNL     1      28.403  -0.619  53.407  1.00  0.00    -0.036 A 
HETATM   15  C15 UNL     1      27.887   0.749  53.406  1.00  0.00     0.018 A 
HETATM   16  C16 UNL     1      27.417  -1.664  53.019  1.00  0.00     0.194 A 
ENDROOT
BRANCH   1  17
HETATM   17  O1  UNL     1      22.748  -0.191  53.227  1.00  0.00    -0.383 OA
HETATM   18  C1  UNL     1      22.372  -0.910  54.357  1.00  0.00     0.202 C 
ENDBRANCH   1  17
BRANCH   9  19
HETATM   19  O2  UNL     1      22.634   2.389  52.793  1.00  0.00    -0.358 OA
HETATM   20  C9  UNL     1      22.201   3.077  51.644  1.00  0.00     0.209 C 
ENDBRANCH   9  19
TORSDOF 2
ENDMDL
MODEL 6
REMARK VINA RESULT:      -7.1      2.942      5.247
REMARK  2 active torsions:
REMARK  status: ('A' for Active; 'I' for Inactive)
REMARK    1  A    between atoms: O1_2  and  C2_3 
REMARK    2  A    between atoms: C8_11  and  O2_12 
ROOT
HETATM    1  C2  UNL     1      21.200   3.155  52.359  1.00  0.00     0.098 C 
HETATM    2  C3  UNL     1      20.718   1.887  52.634  1.00  0.00     0.168 C 
HETATM    3  C4  UNL     1      21.550   0.646  52.816  1.00  0.00     0.019 A 
HETATM    4  N1  UNL     1      22.634   0.564  52.135  1.00  0.00    -0.339 N 
HETATM    5  C5  UNL     1      23.059   1.507  51.255  1.00  0.00     0.205 C 
HETATM    6  N2  UNL     1      23.613   2.587  51.291  1.00  0.00    -0.271 NA
HETATM    7  C6  UNL     1      24.021   3.222  52.613  1.00  0.00     0.167 C 
HETATM    8  C7  UNL     1      23.522   4.448  52.226  1.00  0.00     0.040 C 
HETATM    9  C8  UNL     1      22.108   4.387  52.109  1.00  0.00     0.074 C 
HETATM   10  C10 UNL     1      24.914   2.333  53.231  1.00  0.00    -0.029 A 
HETATM   11  C11 UNL     1      26.004   1.776  53.797  1.00  0.00     0.009 A 
HETATM   12  C12 UNL     1      26.002   0.442  54.148  1.00  0.00     0.001 A 
HETATM   13  C13 UNL     1      25.000  -0.498  54.013  1.00  0.00     0.009 A 
HETATM   14  C14 UNL     1      23.741  -0.343  53.490  1.00  0.00    -0.036 A 
HETATM   15  C15 UNL     1      24.259   1.015  53.331  1.00  0.00     0.018 A 
HETATM   16  C16 UNL     1      22.354  -0.550  52.991  1.00  0.00     0.194 A 
ENDROOT
BRANCH   1  17
HETATM   17  O1  UNL     1      19.827   3.593  52.314  1.00  0.00    -0.383 OA
HETATM   18  C1  UNL     1      18.894   3.052  51.436  1.00  0.00     0.202 C 
ENDBRANCH   1  17
BRANCH   9  19
HETATM   19  O2  UNL     1      21.487   5.534  51.736  1.00  0.00    -0.358 OA
HETATM   20  C9  UNL     1      21.635   6.089  50.450  1.00  0.00     0.209 C 
ENDBRANCH   9  19
TORSDOF 2
ENDMDL
MODEL 7
REMARK VINA RESULT:      -7.1      2.511      5.824
REMARK  2 active torsions:
REMARK  status: ('A' for Active; 'I' for Inactive)
REMARK    1  A    between atoms: O1_2  and  C2_3 
REMARK    2  A    between atoms: C8_11  and  O2_12 
ROOT
HETATM    1  C2  UNL     1      26.246   0.442  52.935  1.00  0.00     0.098 C 
HETATM    2  C3  UNL     1      25.302  -0.478  53.356  1.00  0.00     0.168 C 
HETATM    3  C4  UNL     1      23.816  -0.387  53.127  1.00  0.00     0.019 A 
HETATM    4  N1  UNL     1      23.301   0.787  53.096  1.00  0.00    -0.339 N 
HETATM    5  C5  UNL     1      24.001   1.936  53.278  1.00  0.00     0.205 C 
HETATM    6  N2  UNL     1      24.732   2.656  52.629  1.00  0.00    -0.271 NA
HETATM    7  C6  UNL     1      25.075   2.335  51.180  1.00  0.00     0.167 C 
HETATM    8  C7  UNL     1      26.411   2.605  51.393  1.00  0.00     0.040 C 
HETATM    9  C8  UNL     1      26.972   1.642  52.272  1.00  0.00     0.074 C 
HETATM   10  C10 UNL     1      23.864   2.311  50.472  1.00  0.00    -0.029 A 
HETATM   11  C11 UNL     1      22.868   2.569  49.600  1.00  0.00     0.009 A 
HETATM   12  C12 UNL     1      21.654   1.924  49.720  1.00  0.00     0.001 A 
HETATM   13  C13 UNL     1      21.246   0.989  50.649  1.00  0.00     0.009 A 
HETATM   14  C14 UNL     1      21.951   0.456  51.698  1.00  0.00    -0.036 A 
HETATM   15  C15 UNL     1      22.957   1.359  51.140  1.00  0.00     0.018 A 
HETATM   16  C16 UNL     1      22.385  -0.299  52.906  1.00  0.00     0.194 A 
ENDROOT
BRANCH   1  17
HETATM   17  O1  UNL     1      27.236  -0.377  53.587  1.00  0.00    -0.383 OA
HETATM   18  C1  UNL     1      27.770  -1.520  53.000  1.00  0.00     0.202 C 
ENDBRANCH   1  17
BRANCH   9  19
HETATM   19  O2  UNL     1      28.289   1.791  52.564  1.00  0.00    -0.358 OA
HETATM   20  C9  UNL     1      28.738   2.563  53.653  1.00  0.00     0.209 C 
ENDBRANCH   9  19
TORSDOF 2
ENDMDL
MODEL 8
REMARK VINA RESULT:      -7.0      2.638      3.858
REMARK  2 active torsions:
REMARK  status: ('A' for Active; 'I' for Inactive)
REMARK    1  A    between atoms: O1_2  and  C2_3 
REMARK    2  A    between atoms: C8_11  and  O2_12 
ROOT
HETATM    1  C2  UNL     1      25.138   2.716  50.437  1.00  0.00     0.098 C 
HETATM    2  C3  UNL     1      26.402   2.684  50.998  1.00  0.00     0.168 C 
HETATM    3  C4  UNL     1      26.748   2.148  52.363  1.00  0.00     0.019 A 
HETATM    4  N1  UNL     1      25.863   2.275  53.282  1.00  0.00    -0.339 N 
HETATM    5  C5  UNL     1      24.658   2.875  53.108  1.00  0.00     0.205 C 
HETATM    6  N2  UNL     1      23.574   2.598  52.634  1.00  0.00    -0.271 NA
HETATM    7  C6  UNL     1      23.310   1.232  52.014  1.00  0.00     0.167 C 
HETATM    8  C7  UNL     1      22.686   1.802  50.924  1.00  0.00     0.040 C 
HETATM    9  C8  UNL     1      23.624   2.537  50.150  1.00  0.00     0.074 C 
HETATM   10  C10 UNL     1      23.522   0.281  53.022  1.00  0.00    -0.029 A 
HETATM   11  C11 UNL     1      23.362  -0.712  53.922  1.00  0.00     0.009 A 
HETATM   12  C12 UNL     1      24.380  -1.027  54.799  1.00  0.00     0.001 A 
HETATM   13  C13 UNL     1      25.631  -0.461  54.929  1.00  0.00     0.009 A 
HETATM   14  C14 UNL     1      26.188   0.568  54.212  1.00  0.00    -0.036 A 
HETATM   15  C15 UNL     1      24.877   0.482  53.570  1.00  0.00     0.018 A 
HETATM   16  C16 UNL     1      27.082   1.632  53.678  1.00  0.00     0.194 A 
ENDROOT
BRANCH   1  17
HETATM   17  O1  UNL     1      25.735   3.368  49.298  1.00  0.00    -0.383 OA
HETATM   18  C1  UNL     1      26.571   4.473  49.418  1.00  0.00     0.202 C 
ENDBRANCH   1  17
BRANCH   9  19
HETATM   19  O2  UNL     1      23.138   3.148  49.041  1.00  0.00    -0.358 OA
HETATM   20  C9  UNL     1      22.395   2.458  48.063  1.00  0.00     0.209 C 
ENDBRANCH   9  19
TORSDOF 2
ENDMDL
MODEL 9
REMARK VINA RESULT:      -6.9      8.697      9.808
REMARK  2 active torsions:
REMARK  status: ('A' for Active; 'I' for Inactive)
REMARK    1  A    between atoms: O1_2  and  C2_3 
REMARK    2  A    between atoms: C8_11  and  O2_12 
ROOT
HETATM    1  C2  UNL     1      31.376   7.951  48.374  1.00  0.00     0.098 C 
HETATM    2  C3  UNL     1      32.736   8.194  48.445  1.00  0.00     0.168 C 
HETATM    3  C4  UNL     1      33.821   7.150  48.443  1.00  0.00     0.019 A 
HETATM    4  N1  UNL     1      33.548   6.023  48.991  1.00  0.00    -0.339 N 
HETATM    5  C5  UNL     1      32.363   5.727  49.585  1.00  0.00     0.205 C 
HETATM    6  N2  UNL     1      31.243   5.400  49.246  1.00  0.00    -0.271 NA
HETATM    7  C6  UNL     1      30.883   5.225  47.777  1.00  0.00     0.167 C 
HETATM    8  C7  UNL     1      29.705   5.925  47.940  1.00  0.00     0.040 C 
HETATM    9  C8  UNL     1      29.981   7.286  48.235  1.00  0.00     0.074 C 
HETATM   10  C10 UNL     1      31.724   4.225  47.268  1.00  0.00    -0.029 A 
HETATM   11  C11 UNL     1      32.202   3.092  46.713  1.00  0.00     0.009 A 
HETATM   12  C12 UNL     1      33.562   2.859  46.668  1.00  0.00     0.001 A 
HETATM   13  C13 UNL     1      34.601   3.643  47.126  1.00  0.00     0.009 A 
HETATM   14  C14 UNL     1      34.546   4.865  47.747  1.00  0.00    -0.036 A 
HETATM   15  C15 UNL     1      33.121   4.614  47.541  1.00  0.00     0.018 A 
HETATM   16  C16 UNL     1      34.866   6.143  48.441  1.00  0.00     0.194 A 
ENDROOT
BRANCH   1  17
HETATM   17  O1  UNL     1      31.184   9.376  48.484  1.00  0.00    -0.383 OA
HETATM   18  C1  UNL     1      31.733  10.279  47.580  1.00  0.00     0.202 C 
ENDBRANCH   1  17
BRANCH   9  19
HETATM   19  O2  UNL     1      28.903   8.091  48.417  1.00  0.00    -0.358 OA
HETATM   20  C9  UNL     1      27.614   7.581  48.665  1.00  0.00     0.209 C 
ENDBRANCH   9  19
TORSDOF 2
ENDMDL
