MODEL 1
REMARK VINA RESULT:      -7.5      0.000      0.000
REMARK  4 active torsions:
REMARK  status: ('A' for Active; 'I' for Inactive)
REMARK    1  A    between atoms: C2_2  and  C3_3 
REMARK    2  A    between atoms: C3_3  and  N1_4 
REMARK    3  A    between atoms: C10_11  and  C11_12 
REMARK    4  A    between atoms: C11_12  and  O1_13 
ROOT
HETATM    1  N1  UNL     1      23.867   4.538  50.021  1.00  0.00    -0.387 N 
HETATM    2  C4  UNL     1      24.776   3.446  49.746  1.00  0.00     0.086 C 
HETATM    3  C5  UNL     1      26.004   3.542  49.319  1.00  0.00     0.017 C 
HETATM    4  C6  UNL     1      26.674   4.811  49.046  1.00  0.00     0.001 C 
HETATM    5  C7  UNL     1      27.918   4.815  48.613  1.00  0.00    -0.000 C 
HETATM    6  C8  UNL     1      28.778   5.933  48.277  1.00  0.00    -0.002 C 
HETATM    7  C9  UNL     1      28.772   7.262  48.240  1.00  0.00     0.000 C 
HETATM    8  C10 UNL     1      29.725   8.306  47.871  1.00  0.00     0.129 C 
HETATM    9  N2  UNL     1      29.103   9.394  47.187  1.00  0.00    -0.364 N 
HETATM   10  C12 UNL     1      28.271  10.475  47.556  1.00  0.00     0.139 A 
HETATM   11  N3  UNL     1      29.135  11.138  48.309  1.00  0.00    -0.224 NA
HETATM   12  C13 UNL     1      28.967  12.284  48.974  1.00  0.00     0.236 A 
HETATM   13  N4  UNL     1      27.724  12.763  48.805  1.00  0.00    -0.234 NA
HETATM   14  C14 UNL     1      26.843  12.081  48.033  1.00  0.00     0.114 A 
HETATM   15  S1  UNL     1      25.076  12.464  47.617  1.00  0.00    -0.072 SA
HETATM   16  C15 UNL     1      24.746  10.966  46.545  1.00  0.00     0.010 A 
HETATM   17  C16 UNL     1      26.051  10.344  46.631  1.00  0.00    -0.025 A 
HETATM   18  C17 UNL     1      27.011  10.922  47.359  1.00  0.00     0.053 A 
HETATM   19  C18 UNL     1      26.360   9.108  45.934  1.00  0.00     0.060 C 
HETATM   20  C19 UNL     1      25.136   8.369  45.548  1.00  0.00     0.131 C 
HETATM   21  N5  UNL     1      23.899   8.749  46.203  1.00  0.00    -0.344 N 
HETATM   22  C20 UNL     1      23.801  10.167  45.729  1.00  0.00     0.172 C 
HETATM   23  C21 UNL     1      23.185   7.889  47.059  1.00  0.00     0.243 C 
HETATM   24  O2  UNL     1      22.377   8.826  47.041  1.00  0.00    -0.268 OA
HETATM   25  C22 UNL     1      22.479   7.008  47.921  1.00  0.00     0.072 C 
HETATM   26  C23 UNL     1      23.119   5.910  48.168  1.00  0.00    -0.002 C 
HETATM   27  C24 UNL     1      22.862   4.690  48.969  1.00  0.00     0.149 C 
HETATM   28  H18 UNL     1      29.248   9.491  46.141  1.00  0.00     0.162 HD
ENDROOT
BRANCH   1  29
HETATM   29  C3  UNL     1      24.137   5.253  51.239  1.00  0.00     0.122 C 
BRANCH  29  30
HETATM   30  C2  UNL     1      23.415   4.671  52.412  1.00  0.00     0.015 C 
HETATM   31  C1  UNL     1      24.120   3.578  53.152  1.00  0.00     0.006 C 
ENDBRANCH  29  30
ENDBRANCH   1  29
BRANCH   8  32
HETATM   32  C11 UNL     1      30.849   7.707  47.053  1.00  0.00     0.193 C 
BRANCH  32  33
HETATM   33  O1  UNL     1      31.979   7.490  47.868  1.00  0.00    -0.399 OA
HETATM   34  H17 UNL     1      31.630   7.048  48.692  1.00  0.00     0.209 HD
ENDBRANCH  32  33
ENDBRANCH   8  32
TORSDOF 4
ENDMDL
MODEL 2
REMARK VINA RESULT:      -7.5      2.921      7.292
REMARK  4 active torsions:
REMARK  status: ('A' for Active; 'I' for Inactive)
REMARK    1  A    between atoms: C2_2  and  C3_3 
REMARK    2  A    between atoms: C3_3  and  N1_4 
REMARK    3  A    between atoms: C10_11  and  C11_12 
REMARK    4  A    between atoms: C11_12  and  O1_13 
ROOT
HETATM    1  N1  UNL     1      33.186   6.341  45.889  1.00  0.00    -0.387 N 
HETATM    2  C4  UNL     1      33.022   5.139  46.678  1.00  0.00     0.086 C 
HETATM    3  C5  UNL     1      31.968   4.792  47.361  1.00  0.00     0.017 C 
HETATM    4  C6  UNL     1      30.747   5.590  47.435  1.00  0.00     0.001 C 
HETATM    5  C7  UNL     1      29.728   5.165  48.154  1.00  0.00    -0.000 C 
HETATM    6  C8  UNL     1      28.432   5.775  48.377  1.00  0.00    -0.002 C 
HETATM    7  C9  UNL     1      27.732   6.855  48.043  1.00  0.00     0.000 C 
HETATM    8  C10 UNL     1      26.399   7.375  48.340  1.00  0.00     0.129 C 
HETATM    9  N2  UNL     1      26.394   8.792  48.514  1.00  0.00    -0.364 N 
HETATM   10  C12 UNL     1      26.492   9.915  47.660  1.00  0.00     0.139 A 
HETATM   11  N3  UNL     1      25.354   9.757  47.001  1.00  0.00    -0.224 NA
HETATM   12  C13 UNL     1      24.836  10.508  46.026  1.00  0.00     0.236 A 
HETATM   13  N4  UNL     1      25.641  11.543  45.732  1.00  0.00    -0.234 NA
HETATM   14  C14 UNL     1      26.804  11.699  46.410  1.00  0.00     0.114 A 
HETATM   15  S1  UNL     1      28.121  12.995  46.237  1.00  0.00    -0.072 SA
HETATM   16  C15 UNL     1      29.276  12.349  47.560  1.00  0.00     0.010 A 
HETATM   17  C16 UNL     1      28.501  11.202  47.985  1.00  0.00    -0.025 A 
HETATM   18  C17 UNL     1      27.330  10.941  47.397  1.00  0.00     0.053 A 
HETATM   19  C18 UNL     1      28.952  10.324  49.052  1.00  0.00     0.060 C 
HETATM   20  C19 UNL     1      30.405  10.455  49.300  1.00  0.00     0.131 C 
HETATM   21  N5  UNL     1      31.197  11.103  48.272  1.00  0.00    -0.344 N 
HETATM   22  C20 UNL     1      30.558  12.458  48.295  1.00  0.00     0.172 C 
HETATM   23  C21 UNL     1      32.194  10.437  47.534  1.00  0.00     0.243 C 
HETATM   24  O2  UNL     1      32.377  11.575  47.085  1.00  0.00    -0.268 OA
HETATM   25  C22 UNL     1      33.194   9.748  46.797  1.00  0.00     0.072 C 
HETATM   26  C23 UNL     1      33.222   8.476  47.035  1.00  0.00    -0.002 C 
HETATM   27  C24 UNL     1      34.030   7.327  46.564  1.00  0.00     0.149 C 
HETATM   28  H18 UNL     1      26.297   9.187  49.494  1.00  0.00     0.162 HD
ENDROOT
BRANCH   1  29
HETATM   29  C3  UNL     1      32.487   6.336  44.632  1.00  0.00     0.122 C 
BRANCH  29  30
HETATM   30  C2  UNL     1      33.404   6.109  43.472  1.00  0.00     0.015 C 
HETATM   31  C1  UNL     1      33.434   4.722  42.910  1.00  0.00     0.006 C 
ENDBRANCH  29  30
ENDBRANCH   1  29
BRANCH   8  32
HETATM   32  C11 UNL     1      25.831   6.666  49.551  1.00  0.00     0.193 C 
BRANCH  32  33
HETATM   33  O1  UNL     1      26.193   7.351  50.729  1.00  0.00    -0.399 OA
HETATM   34  H17 UNL     1      26.073   6.689  51.467  1.00  0.00     0.209 HD
ENDBRANCH  32  33
ENDBRANCH   8  32
TORSDOF 4
ENDMDL
MODEL 3
REMARK VINA RESULT:      -7.3      3.091      7.340
REMARK  4 active torsions:
REMARK  status: ('A' for Active; 'I' for Inactive)
REMARK    1  A    between atoms: C2_2  and  C3_3 
REMARK    2  A    between atoms: C3_3  and  N1_4 
REMARK    3  A    between atoms: C10_11  and  C11_12 
REMARK    4  A    between atoms: C11_12  and  O1_13 
ROOT
HETATM    1  N1  UNL     1      26.361   9.329  45.933  1.00  0.00    -0.387 N 
HETATM    2  C4  UNL     1      27.722   9.148  46.386  1.00  0.00     0.086 C 
HETATM    3  C5  UNL     1      28.174   8.179  47.133  1.00  0.00     0.017 C 
HETATM    4  C6  UNL     1      27.344   7.088  47.639  1.00  0.00     0.001 C 
HETATM    5  C7  UNL     1      27.883   6.150  48.391  1.00  0.00    -0.000 C 
HETATM    6  C8  UNL     1      27.271   4.988  49.003  1.00  0.00    -0.002 C 
HETATM    7  C9  UNL     1      26.094   4.377  49.104  1.00  0.00     0.000 C 
HETATM    8  C10 UNL     1      25.586   3.179  49.768  1.00  0.00     0.129 C 
HETATM    9  N2  UNL     1      24.280   3.370  50.313  1.00  0.00    -0.364 N 
HETATM   10  C12 UNL     1      22.971   3.467  49.789  1.00  0.00     0.139 A 
HETATM   11  N3  UNL     1      22.854   2.230  49.331  1.00  0.00    -0.224 NA
HETATM   12  C13 UNL     1      21.821   1.660  48.704  1.00  0.00     0.236 A 
HETATM   13  N4  UNL     1      20.806   2.527  48.556  1.00  0.00    -0.234 NA
HETATM   14  C14 UNL     1      20.932   3.791  49.027  1.00  0.00     0.114 A 
HETATM   15  S1  UNL     1      19.737   5.210  48.970  1.00  0.00    -0.072 SA
HETATM   16  C15 UNL     1      20.813   6.472  49.837  1.00  0.00     0.010 A 
HETATM   17  C16 UNL     1      21.976   5.641  50.074  1.00  0.00    -0.025 A 
HETATM   18  C17 UNL     1      21.974   4.371  49.662  1.00  0.00     0.053 A 
HETATM   19  C18 UNL     1      23.150   6.145  50.765  1.00  0.00     0.060 C 
HETATM   20  C19 UNL     1      23.199   7.624  50.770  1.00  0.00     0.131 C 
HETATM   21  N5  UNL     1      22.344   8.317  49.825  1.00  0.00    -0.344 N 
HETATM   22  C20 UNL     1      21.009   7.857  50.327  1.00  0.00     0.172 C 
HETATM   23  C21 UNL     1      22.841   9.101  48.767  1.00  0.00     0.243 C 
HETATM   24  O2  UNL     1      21.639   9.346  48.614  1.00  0.00    -0.268 OA
HETATM   25  C22 UNL     1      23.362   9.885  47.703  1.00  0.00     0.072 C 
HETATM   26  C23 UNL     1      24.648   9.798  47.582  1.00  0.00    -0.002 C 
HETATM   27  C24 UNL     1      25.670  10.380  46.681  1.00  0.00     0.149 C 
HETATM   28  H18 UNL     1      24.175   3.475  51.363  1.00  0.00     0.162 HD
ENDROOT
BRANCH   1  29
HETATM   29  C3  UNL     1      25.958   8.448  44.870  1.00  0.00     0.122 C 
BRANCH  29  30
HETATM   30  C2  UNL     1      24.621   8.810  44.306  1.00  0.00     0.015 C 
HETATM   31  C1  UNL     1      23.618   7.703  44.206  1.00  0.00     0.006 C 
ENDBRANCH  29  30
ENDBRANCH   1  29
BRANCH   8  32
HETATM   32  C11 UNL     1      26.568   2.726  50.827  1.00  0.00     0.193 C 
BRANCH  32  33
HETATM   33  O1  UNL     1      26.016   2.910  52.111  1.00  0.00    -0.399 OA
HETATM   34  H17 UNL     1      25.031   2.794  51.995  1.00  0.00     0.209 HD
ENDBRANCH  32  33
ENDBRANCH   8  32
TORSDOF 4
ENDMDL
MODEL 4
REMARK VINA RESULT:      -7.3      4.804      9.326
REMARK  4 active torsions:
REMARK  status: ('A' for Active; 'I' for Inactive)
REMARK    1  A    between atoms: C2_2  and  C3_3 
REMARK    2  A    between atoms: C3_3  and  N1_4 
REMARK    3  A    between atoms: C10_11  and  C11_12 
REMARK    4  A    between atoms: C11_12  and  O1_13 
ROOT
HETATM    1  N1  UNL     1      33.847   8.199  41.394  1.00  0.00    -0.387 N 
HETATM    2  C4  UNL     1      34.847   7.163  41.257  1.00  0.00     0.086 C 
HETATM    3  C5  UNL     1      35.005   6.123  42.028  1.00  0.00     0.017 C 
HETATM    4  C6  UNL     1      34.164   5.835  43.187  1.00  0.00     0.001 C 
HETATM    5  C7  UNL     1      34.397   4.762  43.914  1.00  0.00    -0.000 C 
HETATM    6  C8  UNL     1      33.709   4.275  45.094  1.00  0.00    -0.002 C 
HETATM    7  C9  UNL     1      32.693   4.583  45.894  1.00  0.00     0.000 C 
HETATM    8  C10 UNL     1      32.080   4.001  47.085  1.00  0.00     0.129 C 
HETATM    9  N2  UNL     1      31.672   4.991  48.028  1.00  0.00    -0.364 N 
HETATM   10  C12 UNL     1      30.619   5.930  48.114  1.00  0.00     0.139 A 
HETATM   11  N3  UNL     1      29.608   5.080  48.217  1.00  0.00    -0.224 NA
HETATM   12  C13 UNL     1      28.303   5.336  48.335  1.00  0.00     0.236 A 
HETATM   13  N4  UNL     1      28.067   6.658  48.339  1.00  0.00    -0.234 NA
HETATM   14  C14 UNL     1      29.104   7.523  48.233  1.00  0.00     0.114 A 
HETATM   15  S1  UNL     1      29.112   9.378  48.195  1.00  0.00    -0.072 SA
HETATM   16  C15 UNL     1      30.960   9.613  48.016  1.00  0.00     0.010 A 
HETATM   17  C16 UNL     1      31.357   8.220  48.011  1.00  0.00    -0.025 A 
HETATM   18  C17 UNL     1      30.426   7.268  48.115  1.00  0.00     0.053 A 
HETATM   19  C18 UNL     1      32.750   7.820  47.910  1.00  0.00     0.060 C 
HETATM   20  C19 UNL     1      33.601   8.906  47.373  1.00  0.00     0.131 C 
HETATM   21  N5  UNL     1      32.929  10.005  46.706  1.00  0.00    -0.344 N 
HETATM   22  C20 UNL     1      32.118  10.523  47.854  1.00  0.00     0.172 C 
HETATM   23  C21 UNL     1      33.088  10.288  45.336  1.00  0.00     0.243 C 
HETATM   24  O2  UNL     1      32.389  11.263  45.634  1.00  0.00    -0.268 OA
HETATM   25  C22 UNL     1      33.260  10.556  43.951  1.00  0.00     0.072 C 
HETATM   26  C23 UNL     1      33.947   9.649  43.334  1.00  0.00    -0.002 C 
HETATM   27  C24 UNL     1      34.409   9.433  41.943  1.00  0.00     0.149 C 
HETATM   28  H18 UNL     1      32.244   5.123  48.912  1.00  0.00     0.162 HD
ENDROOT
BRANCH   1  29
HETATM   29  C3  UNL     1      32.521   7.814  40.990  1.00  0.00     0.122 C 
BRANCH  29  30
HETATM   30  C2  UNL     1      31.804   8.912  40.271  1.00  0.00     0.015 C 
HETATM   31  C1  UNL     1      30.793   9.678  41.065  1.00  0.00     0.006 C 
ENDBRANCH  29  30
ENDBRANCH   1  29
BRANCH   8  32
HETATM   32  C11 UNL     1      33.027   2.998  47.709  1.00  0.00     0.193 C 
BRANCH  32  33
HETATM   33  O1  UNL     1      34.001   3.665  48.480  1.00  0.00    -0.399 OA
HETATM   34  H17 UNL     1      33.735   3.513  49.431  1.00  0.00     0.209 HD
ENDBRANCH  32  33
ENDBRANCH   8  32
TORSDOF 4
ENDMDL
MODEL 5
REMARK VINA RESULT:      -6.7      2.136      2.582
REMARK  4 active torsions:
REMARK  status: ('A' for Active; 'I' for Inactive)
REMARK    1  A    between atoms: C2_2  and  C3_3 
REMARK    2  A    between atoms: C3_3  and  N1_4 
REMARK    3  A    between atoms: C10_11  and  C11_12 
REMARK    4  A    between atoms: C11_12  and  O1_13 
ROOT
HETATM    1  N1  UNL     1      23.651   6.477  48.874  1.00  0.00    -0.387 N 
HETATM    2  C4  UNL     1      24.101   5.113  49.048  1.00  0.00     0.086 C 
HETATM    3  C5  UNL     1      25.328   4.680  48.971  1.00  0.00     0.017 C 
HETATM    4  C6  UNL     1      26.477   5.538  48.691  1.00  0.00     0.001 C 
HETATM    5  C7  UNL     1      27.685   5.015  48.628  1.00  0.00    -0.000 C 
HETATM    6  C8  UNL     1      28.959   5.655  48.365  1.00  0.00    -0.002 C 
HETATM    7  C9  UNL     1      29.476   6.853  48.109  1.00  0.00     0.000 C 
HETATM    8  C10 UNL     1      30.811   7.388  47.854  1.00  0.00     0.129 C 
HETATM    9  N2  UNL     1      30.808   8.406  46.854  1.00  0.00    -0.364 N 
HETATM   10  C12 UNL     1      30.405   9.760  46.793  1.00  0.00     0.139 A 
HETATM   11  N3  UNL     1      31.291  10.265  47.638  1.00  0.00    -0.224 NA
HETATM   12  C13 UNL     1      31.451  11.531  48.030  1.00  0.00     0.236 A 
HETATM   13  N4  UNL     1      30.552  12.338  47.444  1.00  0.00    -0.234 NA
HETATM   14  C14 UNL     1      29.647  11.815  46.581  1.00  0.00     0.114 A 
HETATM   15  S1  UNL     1      28.286  12.646  45.631  1.00  0.00    -0.072 SA
HETATM   16  C15 UNL     1      27.622  11.122  44.771  1.00  0.00     0.010 A 
HETATM   17  C16 UNL     1      28.539  10.144  45.320  1.00  0.00    -0.025 A 
HETATM   18  C17 UNL     1      29.483  10.535  46.181  1.00  0.00     0.053 A 
HETATM   19  C18 UNL     1      28.476   8.741  44.950  1.00  0.00     0.060 C 
HETATM   20  C19 UNL     1      27.164   8.380  44.365  1.00  0.00     0.131 C 
HETATM   21  N5  UNL     1      26.068   9.306  44.577  1.00  0.00    -0.344 N 
HETATM   22  C20 UNL     1      26.624  10.503  43.867  1.00  0.00     0.172 C 
HETATM   23  C21 UNL     1      24.922   8.984  45.329  1.00  0.00     0.243 C 
HETATM   24  O2  UNL     1      24.562  10.099  44.932  1.00  0.00    -0.268 OA
HETATM   25  C22 UNL     1      23.775   8.642  46.093  1.00  0.00     0.072 C 
HETATM   26  C23 UNL     1      23.876   7.496  46.687  1.00  0.00    -0.002 C 
HETATM   27  C24 UNL     1      23.013   6.681  47.573  1.00  0.00     0.149 C 
HETATM   28  H18 UNL     1      31.184   8.177  45.889  1.00  0.00     0.162 HD
ENDROOT
BRANCH   1  29
HETATM   29  C3  UNL     1      23.930   7.349  49.984  1.00  0.00     0.122 C 
BRANCH  29  30
HETATM   30  C2  UNL     1      22.972   7.153  51.116  1.00  0.00     0.015 C 
HETATM   31  C1  UNL     1      21.522   7.358  50.804  1.00  0.00     0.006 C 
ENDBRANCH  29  30
ENDBRANCH   1  29
BRANCH   8  32
HETATM   32  C11 UNL     1      31.754   6.259  47.493  1.00  0.00     0.193 C 
BRANCH  32  33
HETATM   33  O1  UNL     1      32.471   5.843  48.634  1.00  0.00    -0.399 OA
HETATM   34  H17 UNL     1      33.281   6.425  48.663  1.00  0.00     0.209 HD
ENDBRANCH  32  33
ENDBRANCH   8  32
TORSDOF 4
ENDMDL
MODEL 6
REMARK VINA RESULT:      -6.6     20.983     23.626
REMARK  4 active torsions:
REMARK  status: ('A' for Active; 'I' for Inactive)
REMARK    1  A    between atoms: C2_2  and  C3_3 
REMARK    2  A    between atoms: C3_3  and  N1_4 
REMARK    3  A    between atoms: C10_11  and  C11_12 
REMARK    4  A    between atoms: C11_12  and  O1_13 
ROOT
HETATM    1  N1  UNL     1      24.849  -8.704  65.410  1.00  0.00    -0.387 N 
HETATM    2  C4  UNL     1      25.213  -8.370  64.050  1.00  0.00     0.086 C 
HETATM    3  C5  UNL     1      25.917  -7.343  63.661  1.00  0.00     0.017 C 
HETATM    4  C6  UNL     1      26.467  -6.342  64.570  1.00  0.00     0.001 C 
HETATM    5  C7  UNL     1      27.165  -5.333  64.090  1.00  0.00    -0.000 C 
HETATM    6  C8  UNL     1      27.800  -4.231  64.785  1.00  0.00    -0.002 C 
HETATM    7  C9  UNL     1      27.981  -3.756  66.014  1.00  0.00     0.000 C 
HETATM    8  C10 UNL     1      28.656  -2.604  66.605  1.00  0.00     0.129 C 
HETATM    9  N2  UNL     1      27.926  -2.047  67.698  1.00  0.00    -0.364 N 
HETATM   10  C12 UNL     1      27.678  -2.416  69.040  1.00  0.00     0.139 A 
HETATM   11  N3  UNL     1      28.913  -2.303  69.504  1.00  0.00    -0.224 NA
HETATM   12  C13 UNL     1      29.370  -2.519  70.740  1.00  0.00     0.236 A 
HETATM   13  N4  UNL     1      28.379  -2.900  71.563  1.00  0.00    -0.234 NA
HETATM   14  C14 UNL     1      27.118  -3.013  71.083  1.00  0.00     0.114 A 
HETATM   15  S1  UNL     1      25.554  -3.521  71.944  1.00  0.00    -0.072 SA
HETATM   16  C15 UNL     1      24.406  -3.380  70.473  1.00  0.00     0.010 A 
HETATM   17  C16 UNL     1      25.372  -2.950  69.483  1.00  0.00    -0.025 A 
HETATM   18  C17 UNL     1      26.652  -2.795  69.833  1.00  0.00     0.053 A 
HETATM   19  C18 UNL     1      24.989  -2.664  68.111  1.00  0.00     0.060 C 
HETATM   20  C19 UNL     1      23.689  -3.279  67.759  1.00  0.00     0.131 C 
HETATM   21  N5  UNL     1      23.193  -4.325  68.633  1.00  0.00    -0.344 N 
HETATM   22  C20 UNL     1      23.049  -3.533  69.897  1.00  0.00     0.172 C 
HETATM   23  C21 UNL     1      23.030  -5.661  68.221  1.00  0.00     0.243 C 
HETATM   24  O2  UNL     1      22.541  -5.767  69.351  1.00  0.00    -0.268 OA
HETATM   25  C22 UNL     1      22.875  -7.004  67.787  1.00  0.00     0.072 C 
HETATM   26  C23 UNL     1      23.349  -7.219  66.601  1.00  0.00    -0.002 C 
HETATM   27  C24 UNL     1      23.450  -8.387  65.696  1.00  0.00     0.149 C 
HETATM   28  H18 UNL     1      27.412  -1.130  67.556  1.00  0.00     0.162 HD
ENDROOT
BRANCH   1  29
HETATM   29  C3  UNL     1      25.917  -9.254  66.201  1.00  0.00     0.122 C 
BRANCH  29  30
HETATM   30  C2  UNL     1      25.443 -10.324  67.132  1.00  0.00     0.015 C 
HETATM   31  C1  UNL     1      25.320  -9.945  68.575  1.00  0.00     0.006 C 
ENDBRANCH  29  30
ENDBRANCH   1  29
BRANCH   8  32
HETATM   32  C11 UNL     1      28.931  -1.568  65.536  1.00  0.00     0.193 C 
BRANCH  32  33
HETATM   33  O1  UNL     1      30.096  -0.841  65.854  1.00  0.00    -0.399 OA
HETATM   34  H17 UNL     1      30.068  -0.715  66.844  1.00  0.00     0.209 HD
ENDBRANCH  32  33
ENDBRANCH   8  32
TORSDOF 4
ENDMDL
MODEL 7
REMARK VINA RESULT:      -6.4     26.482     28.642
REMARK  4 active torsions:
REMARK  status: ('A' for Active; 'I' for Inactive)
REMARK    1  A    between atoms: C2_2  and  C3_3 
REMARK    2  A    between atoms: C3_3  and  N1_4 
REMARK    3  A    between atoms: C10_11  and  C11_12 
REMARK    4  A    between atoms: C11_12  and  O1_13 
ROOT
HETATM    1  N1  UNL     1      43.828   0.411  71.025  1.00  0.00    -0.387 N 
HETATM    2  C4  UNL     1      43.761  -0.076  69.664  1.00  0.00     0.086 C 
HETATM    3  C5  UNL     1      43.908   0.627  68.576  1.00  0.00     0.017 C 
HETATM    4  C6  UNL     1      44.176   2.063  68.565  1.00  0.00     0.001 C 
HETATM    5  C7  UNL     1      44.307   2.697  67.417  1.00  0.00    -0.000 C 
HETATM    6  C8  UNL     1      44.568   4.098  67.157  1.00  0.00    -0.002 C 
HETATM    7  C9  UNL     1      44.775   5.244  67.800  1.00  0.00     0.000 C 
HETATM    8  C10 UNL     1      45.033   6.630  67.419  1.00  0.00     0.129 C 
HETATM    9  N2  UNL     1      44.364   7.562  68.269  1.00  0.00    -0.364 N 
HETATM   10  C12 UNL     1      44.544   8.036  69.588  1.00  0.00     0.139 A 
HETATM   11  N3  UNL     1      45.695   8.666  69.412  1.00  0.00    -0.224 NA
HETATM   12  C13 UNL     1      46.427   9.345  70.300  1.00  0.00     0.236 A 
HETATM   13  N4  UNL     1      45.847   9.338  71.511  1.00  0.00    -0.234 NA
HETATM   14  C14 UNL     1      44.669   8.691  71.685  1.00  0.00     0.114 A 
HETATM   15  S1  UNL     1      43.634   8.488  73.212  1.00  0.00    -0.072 SA
HETATM   16  C15 UNL     1      42.268   7.462  72.448  1.00  0.00     0.010 A 
HETATM   17  C16 UNL     1      42.774   7.401  71.092  1.00  0.00    -0.025 A 
HETATM   18  C17 UNL     1      43.927   8.005  70.790  1.00  0.00     0.053 A 
HETATM   19  C18 UNL     1      42.055   6.710  70.036  1.00  0.00     0.060 C 
HETATM   20  C19 UNL     1      41.068   5.747  70.575  1.00  0.00     0.131 C 
HETATM   21  N5  UNL     1      41.208   5.366  71.967  1.00  0.00    -0.344 N 
HETATM   22  C20 UNL     1      41.003   6.707  72.605  1.00  0.00     0.172 C 
HETATM   23  C21 UNL     1      41.516   4.056  72.380  1.00  0.00     0.243 C 
HETATM   24  O2  UNL     1      41.336   4.553  73.498  1.00  0.00    -0.268 OA
HETATM   25  C22 UNL     1      41.831   2.729  72.778  1.00  0.00     0.072 C 
HETATM   26  C23 UNL     1      42.117   1.950  71.784  1.00  0.00    -0.002 C 
HETATM   27  C24 UNL     1      42.501   0.528  71.629  1.00  0.00     0.149 C 
HETATM   28  H18 UNL     1      43.509   8.070  67.898  1.00  0.00     0.162 HD
ENDROOT
BRANCH   1  29
HETATM   29  C3  UNL     1      45.156   0.694  71.498  1.00  0.00     0.122 C 
BRANCH  29  30
HETATM   30  C2  UNL     1      45.219   0.795  72.989  1.00  0.00     0.015 C 
HETATM   31  C1  UNL     1      45.554   2.141  73.552  1.00  0.00     0.006 C 
ENDBRANCH  29  30
ENDBRANCH   1  29
BRANCH   8  32
HETATM   32  C11 UNL     1      44.662   6.839  65.966  1.00  0.00     0.193 C 
BRANCH  32  33
HETATM   33  O1  UNL     1      43.311   7.229  65.861  1.00  0.00    -0.399 OA
HETATM   34  H17 UNL     1      42.807   6.595  66.446  1.00  0.00     0.209 HD
ENDBRANCH  32  33
ENDBRANCH   8  32
TORSDOF 4
ENDMDL
MODEL 8
REMARK VINA RESULT:      -6.3     19.621     24.254
REMARK  4 active torsions:
REMARK  status: ('A' for Active; 'I' for Inactive)
REMARK    1  A    between atoms: C2_2  and  C3_3 
REMARK    2  A    between atoms: C3_3  and  N1_4 
REMARK    3  A    between atoms: C10_11  and  C11_12 
REMARK    4  A    between atoms: C11_12  and  O1_13 
ROOT
HETATM    1  N1  UNL     1      28.555  -4.014  70.823  1.00  0.00    -0.387 N 
HETATM    2  C4  UNL     1      28.821  -2.651  70.419  1.00  0.00     0.086 C 
HETATM    3  C5  UNL     1      28.732  -2.162  69.214  1.00  0.00     0.017 C 
HETATM    4  C6  UNL     1      28.333  -2.944  68.046  1.00  0.00     0.001 C 
HETATM    5  C7  UNL     1      28.273  -2.371  66.862  1.00  0.00    -0.000 C 
HETATM    6  C8  UNL     1      27.911  -2.934  65.576  1.00  0.00    -0.002 C 
HETATM    7  C9  UNL     1      27.525  -4.082  65.027  1.00  0.00     0.000 C 
HETATM    8  C10 UNL     1      27.182  -4.540  63.683  1.00  0.00     0.129 C 
HETATM    9  N2  UNL     1      27.659  -5.859  63.418  1.00  0.00    -0.364 N 
HETATM   10  C12 UNL     1      27.286  -7.165  63.809  1.00  0.00     0.139 A 
HETATM   11  N3  UNL     1      26.108  -7.218  63.208  1.00  0.00    -0.224 NA
HETATM   12  C13 UNL     1      25.219  -8.215  63.185  1.00  0.00     0.236 A 
HETATM   13  N4  UNL     1      25.656  -9.269  63.895  1.00  0.00    -0.234 NA
HETATM   14  C14 UNL     1      26.862  -9.208  64.508  1.00  0.00     0.114 A 
HETATM   15  S1  UNL     1      27.732 -10.468  65.557  1.00  0.00    -0.072 SA
HETATM   16  C15 UNL     1      29.267  -9.463  65.926  1.00  0.00     0.010 A 
HETATM   17  C16 UNL     1      28.926  -8.265  65.186  1.00  0.00    -0.025 A 
HETATM   18  C17 UNL     1      27.764  -8.202  64.532  1.00  0.00     0.053 A 
HETATM   19  C18 UNL     1      29.823  -7.124  65.120  1.00  0.00     0.060 C 
HETATM   20  C19 UNL     1      30.830  -7.146  66.206  1.00  0.00     0.131 C 
HETATM   21  N5  UNL     1      30.570  -8.022  67.332  1.00  0.00    -0.344 N 
HETATM   22  C20 UNL     1      30.573  -9.339  66.617  1.00  0.00     0.172 C 
HETATM   23  C21 UNL     1      30.341  -7.551  68.638  1.00  0.00     0.243 C 
HETATM   24  O2  UNL     1      30.346  -8.762  68.889  1.00  0.00    -0.268 OA
HETATM   25  C22 UNL     1      30.111  -7.056  69.950  1.00  0.00     0.072 C 
HETATM   26  C23 UNL     1      30.015  -5.766  70.003  1.00  0.00    -0.002 C 
HETATM   27  C24 UNL     1      29.788  -4.763  71.068  1.00  0.00     0.149 C 
HETATM   28  H18 UNL     1      28.498  -5.981  62.781  1.00  0.00     0.162 HD
ENDROOT
BRANCH   1  29
HETATM   29  C3  UNL     1      27.161  -4.363  70.884  1.00  0.00     0.122 C 
BRANCH  29  30
HETATM   30  C2  UNL     1      26.334  -3.293  71.526  1.00  0.00     0.015 C 
HETATM   31  C1  UNL     1      25.139  -2.825  70.757  1.00  0.00     0.006 C 
ENDBRANCH  29  30
ENDBRANCH   1  29
BRANCH   8  32
HETATM   32  C11 UNL     1      27.694  -3.549  62.659  1.00  0.00     0.193 C 
BRANCH  32  33
HETATM   33  O1  UNL     1      26.788  -2.476  62.527  1.00  0.00    -0.399 OA
HETATM   34  H17 UNL     1      27.356  -1.665  62.399  1.00  0.00     0.209 HD
ENDBRANCH  32  33
ENDBRANCH   8  32
TORSDOF 4
ENDMDL
MODEL 9
REMARK VINA RESULT:      -6.1     12.963     17.858
REMARK  4 active torsions:
REMARK  status: ('A' for Active; 'I' for Inactive)
REMARK    1  A    between atoms: C2_2  and  C3_3 
REMARK    2  A    between atoms: C3_3  and  N1_4 
REMARK    3  A    between atoms: C10_11  and  C11_12 
REMARK    4  A    between atoms: C11_12  and  O1_13 
ROOT
HETATM    1  N1  UNL     1      13.503   4.303  52.746  1.00  0.00    -0.387 N 
HETATM    2  C4  UNL     1      12.565   4.732  53.761  1.00  0.00     0.086 C 
HETATM    3  C5  UNL     1      11.908   3.968  54.588  1.00  0.00     0.017 C 
HETATM    4  C6  UNL     1      12.025   2.513  54.621  1.00  0.00     0.001 C 
HETATM    5  C7  UNL     1      11.320   1.817  55.489  1.00  0.00    -0.000 C 
HETATM    6  C8  UNL     1      11.268   0.385  55.706  1.00  0.00    -0.002 C 
HETATM    7  C9  UNL     1      11.795  -0.746  55.245  1.00  0.00     0.000 C 
HETATM    8  C10 UNL     1      11.660  -2.168  55.551  1.00  0.00     0.129 C 
HETATM    9  N2  UNL     1      11.688  -2.982  54.378  1.00  0.00    -0.364 N 
HETATM   10  C12 UNL     1      12.684  -3.412  53.472  1.00  0.00     0.139 A 
HETATM   11  N3  UNL     1      13.385  -4.171  54.299  1.00  0.00    -0.224 NA
HETATM   12  C13 UNL     1      14.488  -4.885  54.056  1.00  0.00     0.236 A 
HETATM   13  N4  UNL     1      14.873  -4.760  52.775  1.00  0.00    -0.234 NA
HETATM   14  C14 UNL     1      14.151  -3.981  51.933  1.00  0.00     0.114 A 
HETATM   15  S1  UNL     1      14.421  -3.597  50.138  1.00  0.00    -0.072 SA
HETATM   16  C15 UNL     1      12.949  -2.465  49.905  1.00  0.00     0.010 A 
HETATM   17  C16 UNL     1      12.416  -2.520  51.251  1.00  0.00    -0.025 A 
HETATM   18  C17 UNL     1      13.035  -3.259  52.176  1.00  0.00     0.053 A 
HETATM   19  C18 UNL     1      11.210  -1.804  51.629  1.00  0.00     0.060 C 
HETATM   20  C19 UNL     1      10.891  -0.716  50.676  1.00  0.00     0.131 C 
HETATM   21  N5  UNL     1      11.948  -0.290  49.780  1.00  0.00    -0.344 N 
HETATM   22  C20 UNL     1      12.157  -1.569  49.029  1.00  0.00     0.172 C 
HETATM   23  C21 UNL     1      12.520   0.996  49.819  1.00  0.00     0.243 C 
HETATM   24  O2  UNL     1      13.112   0.574  48.819  1.00  0.00    -0.268 OA
HETATM   25  C22 UNL     1      13.086   2.298  49.876  1.00  0.00     0.072 C 
HETATM   26  C23 UNL     1      12.670   2.996  50.883  1.00  0.00    -0.002 C 
HETATM   27  C24 UNL     1      12.922   4.359  51.405  1.00  0.00     0.149 C 
HETATM   28  H18 UNL     1      10.782  -3.410  54.031  1.00  0.00     0.162 HD
ENDROOT
BRANCH   1  29
HETATM   29  C3  UNL     1      14.789   3.898  53.248  1.00  0.00     0.122 C 
BRANCH  29  30
HETATM   30  C2  UNL     1      15.904   4.279  52.327  1.00  0.00     0.015 C 
HETATM   31  C1  UNL     1      16.530   3.168  51.544  1.00  0.00     0.006 C 
ENDBRANCH  29  30
ENDBRANCH   1  29
BRANCH   8  32
HETATM   32  C11 UNL     1      10.400  -2.400  56.357  1.00  0.00     0.193 C 
BRANCH  32  33
HETATM   33  O1  UNL     1       9.279  -2.443  55.503  1.00  0.00    -0.399 OA
HETATM   34  H17 UNL     1       9.194  -1.520  55.132  1.00  0.00     0.209 HD
ENDBRANCH  32  33
ENDBRANCH   8  32
TORSDOF 4
ENDMDL
