MODEL 1
REMARK VINA RESULT:      -7.8      0.000      0.000
REMARK  2 active torsions:
REMARK  status: ('A' for Active; 'I' for Inactive)
REMARK    1  A    between atoms: C5_6  and  N1_7 
REMARK    2  A    between atoms: N1_7  and  C6_8 
ROOT
HETATM    1  C6  UNL     1      23.686  -0.217  53.455  1.00  0.00     0.160 A 
HETATM    2  N2  UNL     1      24.018  -0.799  54.602  1.00  0.00    -0.222 NA
HETATM    3  C7  UNL     1      23.151  -1.427  55.405  1.00  0.00     0.238 A 
HETATM    4  N3  UNL     1      21.828  -1.517  55.098  1.00  0.00    -0.216 NA
HETATM    5  C8  UNL     1      21.420  -0.945  53.941  1.00  0.00     0.197 A 
HETATM    6  C9  UNL     1      22.355  -0.295  53.120  1.00  0.00     0.128 A 
HETATM    7  N4  UNL     1      22.038   0.320  51.880  1.00  0.00    -0.383 N 
HETATM    8  C10 UNL     1      20.851   1.058  51.488  1.00  0.00     0.123 C 
HETATM    9  C11 UNL     1      19.693   0.793  52.408  1.00  0.00     0.062 C 
HETATM   10  C12 UNL     1      19.359  -0.653  52.595  1.00  0.00     0.199 C 
HETATM   11  I1  UNL     1      17.289  -1.053  52.748  1.00  0.00    -0.054 I 
HETATM   12  O1  UNL     1      20.032  -1.128  53.776  1.00  0.00    -0.317 OA
HETATM   13  H6  UNL     1      22.814   0.184  51.181  1.00  0.00     0.159 HD
ENDROOT
BRANCH   1  14
HETATM   14  N1  UNL     1      24.606   0.449  52.611  1.00  0.00    -0.339 N 
HETATM   15  H4  UNL     1      24.431   0.829  51.661  1.00  0.00     0.167 HD
BRANCH  14  16
HETATM   16  C5  UNL     1      25.956   0.721  52.957  1.00  0.00     0.035 A 
HETATM   17  C4  UNL     1      26.456   1.978  53.244  1.00  0.00     0.029 A 
HETATM   18  C3  UNL     1      27.759   2.258  53.561  1.00  0.00     0.004 A 
HETATM   19  C2  UNL     1      28.683   1.238  53.614  1.00  0.00     0.019 A 
HETATM   20  C1  UNL     1      28.266  -0.042  53.343  1.00  0.00     0.013 A 
HETATM   21 BR1  UNL     1      29.504  -1.491  53.399  1.00  0.00    -0.051 Br
HETATM   22  C13 UNL     1      26.943  -0.245  53.031  1.00  0.00     0.048 A 
ENDBRANCH  14  16
ENDBRANCH   1  14
TORSDOF 2
ENDMDL
MODEL 2
REMARK VINA RESULT:      -7.7      4.562      5.622
REMARK  2 active torsions:
REMARK  status: ('A' for Active; 'I' for Inactive)
REMARK    1  A    between atoms: C5_6  and  N1_7 
REMARK    2  A    between atoms: N1_7  and  C6_8 
ROOT
HETATM    1  C6  UNL     1      26.419   2.388  51.140  1.00  0.00     0.160 A 
HETATM    2  N2  UNL     1      27.469   2.474  51.948  1.00  0.00    -0.222 NA
HETATM    3  C7  UNL     1      27.499   1.994  53.197  1.00  0.00     0.238 A 
HETATM    4  N3  UNL     1      26.424   1.365  53.747  1.00  0.00    -0.216 NA
HETATM    5  C8  UNL     1      25.317   1.242  52.978  1.00  0.00     0.197 A 
HETATM    6  C9  UNL     1      25.319   1.755  51.672  1.00  0.00     0.128 A 
HETATM    7  N4  UNL     1      24.222   1.664  50.775  1.00  0.00    -0.383 N 
HETATM    8  C10 UNL     1      22.797   1.750  51.043  1.00  0.00     0.123 C 
HETATM    9  C11 UNL     1      22.482   1.534  52.496  1.00  0.00     0.062 C 
HETATM   10  C12 UNL     1      23.038   0.272  53.077  1.00  0.00     0.199 C 
HETATM   11  I1  UNL     1      21.770  -0.669  54.482  1.00  0.00    -0.054 I 
HETATM   12  O1  UNL     1      24.304   0.573  53.694  1.00  0.00    -0.317 OA
HETATM   13  H6  UNL     1      24.551   1.508  49.787  1.00  0.00     0.159 HD
ENDROOT
BRANCH   1  14
HETATM   14  N1  UNL     1      26.391   2.900  49.822  1.00  0.00    -0.339 N 
HETATM   15  H4  UNL     1      26.283   2.365  48.939  1.00  0.00     0.167 HD
BRANCH  14  16
HETATM   16  C5  UNL     1      26.496   4.278  49.498  1.00  0.00     0.035 A 
HETATM   17  C4  UNL     1      27.493   4.828  48.712  1.00  0.00     0.029 A 
HETATM   18  C3  UNL     1      27.618   6.157  48.406  1.00  0.00     0.004 A 
HETATM   19  C2  UNL     1      26.700   7.060  48.896  1.00  0.00     0.019 A 
HETATM   20  C1  UNL     1      25.677   6.593  49.687  1.00  0.00     0.013 A 
HETATM   21 BR1  UNL     1      24.380   7.799  50.393  1.00  0.00    -0.051 Br
HETATM   22  C13 UNL     1      25.619   5.247  49.951  1.00  0.00     0.048 A 
ENDBRANCH  14  16
ENDBRANCH   1  14
TORSDOF 2
ENDMDL
MODEL 3
REMARK VINA RESULT:      -7.2      2.568      3.833
REMARK  2 active torsions:
REMARK  status: ('A' for Active; 'I' for Inactive)
REMARK    1  A    between atoms: C5_6  and  N1_7 
REMARK    2  A    between atoms: N1_7  and  C6_8 
ROOT
HETATM    1  C6  UNL     1      25.051   2.889  51.720  1.00  0.00     0.160 A 
HETATM    2  N2  UNL     1      25.528   3.425  50.603  1.00  0.00    -0.222 NA
HETATM    3  C7  UNL     1      24.833   3.534  49.465  1.00  0.00     0.238 A 
HETATM    4  N3  UNL     1      23.550   3.091  49.365  1.00  0.00    -0.216 NA
HETATM    5  C8  UNL     1      23.000   2.533  50.469  1.00  0.00     0.197 A 
HETATM    6  C9  UNL     1      23.755   2.434  51.647  1.00  0.00     0.128 A 
HETATM    7  N4  UNL     1      23.271   1.885  52.864  1.00  0.00    -0.383 N 
HETATM    8  C10 UNL     1      22.376   0.764  53.083  1.00  0.00     0.123 C 
HETATM    9  C11 UNL     1      21.601   0.411  51.844  1.00  0.00     0.062 C 
HETATM   10  C12 UNL     1      20.854   1.550  51.226  1.00  0.00     0.199 C 
HETATM   11  I1  UNL     1      18.974   1.019  50.418  1.00  0.00    -0.054 I 
HETATM   12  O1  UNL     1      21.676   2.130  50.197  1.00  0.00    -0.317 OA
HETATM   13  H6  UNL     1      23.647   2.412  53.694  1.00  0.00     0.159 HD
ENDROOT
BRANCH   1  14
HETATM   14  N1  UNL     1      25.792   2.772  52.920  1.00  0.00    -0.339 N 
HETATM   15  H4  UNL     1      25.676   3.326  53.791  1.00  0.00     0.167 HD
BRANCH  14  16
HETATM   16  C5  UNL     1      26.835   1.831  53.127  1.00  0.00     0.035 A 
HETATM   17  C4  UNL     1      28.098   2.147  53.595  1.00  0.00     0.029 A 
HETATM   18  C3  UNL     1      29.119   1.254  53.782  1.00  0.00     0.004 A 
HETATM   19  C2  UNL     1      28.921  -0.079  53.496  1.00  0.00     0.019 A 
HETATM   20  C1  UNL     1      27.692  -0.476  53.027  1.00  0.00     0.013 A 
HETATM   21 BR1  UNL     1      27.365  -2.308  52.614  1.00  0.00    -0.051 Br
HETATM   22  C13 UNL     1      26.718   0.478  52.864  1.00  0.00     0.048 A 
ENDBRANCH  14  16
ENDBRANCH   1  14
TORSDOF 2
ENDMDL
MODEL 4
REMARK VINA RESULT:      -7.2      4.230      6.804
REMARK  2 active torsions:
REMARK  status: ('A' for Active; 'I' for Inactive)
REMARK    1  A    between atoms: C5_6  and  N1_7 
REMARK    2  A    between atoms: N1_7  and  C6_8 
ROOT
HETATM    1  C6  UNL     1      22.746   0.360  53.592  1.00  0.00     0.160 A 
HETATM    2  N2  UNL     1      22.227  -0.479  54.481  1.00  0.00    -0.222 NA
HETATM    3  C7  UNL     1      22.949  -1.314  55.238  1.00  0.00     0.238 A 
HETATM    4  N3  UNL     1      24.306  -1.365  55.151  1.00  0.00    -0.216 NA
HETATM    5  C8  UNL     1      24.902  -0.534  54.264  1.00  0.00     0.197 A 
HETATM    6  C9  UNL     1      24.117   0.329  53.485  1.00  0.00     0.128 A 
HETATM    7  N4  UNL     1      24.639   1.252  52.541  1.00  0.00    -0.383 N 
HETATM    8  C10 UNL     1      25.773   1.118  51.644  1.00  0.00     0.123 C 
HETATM    9  C11 UNL     1      26.696   0.010  52.064  1.00  0.00     0.062 C 
HETATM   10  C12 UNL     1      27.170   0.091  53.481  1.00  0.00     0.199 C 
HETATM   11  I1  UNL     1      29.174  -0.518  53.762  1.00  0.00    -0.054 I 
HETATM   12  O1  UNL     1      26.301  -0.713  54.299  1.00  0.00    -0.317 OA
HETATM   13  H6  UNL     1      24.084   2.147  52.538  1.00  0.00     0.159 HD
ENDROOT
BRANCH   1  14
HETATM   14  N1  UNL     1      21.978   1.237  52.791  1.00  0.00    -0.339 N 
HETATM   15  H4  UNL     1      22.173   2.235  52.581  1.00  0.00     0.167 HD
BRANCH  14  16
HETATM   16  C5  UNL     1      20.787   0.865  52.114  1.00  0.00     0.035 A 
HETATM   17  C4  UNL     1      20.466   1.240  50.821  1.00  0.00     0.029 A 
HETATM   18  C3  UNL     1      19.314   0.904  50.162  1.00  0.00     0.004 A 
HETATM   19  C2  UNL     1      18.367   0.129  50.795  1.00  0.00     0.019 A 
HETATM   20  C1  UNL     1      18.610  -0.287  52.082  1.00  0.00     0.013 A 
HETATM   21 BR1  UNL     1      17.332  -1.360  53.004  1.00  0.00    -0.051 Br
HETATM   22  C13 UNL     1      19.788   0.092  52.678  1.00  0.00     0.048 A 
ENDBRANCH  14  16
ENDBRANCH   1  14
TORSDOF 2
ENDMDL
MODEL 5
REMARK VINA RESULT:      -7.2      5.074      6.170
REMARK  2 active torsions:
REMARK  status: ('A' for Active; 'I' for Inactive)
REMARK    1  A    between atoms: C5_6  and  N1_7 
REMARK    2  A    between atoms: N1_7  and  C6_8 
ROOT
HETATM    1  C6  UNL     1      25.013   2.878  51.664  1.00  0.00     0.160 A 
HETATM    2  N2  UNL     1      24.138   3.192  52.612  1.00  0.00    -0.222 NA
HETATM    3  C7  UNL     1      23.456   4.343  52.654  1.00  0.00     0.238 A 
HETATM    4  N3  UNL     1      23.614   5.303  51.702  1.00  0.00    -0.216 NA
HETATM    5  C8  UNL     1      24.492   5.048  50.704  1.00  0.00     0.197 A 
HETATM    6  C9  UNL     1      25.190   3.831  50.688  1.00  0.00     0.128 A 
HETATM    7  N4  UNL     1      26.118   3.455  49.681  1.00  0.00    -0.383 N 
HETATM    8  C10 UNL     1      27.076   4.268  48.953  1.00  0.00     0.123 C 
HETATM    9  C11 UNL     1      26.753   5.733  49.039  1.00  0.00     0.062 C 
HETATM   10  C12 UNL     1      25.360   6.093  48.631  1.00  0.00     0.199 C 
HETATM   11  I1  UNL     1      25.207   7.925  47.588  1.00  0.00    -0.054 I 
HETATM   12  O1  UNL     1      24.535   6.137  49.809  1.00  0.00    -0.317 OA
HETATM   13  H6  UNL     1      26.053   2.425  49.471  1.00  0.00     0.159 HD
ENDROOT
BRANCH   1  14
HETATM   14  N1  UNL     1      25.735   1.662  51.625  1.00  0.00    -0.339 N 
HETATM   15  H4  UNL     1      25.534   0.826  51.042  1.00  0.00     0.167 HD
BRANCH  14  16
HETATM   16  C5  UNL     1      26.896   1.397  52.398  1.00  0.00     0.035 A 
HETATM   17  C4  UNL     1      27.612   2.354  53.096  1.00  0.00     0.029 A 
HETATM   18  C3  UNL     1      28.743   2.116  53.830  1.00  0.00     0.004 A 
HETATM   19  C2  UNL     1      29.248   0.837  53.912  1.00  0.00     0.019 A 
HETATM   20  C1  UNL     1      28.594  -0.172  53.247  1.00  0.00     0.013 A 
HETATM   21 BR1  UNL     1      29.251  -1.960  53.326  1.00  0.00    -0.051 Br
HETATM   22  C13 UNL     1      27.466   0.144  52.530  1.00  0.00     0.048 A 
ENDBRANCH  14  16
ENDBRANCH   1  14
TORSDOF 2
ENDMDL
MODEL 6
REMARK VINA RESULT:      -7.1      5.023      6.192
REMARK  2 active torsions:
REMARK  status: ('A' for Active; 'I' for Inactive)
REMARK    1  A    between atoms: C5_6  and  N1_7 
REMARK    2  A    between atoms: N1_7  and  C6_8 
ROOT
HETATM    1  C6  UNL     1      23.355   3.729  49.658  1.00  0.00     0.160 A 
HETATM    2  N2  UNL     1      22.873   3.284  48.504  1.00  0.00    -0.222 NA
HETATM    3  C7  UNL     1      22.238   2.114  48.355  1.00  0.00     0.238 A 
HETATM    4  N3  UNL     1      22.037   1.272  49.404  1.00  0.00    -0.216 NA
HETATM    5  C8  UNL     1      22.504   1.665  50.613  1.00  0.00     0.197 A 
HETATM    6  C9  UNL     1      23.163   2.897  50.735  1.00  0.00     0.128 A 
HETATM    7  N4  UNL     1      23.674   3.413  51.956  1.00  0.00    -0.383 N 
HETATM    8  C10 UNL     1      24.301   2.717  53.065  1.00  0.00     0.123 C 
HETATM    9  C11 UNL     1      24.016   1.242  53.040  1.00  0.00     0.062 C 
HETATM   10  C12 UNL     1      22.564   0.886  52.965  1.00  0.00     0.199 C 
HETATM   11  I1  UNL     1      22.032  -0.823  54.090  1.00  0.00    -0.054 I 
HETATM   12  O1  UNL     1      22.214   0.684  51.584  1.00  0.00    -0.317 OA
HETATM   13  H6  UNL     1      23.549   4.457  52.009  1.00  0.00     0.159 HD
ENDROOT
BRANCH   1  14
HETATM   14  N1  UNL     1      24.028   4.965  49.809  1.00  0.00    -0.339 N 
HETATM   15  H4  UNL     1      23.695   5.807  50.316  1.00  0.00     0.167 HD
BRANCH  14  16
HETATM   16  C5  UNL     1      25.317   5.242  49.281  1.00  0.00     0.035 A 
HETATM   17  C4  UNL     1      26.383   4.361  49.305  1.00  0.00     0.029 A 
HETATM   18  C3  UNL     1      27.636   4.622  48.817  1.00  0.00     0.004 A 
HETATM   19  C2  UNL     1      27.905   5.846  48.245  1.00  0.00     0.019 A 
HETATM   20  C1  UNL     1      26.898   6.779  48.183  1.00  0.00     0.013 A 
HETATM   21 BR1  UNL     1      27.217   8.490  47.404  1.00  0.00    -0.051 Br
HETATM   22  C13 UNL     1      25.668   6.445  48.695  1.00  0.00     0.048 A 
ENDBRANCH  14  16
ENDBRANCH   1  14
TORSDOF 2
ENDMDL
MODEL 7
REMARK VINA RESULT:      -7.0      4.314      6.363
REMARK  2 active torsions:
REMARK  status: ('A' for Active; 'I' for Inactive)
REMARK    1  A    between atoms: C5_6  and  N1_7 
REMARK    2  A    between atoms: N1_7  and  C6_8 
ROOT
HETATM    1  C6  UNL     1      22.881   1.098  53.064  1.00  0.00     0.160 A 
HETATM    2  N2  UNL     1      22.193   0.194  53.751  1.00  0.00    -0.222 NA
HETATM    3  C7  UNL     1      22.749  -0.807  54.444  1.00  0.00     0.238 A 
HETATM    4  N3  UNL     1      24.098  -0.977  54.497  1.00  0.00    -0.216 NA
HETATM    5  C8  UNL     1      24.862  -0.089  53.819  1.00  0.00     0.197 A 
HETATM    6  C9  UNL     1      24.248   0.950  53.103  1.00  0.00     0.128 A 
HETATM    7  N4  UNL     1      24.953   1.944  52.374  1.00  0.00    -0.383 N 
HETATM    8  C10 UNL     1      26.173   1.831  51.596  1.00  0.00     0.123 C 
HETATM    9  C11 UNL     1      26.947   0.590  51.937  1.00  0.00     0.062 C 
HETATM   10  C12 UNL     1      27.250   0.419  53.392  1.00  0.00     0.199 C 
HETATM   11  I1  UNL     1      29.150  -0.416  53.791  1.00  0.00    -0.054 I 
HETATM   12  O1  UNL     1      26.227  -0.406  53.977  1.00  0.00    -0.317 OA
HETATM   13  H6  UNL     1      24.476   2.880  52.450  1.00  0.00     0.159 HD
ENDROOT
BRANCH   1  14
HETATM   14  N1  UNL     1      22.289   2.152  52.330  1.00  0.00    -0.339 N 
HETATM   15  H4  UNL     1      21.950   3.063  52.694  1.00  0.00     0.167 HD
BRANCH  14  16
HETATM   16  C5  UNL     1      22.076   2.127  50.926  1.00  0.00     0.035 A 
HETATM   17  C4  UNL     1      21.623   1.027  50.219  1.00  0.00     0.029 A 
HETATM   18  C3  UNL     1      21.430   0.983  48.864  1.00  0.00     0.004 A 
HETATM   19  C2  UNL     1      21.693   2.098  48.099  1.00  0.00     0.019 A 
HETATM   20  C1  UNL     1      22.147   3.234  48.727  1.00  0.00     0.013 A 
HETATM   21 BR1  UNL     1      22.528   4.805  47.716  1.00  0.00    -0.051 Br
HETATM   22  C13 UNL     1      22.317   3.202  50.090  1.00  0.00     0.048 A 
ENDBRANCH  14  16
ENDBRANCH   1  14
TORSDOF 2
ENDMDL
MODEL 8
REMARK VINA RESULT:      -6.8      4.952      6.202
REMARK  2 active torsions:
REMARK  status: ('A' for Active; 'I' for Inactive)
REMARK    1  A    between atoms: C5_6  and  N1_7 
REMARK    2  A    between atoms: N1_7  and  C6_8 
ROOT
HETATM    1  C6  UNL     1      23.580   2.932  51.528  1.00  0.00     0.160 A 
HETATM    2  N2  UNL     1      22.621   3.407  52.314  1.00  0.00    -0.222 NA
HETATM    3  C7  UNL     1      22.166   4.666  52.270  1.00  0.00     0.238 A 
HETATM    4  N3  UNL     1      22.668   5.576  51.392  1.00  0.00    -0.216 NA
HETATM    5  C8  UNL     1      23.650   5.158  50.559  1.00  0.00     0.197 A 
HETATM    6  C9  UNL     1      24.103   3.832  50.630  1.00  0.00     0.128 A 
HETATM    7  N4  UNL     1      25.112   3.286  49.793  1.00  0.00    -0.383 N 
HETATM    8  C10 UNL     1      26.319   3.903  49.273  1.00  0.00     0.123 C 
HETATM    9  C11 UNL     1      26.262   5.403  49.346  1.00  0.00     0.062 C 
HETATM   10  C12 UNL     1      25.056   6.016  48.707  1.00  0.00     0.199 C 
HETATM   11  I1  UNL     1      25.435   7.842  47.711  1.00  0.00    -0.054 I 
HETATM   12  O1  UNL     1      24.054   6.217  49.720  1.00  0.00    -0.317 OA
HETATM   13  H6  UNL     1      24.897   2.286  49.543  1.00  0.00     0.159 HD
ENDROOT
BRANCH   1  14
HETATM   14  N1  UNL     1      24.059   1.602  51.582  1.00  0.00    -0.339 N 
HETATM   15  H4  UNL     1      23.850   0.828  50.922  1.00  0.00     0.167 HD
BRANCH  14  16
HETATM   16  C5  UNL     1      24.946   1.112  52.576  1.00  0.00     0.035 A 
HETATM   17  C4  UNL     1      24.647   0.095  53.465  1.00  0.00     0.029 A 
HETATM   18  C3  UNL     1      25.485  -0.375  54.441  1.00  0.00     0.004 A 
HETATM   19  C2  UNL     1      26.739   0.176  54.588  1.00  0.00     0.019 A 
HETATM   20  C1  UNL     1      27.114   1.193  53.743  1.00  0.00     0.013 A 
HETATM   21 BR1  UNL     1      28.837   1.993  53.905  1.00  0.00    -0.051 Br
HETATM   22  C13 UNL     1      26.218   1.612  52.790  1.00  0.00     0.048 A 
ENDBRANCH  14  16
ENDBRANCH   1  14
TORSDOF 2
ENDMDL
MODEL 9
REMARK VINA RESULT:      -6.8      4.857      7.469
REMARK  2 active torsions:
REMARK  status: ('A' for Active; 'I' for Inactive)
REMARK    1  A    between atoms: C5_6  and  N1_7 
REMARK    2  A    between atoms: N1_7  and  C6_8 
ROOT
HETATM    1  C6  UNL     1      24.200   2.060  51.859  1.00  0.00     0.160 A 
HETATM    2  N2  UNL     1      24.558   3.058  51.059  1.00  0.00    -0.222 NA
HETATM    3  C7  UNL     1      25.823   3.336  50.722  1.00  0.00     0.238 A 
HETATM    4  N3  UNL     1      26.866   2.597  51.189  1.00  0.00    -0.216 NA
HETATM    5  C8  UNL     1      26.573   1.562  52.011  1.00  0.00     0.197 A 
HETATM    6  C9  UNL     1      25.236   1.296  52.343  1.00  0.00     0.128 A 
HETATM    7  N4  UNL     1      24.817   0.227  53.180  1.00  0.00    -0.383 N 
HETATM    8  C10 UNL     1      25.451  -0.328  54.361  1.00  0.00     0.123 C 
HETATM    9  C11 UNL     1      26.902   0.054  54.455  1.00  0.00     0.062 C 
HETATM   10  C12 UNL     1      27.714  -0.264  53.239  1.00  0.00     0.199 C 
HETATM   11  I1  UNL     1      29.681  -0.915  53.656  1.00  0.00    -0.054 I 
HETATM   12  O1  UNL     1      27.758   0.905  52.401  1.00  0.00    -0.317 OA
HETATM   13  H6  UNL     1      23.910  -0.186  52.841  1.00  0.00     0.159 HD
ENDROOT
BRANCH   1  14
HETATM   14  N1  UNL     1      22.862   1.773  52.215  1.00  0.00    -0.339 N 
HETATM   15  H4  UNL     1      22.499   1.511  53.152  1.00  0.00     0.167 HD
BRANCH  14  16
HETATM   16  C5  UNL     1      21.768   1.817  51.311  1.00  0.00     0.035 A 
HETATM   17  C4  UNL     1      21.724   1.156  50.095  1.00  0.00     0.029 A 
HETATM   18  C3  UNL     1      20.684   1.204  49.206  1.00  0.00     0.004 A 
HETATM   19  C2  UNL     1      19.568   1.956  49.500  1.00  0.00     0.019 A 
HETATM   20  C1  UNL     1      19.532   2.643  50.689  1.00  0.00     0.013 A 
HETATM   21 BR1  UNL     1      18.012   3.700  51.145  1.00  0.00    -0.051 Br
HETATM   22  C13 UNL     1      20.614   2.547  51.530  1.00  0.00     0.048 A 
ENDBRANCH  14  16
ENDBRANCH   1  14
TORSDOF 2
ENDMDL
