MODEL 1
REMARK VINA RESULT:      -7.2      0.000      0.000
REMARK  7 active torsions:
REMARK  status: ('A' for Active; 'I' for Inactive)
REMARK    1  A    between atoms: O1_2  and  C2_3 
REMARK    2  A    between atoms: C2_3  and  O2_4 
REMARK    3  A    between atoms: C2_3  and  C3_5 
REMARK    4  A    between atoms: C3_5  and  C14_21 
REMARK    5  A    between atoms: C4_6  and  C5_7 
REMARK    6  A    between atoms: C6_8  and  C7_9 
REMARK    7  A    between atoms: C14_21  and  N3_22 
ROOT
HETATM    1  C5  UNL     1      25.299   1.495  53.295  1.00  0.00     0.027 A 
HETATM    2  C6  UNL     1      24.869   0.164  53.341  1.00  0.00     0.081 A 
HETATM    3  N1  UNL     1      25.691  -0.874  53.196  1.00  0.00    -0.240 NA
HETATM    4  C13 UNL     1      26.995  -0.893  52.995  1.00  0.00     0.233 A 
HETATM    5  N2  UNL     1      27.827   0.175  52.884  1.00  0.00    -0.243 NA
HETATM    6  P1  UNL     1      27.019   1.667  53.034  1.00  0.00     0.102 P 
ENDROOT
BRANCH   1   7
HETATM    7  C4  UNL     1      24.427   2.648  53.442  1.00  0.00     0.026 C 
HETATM    8  C3  UNL     1      24.209   3.488  52.406  1.00  0.00     0.003 C 
BRANCH   8   9
HETATM    9  C2  UNL     1      24.661   3.580  50.990  1.00  0.00     0.288 C 
BRANCH   9  10
HETATM   10  O1  UNL     1      23.566   4.161  50.307  1.00  0.00    -0.362 OA
HETATM   11  C1  UNL     1      23.557   3.628  49.022  1.00  0.00     0.205 C 
ENDBRANCH   9  10
BRANCH   9  12
HETATM   12  O2  UNL     1      25.743   4.395  50.791  1.00  0.00    -0.367 OA
HETATM   13  H5  UNL     1      25.818   5.141  51.439  1.00  0.00     0.213 HD
ENDBRANCH   9  12
ENDBRANCH   8   9
BRANCH   8  14
HETATM   14  C14 UNL     1      23.340   4.707  52.488  1.00  0.00     0.305 C 
BRANCH  14  15
HETATM   15  N3  UNL     1      24.099   5.925  52.665  1.00  0.00     0.082 N 
HETATM   16  H13 UNL     1      24.093   6.244  53.655  1.00  0.00     0.313 HD
HETATM   17  H14 UNL     1      25.080   5.855  52.357  1.00  0.00     0.313 HD
ENDBRANCH  14  15
ENDBRANCH   8  14
ENDBRANCH   1   7
BRANCH   2  18
HETATM   18  C7  UNL     1      23.461  -0.163  53.533  1.00  0.00    -0.005 A 
HETATM   19  C8  UNL     1      22.800  -0.702  54.604  1.00  0.00     0.017 A 
HETATM   20  C9  UNL     1      21.435  -0.894  54.576  1.00  0.00     0.045 A 
HETATM   21  C10 UNL     1      20.661  -0.564  53.489  1.00  0.00     0.138 A 
HETATM   22  F1  UNL     1      19.319  -0.751  53.457  1.00  0.00    -0.204 F 
HETATM   23  C11 UNL     1      21.290  -0.011  52.372  1.00  0.00     0.073 A 
HETATM   24 CL1  UNL     1      20.332   0.420  50.976  1.00  0.00    -0.081 Cl
HETATM   25  C12 UNL     1      22.653   0.166  52.436  1.00  0.00     0.041 A 
ENDBRANCH   2  18
TORSDOF 7
ENDMDL
MODEL 2
REMARK VINA RESULT:      -7.0      2.337      4.397
REMARK  7 active torsions:
REMARK  status: ('A' for Active; 'I' for Inactive)
REMARK    1  A    between atoms: O1_2  and  C2_3 
REMARK    2  A    between atoms: C2_3  and  O2_4 
REMARK    3  A    between atoms: C2_3  and  C3_5 
REMARK    4  A    between atoms: C3_5  and  C14_21 
REMARK    5  A    between atoms: C4_6  and  C5_7 
REMARK    6  A    between atoms: C6_8  and  C7_9 
REMARK    7  A    between atoms: C14_21  and  N3_22 
ROOT
HETATM    1  C5  UNL     1      25.514   1.231  51.769  1.00  0.00     0.027 A 
HETATM    2  C6  UNL     1      24.249   1.566  52.265  1.00  0.00     0.081 A 
HETATM    3  N1  UNL     1      23.713   2.779  52.135  1.00  0.00    -0.240 NA
HETATM    4  C13 UNL     1      24.204   3.858  51.555  1.00  0.00     0.233 A 
HETATM    5  N2  UNL     1      25.407   3.987  50.939  1.00  0.00    -0.243 NA
HETATM    6  P1  UNL     1      26.323   2.552  50.960  1.00  0.00     0.102 P 
ENDROOT
BRANCH   1   7
HETATM    7  C4  UNL     1      26.129  -0.080  51.901  1.00  0.00     0.026 C 
HETATM    8  C3  UNL     1      27.081  -0.307  52.832  1.00  0.00     0.003 C 
BRANCH   8   9
HETATM    9  C2  UNL     1      27.760   0.496  53.887  1.00  0.00     0.288 C 
BRANCH   9  10
HETATM   10  O1  UNL     1      28.737   1.244  53.188  1.00  0.00    -0.362 OA
HETATM   11  C1  UNL     1      28.844   2.475  53.827  1.00  0.00     0.205 C 
ENDBRANCH   9  10
BRANCH   9  12
HETATM   12  O2  UNL     1      26.947   1.391  54.530  1.00  0.00    -0.367 OA
HETATM   13  H5  UNL     1      27.174   2.341  54.367  1.00  0.00     0.213 HD
ENDBRANCH   9  12
ENDBRANCH   8   9
BRANCH   8  14
HETATM   14  C14 UNL     1      27.773  -1.624  53.015  1.00  0.00     0.305 C 
BRANCH  14  15
HETATM   15  N3  UNL     1      29.042  -1.499  53.698  1.00  0.00     0.082 N 
HETATM   16  H13 UNL     1      29.000  -1.880  54.665  1.00  0.00     0.313 HD
HETATM   17  H14 UNL     1      29.827  -1.953  53.208  1.00  0.00     0.313 HD
ENDBRANCH  14  15
ENDBRANCH   8  14
ENDBRANCH   1   7
BRANCH   2  18
HETATM   18  C7  UNL     1      23.442   0.589  52.985  1.00  0.00    -0.005 A 
HETATM   19  C8  UNL     1      23.755  -0.252  54.019  1.00  0.00     0.017 A 
HETATM   20  C9  UNL     1      22.806  -1.081  54.577  1.00  0.00     0.045 A 
HETATM   21  C10 UNL     1      21.504  -1.119  54.138  1.00  0.00     0.138 A 
HETATM   22  F1  UNL     1      20.567  -1.932  54.684  1.00  0.00    -0.204 F 
HETATM   23  C11 UNL     1      21.135  -0.281  53.085  1.00  0.00     0.073 A 
HETATM   24 CL1  UNL     1      19.487  -0.306  52.506  1.00  0.00    -0.081 Cl
HETATM   25  C12 UNL     1      22.110   0.533  52.552  1.00  0.00     0.041 A 
ENDBRANCH   2  18
TORSDOF 7
ENDMDL
MODEL 3
REMARK VINA RESULT:      -6.9      3.705      5.089
REMARK  7 active torsions:
REMARK  status: ('A' for Active; 'I' for Inactive)
REMARK    1  A    between atoms: O1_2  and  C2_3 
REMARK    2  A    between atoms: C2_3  and  O2_4 
REMARK    3  A    between atoms: C2_3  and  C3_5 
REMARK    4  A    between atoms: C3_5  and  C14_21 
REMARK    5  A    between atoms: C4_6  and  C5_7 
REMARK    6  A    between atoms: C6_8  and  C7_9 
REMARK    7  A    between atoms: C14_21  and  N3_22 
ROOT
HETATM    1  C5  UNL     1      23.990   0.938  52.166  1.00  0.00     0.027 A 
HETATM    2  C6  UNL     1      24.694   0.312  53.200  1.00  0.00     0.081 A 
HETATM    3  N1  UNL     1      24.107  -0.429  54.139  1.00  0.00    -0.240 NA
HETATM    4  C13 UNL     1      22.832  -0.725  54.301  1.00  0.00     0.233 A 
HETATM    5  N2  UNL     1      21.789  -0.330  53.526  1.00  0.00    -0.243 NA
HETATM    6  P1  UNL     1      22.266   0.654  52.220  1.00  0.00     0.102 P 
ENDROOT
BRANCH   1   7
HETATM    7  C4  UNL     1      24.600   1.758  51.133  1.00  0.00     0.026 C 
HETATM    8  C3  UNL     1      24.556   3.107  51.204  1.00  0.00     0.003 C 
BRANCH   8   9
HETATM    9  C2  UNL     1      23.996   4.112  52.150  1.00  0.00     0.288 C 
BRANCH   9  10
HETATM   10  O1  UNL     1      22.593   3.969  52.027  1.00  0.00    -0.362 OA
HETATM   11  C1  UNL     1      22.069   5.243  51.828  1.00  0.00     0.205 C 
ENDBRANCH   9  10
BRANCH   9  12
HETATM   12  O2  UNL     1      24.313   3.892  53.464  1.00  0.00    -0.367 OA
HETATM   13  H5  UNL     1      25.243   4.131  53.706  1.00  0.00     0.213 HD
ENDBRANCH   9  12
ENDBRANCH   8   9
BRANCH   8  14
HETATM   14  C14 UNL     1      25.144   4.017  50.168  1.00  0.00     0.305 C 
BRANCH  14  15
HETATM   15  N3  UNL     1      25.417   5.343  50.678  1.00  0.00     0.082 N 
HETATM   16  H13 UNL     1      26.163   5.821  50.134  1.00  0.00     0.313 HD
HETATM   17  H14 UNL     1      24.592   5.959  50.702  1.00  0.00     0.313 HD
ENDBRANCH  14  15
ENDBRANCH   8  14
ENDBRANCH   1   7
BRANCH   2  18
HETATM   18  C7  UNL     1      26.140   0.458  53.319  1.00  0.00    -0.005 A 
HETATM   19  C8  UNL     1      26.915   1.556  53.582  1.00  0.00     0.017 A 
HETATM   20  C9  UNL     1      28.286   1.453  53.685  1.00  0.00     0.045 A 
HETATM   21  C10 UNL     1      28.954   0.261  53.531  1.00  0.00     0.138 A 
HETATM   22  F1  UNL     1      30.301   0.154  53.632  1.00  0.00    -0.204 F 
HETATM   23  C11 UNL     1      28.207  -0.887  53.261  1.00  0.00     0.073 A 
HETATM   24 CL1  UNL     1      29.028  -2.416  53.062  1.00  0.00    -0.081 Cl
HETATM   25  C12 UNL     1      26.841  -0.745  53.165  1.00  0.00     0.041 A 
ENDBRANCH   2  18
TORSDOF 7
ENDMDL
MODEL 4
REMARK VINA RESULT:      -6.6      4.015      5.730
REMARK  7 active torsions:
REMARK  status: ('A' for Active; 'I' for Inactive)
REMARK    1  A    between atoms: O1_2  and  C2_3 
REMARK    2  A    between atoms: C2_3  and  O2_4 
REMARK    3  A    between atoms: C2_3  and  C3_5 
REMARK    4  A    between atoms: C3_5  and  C14_21 
REMARK    5  A    between atoms: C4_6  and  C5_7 
REMARK    6  A    between atoms: C6_8  and  C7_9 
REMARK    7  A    between atoms: C14_21  and  N3_22 
ROOT
HETATM    1  C5  UNL     1      24.687   1.549  52.562  1.00  0.00     0.027 A 
HETATM    2  C6  UNL     1      25.924   1.241  51.985  1.00  0.00     0.081 A 
HETATM    3  N1  UNL     1      26.534   2.030  51.102  1.00  0.00    -0.240 NA
HETATM    4  C13 UNL     1      26.150   3.191  50.606  1.00  0.00     0.233 A 
HETATM    5  N2  UNL     1      25.008   3.871  50.887  1.00  0.00    -0.243 NA
HETATM    6  P1  UNL     1      24.018   3.069  52.017  1.00  0.00     0.102 P 
ENDROOT
BRANCH   1   7
HETATM    7  C4  UNL     1      23.993   0.706  53.522  1.00  0.00     0.026 C 
HETATM    8  C3  UNL     1      22.661   0.499  53.426  1.00  0.00     0.003 C 
BRANCH   8   9
HETATM    9  C2  UNL     1      21.573   0.938  52.508  1.00  0.00     0.288 C 
BRANCH   9  10
HETATM   10  O1  UNL     1      21.574  -0.026  51.472  1.00  0.00    -0.362 OA
HETATM   11  C1  UNL     1      21.373   0.658  50.277  1.00  0.00     0.205 C 
ENDBRANCH   9  10
BRANCH   9  12
HETATM   12  O2  UNL     1      20.324   0.933  53.068  1.00  0.00    -0.367 OA
HETATM   13  H5  UNL     1      19.770   0.148  52.826  1.00  0.00     0.213 HD
ENDBRANCH   9  12
ENDBRANCH   8   9
BRANCH   8  14
HETATM   14  C14 UNL     1      21.875  -0.340  54.388  1.00  0.00     0.305 C 
BRANCH  14  15
HETATM   15  N3  UNL     1      21.719  -1.707  53.941  1.00  0.00     0.082 N 
HETATM   16  H13 UNL     1      21.887  -2.387  54.710  1.00  0.00     0.313 HD
HETATM   17  H14 UNL     1      20.797  -1.909  53.529  1.00  0.00     0.313 HD
ENDBRANCH  14  15
ENDBRANCH   8  14
ENDBRANCH   1   7
BRANCH   2  18
HETATM   18  C7  UNL     1      26.617   0.001  52.313  1.00  0.00    -0.005 A 
HETATM   19  C8  UNL     1      26.258  -1.307  52.128  1.00  0.00     0.017 A 
HETATM   20  C9  UNL     1      27.101  -2.337  52.490  1.00  0.00     0.045 A 
HETATM   21  C10 UNL     1      28.337  -2.120  53.053  1.00  0.00     0.138 A 
HETATM   22  F1  UNL     1      29.169  -3.128  53.410  1.00  0.00    -0.204 F 
HETATM   23  C11 UNL     1      28.747  -0.803  53.263  1.00  0.00     0.073 A 
HETATM   24 CL1  UNL     1      30.313  -0.497  53.975  1.00  0.00    -0.081 Cl
HETATM   25  C12 UNL     1      27.879   0.198  52.889  1.00  0.00     0.041 A 
ENDBRANCH   2  18
TORSDOF 7
ENDMDL
MODEL 5
REMARK VINA RESULT:      -6.5      4.170      6.170
REMARK  7 active torsions:
REMARK  status: ('A' for Active; 'I' for Inactive)
REMARK    1  A    between atoms: O1_2  and  C2_3 
REMARK    2  A    between atoms: C2_3  and  O2_4 
REMARK    3  A    between atoms: C2_3  and  C3_5 
REMARK    4  A    between atoms: C3_5  and  C14_21 
REMARK    5  A    between atoms: C4_6  and  C5_7 
REMARK    6  A    between atoms: C6_8  and  C7_9 
REMARK    7  A    between atoms: C14_21  and  N3_22 
ROOT
HETATM    1  C5  UNL     1      24.103   0.837  52.333  1.00  0.00     0.027 A 
HETATM    2  C6  UNL     1      25.319   1.464  52.039  1.00  0.00     0.081 A 
HETATM    3  N1  UNL     1      25.435   2.451  51.152  1.00  0.00    -0.240 NA
HETATM    4  C13 UNL     1      24.510   3.024  50.405  1.00  0.00     0.233 A 
HETATM    5  N2  UNL     1      23.184   2.731  50.366  1.00  0.00    -0.243 NA
HETATM    6  P1  UNL     1      22.749   1.473  51.429  1.00  0.00     0.102 P 
ENDROOT
BRANCH   1   7
HETATM    7  C4  UNL     1      23.945  -0.246  53.290  1.00  0.00     0.026 C 
HETATM    8  C3  UNL     1      22.764  -0.453  53.912  1.00  0.00     0.003 C 
BRANCH   8   9
HETATM    9  C2  UNL     1      21.418   0.186  53.896  1.00  0.00     0.288 C 
BRANCH   9  10
HETATM   10  O1  UNL     1      20.620  -0.690  53.124  1.00  0.00    -0.362 OA
HETATM   11  C1  UNL     1      19.389  -0.067  52.940  1.00  0.00     0.205 C 
ENDBRANCH   9  10
BRANCH   9  12
HETATM   12  O2  UNL     1      20.828   0.297  55.126  1.00  0.00    -0.367 OA
HETATM   13  H5  UNL     1      19.950   0.756  55.119  1.00  0.00     0.213 HD
ENDBRANCH   9  12
ENDBRANCH   8   9
BRANCH   8  14
HETATM   14  C14 UNL     1      22.531  -1.535  54.923  1.00  0.00     0.305 C 
BRANCH  14  15
HETATM   15  N3  UNL     1      23.538  -1.557  55.962  1.00  0.00     0.082 N 
HETATM   16  H13 UNL     1      23.300  -0.915  56.745  1.00  0.00     0.313 HD
HETATM   17  H14 UNL     1      23.712  -2.493  56.355  1.00  0.00     0.313 HD
ENDBRANCH  14  15
ENDBRANCH   8  14
ENDBRANCH   1   7
BRANCH   2  18
HETATM   18  C7  UNL     1      26.555   1.046  52.688  1.00  0.00    -0.005 A 
HETATM   19  C8  UNL     1      27.451   1.743  53.454  1.00  0.00     0.017 A 
HETATM   20  C9  UNL     1      28.553   1.123  54.005  1.00  0.00     0.045 A 
HETATM   21  C10 UNL     1      28.821  -0.213  53.823  1.00  0.00     0.138 A 
HETATM   22  F1  UNL     1      29.902  -0.826  54.363  1.00  0.00    -0.204 F 
HETATM   23  C11 UNL     1      27.937  -0.966  53.049  1.00  0.00     0.073 A 
HETATM   24 CL1  UNL     1      28.251  -2.667  52.802  1.00  0.00    -0.081 Cl
HETATM   25  C12 UNL     1      26.848  -0.314  52.515  1.00  0.00     0.041 A 
ENDBRANCH   2  18
TORSDOF 7
ENDMDL
MODEL 6
REMARK VINA RESULT:      -6.5      4.109      5.593
REMARK  7 active torsions:
REMARK  status: ('A' for Active; 'I' for Inactive)
REMARK    1  A    between atoms: O1_2  and  C2_3 
REMARK    2  A    between atoms: C2_3  and  O2_4 
REMARK    3  A    between atoms: C2_3  and  C3_5 
REMARK    4  A    between atoms: C3_5  and  C14_21 
REMARK    5  A    between atoms: C4_6  and  C5_7 
REMARK    6  A    between atoms: C6_8  and  C7_9 
REMARK    7  A    between atoms: C14_21  and  N3_22 
ROOT
HETATM    1  C5  UNL     1      24.816   3.292  51.165  1.00  0.00     0.027 A 
HETATM    2  C6  UNL     1      26.139   2.876  50.976  1.00  0.00     0.081 A 
HETATM    3  N1  UNL     1      26.952   3.419  50.070  1.00  0.00    -0.240 NA
HETATM    4  C13 UNL     1      26.723   4.394  49.212  1.00  0.00     0.233 A 
HETATM    5  N2  UNL     1      25.569   5.093  49.047  1.00  0.00    -0.243 NA
HETATM    6  P1  UNL     1      24.331   4.592  50.103  1.00  0.00     0.102 P 
ENDROOT
BRANCH   1   7
HETATM    7  C4  UNL     1      23.903   2.716  52.139  1.00  0.00     0.026 C 
HETATM    8  C3  UNL     1      22.653   2.348  51.782  1.00  0.00     0.003 C 
BRANCH   8   9
HETATM    9  C2  UNL     1      21.848   2.366  50.529  1.00  0.00     0.288 C 
BRANCH   9  10
HETATM   10  O1  UNL     1      22.158   1.141  49.892  1.00  0.00    -0.362 OA
HETATM   11  C1  UNL     1      21.568   1.174  48.632  1.00  0.00     0.205 C 
ENDBRANCH   9  10
BRANCH   9  12
HETATM   12  O2  UNL     1      20.494   2.391  50.725  1.00  0.00    -0.367 OA
HETATM   13  H5  UNL     1      20.066   1.498  50.743  1.00  0.00     0.213 HD
ENDBRANCH   9  12
ENDBRANCH   8   9
BRANCH   8  14
HETATM   14  C14 UNL     1      21.650   1.766  52.733  1.00  0.00     0.305 C 
BRANCH  14  15
HETATM   15  N3  UNL     1      21.614   0.321  52.692  1.00  0.00     0.082 N 
HETATM   16  H13 UNL     1      20.651  -0.046  52.831  1.00  0.00     0.313 HD
HETATM   17  H14 UNL     1      21.989  -0.082  51.822  1.00  0.00     0.313 HD
ENDBRANCH  14  15
ENDBRANCH   8  14
ENDBRANCH   1   7
BRANCH   2  18
HETATM   18  C7  UNL     1      26.704   1.788  51.764  1.00  0.00    -0.005 A 
HETATM   19  C8  UNL     1      26.481   0.437  51.726  1.00  0.00     0.017 A 
HETATM   20  C9  UNL     1      27.166  -0.423  52.557  1.00  0.00     0.045 A 
HETATM   21  C10 UNL     1      28.102   0.011  53.466  1.00  0.00     0.138 A 
HETATM   22  F1  UNL     1      28.778  -0.830  54.285  1.00  0.00    -0.204 F 
HETATM   23  C11 UNL     1      28.363   1.380  53.544  1.00  0.00     0.073 A 
HETATM   24 CL1  UNL     1      29.548   1.962  54.688  1.00  0.00    -0.081 Cl
HETATM   25  C12 UNL     1      27.660   2.209  52.699  1.00  0.00     0.041 A 
ENDBRANCH   2  18
TORSDOF 7
ENDMDL
MODEL 7
REMARK VINA RESULT:      -6.3      3.301      4.305
REMARK  7 active torsions:
REMARK  status: ('A' for Active; 'I' for Inactive)
REMARK    1  A    between atoms: O1_2  and  C2_3 
REMARK    2  A    between atoms: C2_3  and  O2_4 
REMARK    3  A    between atoms: C2_3  and  C3_5 
REMARK    4  A    between atoms: C3_5  and  C14_21 
REMARK    5  A    between atoms: C4_6  and  C5_7 
REMARK    6  A    between atoms: C6_8  and  C7_9 
REMARK    7  A    between atoms: C14_21  and  N3_22 
ROOT
HETATM    1  C5  UNL     1      20.812   2.754  51.584  1.00  0.00     0.027 A 
HETATM    2  C6  UNL     1      20.642   1.373  51.727  1.00  0.00     0.081 A 
HETATM    3  N1  UNL     1      19.908   0.637  50.894  1.00  0.00    -0.240 NA
HETATM    4  C13 UNL     1      19.228   1.004  49.825  1.00  0.00     0.233 A 
HETATM    5  N2  UNL     1      19.113   2.257  49.311  1.00  0.00    -0.243 NA
HETATM    6  P1  UNL     1      19.973   3.424  50.205  1.00  0.00     0.102 P 
ENDROOT
BRANCH   1   7
HETATM    7  C4  UNL     1      21.600   3.585  52.480  1.00  0.00     0.026 C 
HETATM    8  C3  UNL     1      22.894   3.861  52.208  1.00  0.00     0.003 C 
BRANCH   8   9
HETATM    9  C2  UNL     1      23.859   3.516  51.126  1.00  0.00     0.288 C 
BRANCH   9  10
HETATM   10  O1  UNL     1      23.578   4.443  50.094  1.00  0.00    -0.362 OA
HETATM   11  C1  UNL     1      24.742   4.585  49.345  1.00  0.00     0.205 C 
ENDBRANCH   9  10
BRANCH   9  12
HETATM   12  O2  UNL     1      25.175   3.675  51.468  1.00  0.00    -0.367 OA
HETATM   13  H5  UNL     1      25.797   3.068  50.994  1.00  0.00     0.213 HD
ENDBRANCH   9  12
ENDBRANCH   8   9
BRANCH   8  14
HETATM   14  C14 UNL     1      23.774   4.692  53.093  1.00  0.00     0.305 C 
BRANCH  14  15
HETATM   15  N3  UNL     1      23.962   6.036  52.592  1.00  0.00     0.082 N 
HETATM   16  H13 UNL     1      23.308   6.711  53.040  1.00  0.00     0.313 HD
HETATM   17  H14 UNL     1      24.921   6.394  52.705  1.00  0.00     0.313 HD
ENDBRANCH  14  15
ENDBRANCH   8  14
ENDBRANCH   1   7
BRANCH   2  18
HETATM   18  C7  UNL     1      21.257   0.653  52.836  1.00  0.00    -0.005 A 
HETATM   19  C8  UNL     1      20.744   0.234  54.034  1.00  0.00     0.017 A 
HETATM   20  C9  UNL     1      21.513  -0.474  54.932  1.00  0.00     0.045 A 
HETATM   21  C10 UNL     1      22.826  -0.801  54.688  1.00  0.00     0.138 A 
HETATM   22  F1  UNL     1      23.587  -1.497  55.567  1.00  0.00    -0.204 F 
HETATM   23  C11 UNL     1      23.396  -0.396  53.480  1.00  0.00     0.073 A 
HETATM   24 CL1  UNL     1      25.062  -0.797  53.141  1.00  0.00    -0.081 Cl
HETATM   25  C12 UNL     1      22.597   0.310  52.608  1.00  0.00     0.041 A 
ENDBRANCH   2  18
TORSDOF 7
ENDMDL
MODEL 8
REMARK VINA RESULT:      -6.3      3.610      4.805
REMARK  7 active torsions:
REMARK  status: ('A' for Active; 'I' for Inactive)
REMARK    1  A    between atoms: O1_2  and  C2_3 
REMARK    2  A    between atoms: C2_3  and  O2_4 
REMARK    3  A    between atoms: C2_3  and  C3_5 
REMARK    4  A    between atoms: C3_5  and  C14_21 
REMARK    5  A    between atoms: C4_6  and  C5_7 
REMARK    6  A    between atoms: C6_8  and  C7_9 
REMARK    7  A    between atoms: C14_21  and  N3_22 
ROOT
HETATM    1  C5  UNL     1      22.720   1.295  52.963  1.00  0.00     0.027 A 
HETATM    2  C6  UNL     1      23.517   0.235  53.407  1.00  0.00     0.081 A 
HETATM    3  N1  UNL     1      23.018  -0.904  53.885  1.00  0.00    -0.240 NA
HETATM    4  C13 UNL     1      21.760  -1.271  54.039  1.00  0.00     0.233 A 
HETATM    5  N2  UNL     1      20.648  -0.550  53.738  1.00  0.00    -0.243 NA
HETATM    6  P1  UNL     1      21.005   0.985  53.093  1.00  0.00     0.102 P 
ENDROOT
BRANCH   1   7
HETATM    7  C4  UNL     1      23.235   2.551  52.443  1.00  0.00     0.026 C 
HETATM    8  C3  UNL     1      23.202   2.817  51.119  1.00  0.00     0.003 C 
BRANCH   8   9
HETATM    9  C2  UNL     1      22.734   2.107  49.896  1.00  0.00     0.288 C 
BRANCH   9  10
HETATM   10  O1  UNL     1      21.357   2.421  49.810  1.00  0.00    -0.362 OA
HETATM   11  C1  UNL     1      20.740   1.371  49.138  1.00  0.00     0.205 C 
ENDBRANCH   9  10
BRANCH   9  12
HETATM   12  O2  UNL     1      23.321   2.533  48.734  1.00  0.00    -0.367 OA
HETATM   13  H5  UNL     1      23.112   3.469  48.488  1.00  0.00     0.213 HD
ENDBRANCH   9  12
ENDBRANCH   8   9
BRANCH   8  14
HETATM   14  C14 UNL     1      23.731   4.080  50.507  1.00  0.00     0.305 C 
BRANCH  14  15
HETATM   15  N3  UNL     1      22.705   5.081  50.315  1.00  0.00     0.082 N 
HETATM   16  H13 UNL     1      23.026   6.026  50.608  1.00  0.00     0.313 HD
HETATM   17  H14 UNL     1      22.360   5.145  49.347  1.00  0.00     0.313 HD
ENDBRANCH  14  15
ENDBRANCH   8  14
ENDBRANCH   1   7
BRANCH   2  18
HETATM   18  C7  UNL     1      24.972   0.330  53.387  1.00  0.00    -0.005 A 
HETATM   19  C8  UNL     1      25.809   1.382  53.649  1.00  0.00     0.017 A 
HETATM   20  C9  UNL     1      27.179   1.232  53.603  1.00  0.00     0.045 A 
HETATM   21  C10 UNL     1      27.785   0.037  53.295  1.00  0.00     0.138 A 
HETATM   22  F1  UNL     1      29.130  -0.116  53.249  1.00  0.00    -0.204 F 
HETATM   23  C11 UNL     1      26.974  -1.065  53.021  1.00  0.00     0.073 A 
HETATM   24 CL1  UNL     1      27.714  -2.598  52.628  1.00  0.00    -0.081 Cl
HETATM   25  C12 UNL     1      25.611  -0.878  53.076  1.00  0.00     0.041 A 
ENDBRANCH   2  18
TORSDOF 7
ENDMDL
MODEL 9
REMARK VINA RESULT:      -6.2      2.898      4.548
REMARK  7 active torsions:
REMARK  status: ('A' for Active; 'I' for Inactive)
REMARK    1  A    between atoms: O1_2  and  C2_3 
REMARK    2  A    between atoms: C2_3  and  O2_4 
REMARK    3  A    between atoms: C2_3  and  C3_5 
REMARK    4  A    between atoms: C3_5  and  C14_21 
REMARK    5  A    between atoms: C4_6  and  C5_7 
REMARK    6  A    between atoms: C6_8  and  C7_9 
REMARK    7  A    between atoms: C14_21  and  N3_22 
ROOT
HETATM    1  C5  UNL     1      25.297   1.957  52.459  1.00  0.00     0.027 A 
HETATM    2  C6  UNL     1      24.126   2.060  51.701  1.00  0.00     0.081 A 
HETATM    3  N1  UNL     1      24.101   2.532  50.456  1.00  0.00    -0.240 NA
HETATM    4  C13 UNL     1      25.091   2.975  49.705  1.00  0.00     0.233 A 
HETATM    5  N2  UNL     1      26.406   3.056  50.038  1.00  0.00    -0.243 NA
HETATM    6  P1  UNL     1      26.727   2.505  51.617  1.00  0.00     0.102 P 
ENDROOT
BRANCH   1   7
HETATM    7  C4  UNL     1      25.355   1.453  53.822  1.00  0.00     0.026 C 
HETATM    8  C3  UNL     1      26.123   0.385  54.132  1.00  0.00     0.003 C 
BRANCH   8   9
HETATM    9  C2  UNL     1      27.033  -0.531  53.390  1.00  0.00     0.288 C 
BRANCH   9  10
HETATM   10  O1  UNL     1      28.120  -0.739  54.272  1.00  0.00    -0.362 OA
HETATM   11  C1  UNL     1      29.267  -0.297  53.618  1.00  0.00     0.205 C 
ENDBRANCH   9  10
BRANCH   9  12
HETATM   12  O2  UNL     1      26.496  -1.759  53.110  1.00  0.00    -0.367 OA
HETATM   13  H5  UNL     1      26.031  -1.813  52.237  1.00  0.00     0.213 HD
ENDBRANCH   9  12
ENDBRANCH   8   9
BRANCH   8  14
HETATM   14  C14 UNL     1      26.218  -0.202  55.508  1.00  0.00     0.305 C 
BRANCH  14  15
HETATM   15  N3  UNL     1      25.244  -1.246  55.740  1.00  0.00     0.082 N 
HETATM   16  H13 UNL     1      24.287  -0.861  55.868  1.00  0.00     0.313 HD
HETATM   17  H14 UNL     1      25.207  -1.956  54.994  1.00  0.00     0.313 HD
ENDBRANCH  14  15
ENDBRANCH   8  14
ENDBRANCH   1   7
BRANCH   2  18
HETATM   18  C7  UNL     1      22.836   1.664  52.255  1.00  0.00    -0.005 A 
HETATM   19  C8  UNL     1      21.646   2.336  52.336  1.00  0.00     0.017 A 
HETATM   20  C9  UNL     1      20.527   1.743  52.880  1.00  0.00     0.045 A 
HETATM   21  C10 UNL     1      20.532   0.459  53.371  1.00  0.00     0.138 A 
HETATM   22  F1  UNL     1      19.435  -0.129  53.906  1.00  0.00    -0.204 F 
HETATM   23  C11 UNL     1      21.723  -0.267  53.312  1.00  0.00     0.073 A 
HETATM   24 CL1  UNL     1      21.760  -1.902  53.927  1.00  0.00    -0.081 Cl
HETATM   25  C12 UNL     1      22.820   0.358  52.762  1.00  0.00     0.041 A 
ENDBRANCH   2  18
TORSDOF 7
ENDMDL
