MODEL 1
REMARK VINA RESULT:      -8.5      0.000      0.000
REMARK  8 active torsions:
REMARK  status: ('A' for Active; 'I' for Inactive)
REMARK    1  A    between atoms: O1_1  and  C1_2 
REMARK    2  A    between atoms: C1_2  and  C2_3 
REMARK    3  A    between atoms: C6_7  and  C7_8 
REMARK    4  A    between atoms: C17_20  and  N3_21 
REMARK    5  A    between atoms: N3_21  and  C18_22 
REMARK    6  A    between atoms: C18_22  and  C19_23 
REMARK    7  A    between atoms: C18_22  and  C20_25 
REMARK    8  A    between atoms: C19_23  and  O2_24 
ROOT
HETATM    1  C2  UNL     1      25.753   1.527  52.256  1.00  0.00     0.044 C 
HETATM    2  C3  UNL     1      26.204   1.816  53.650  1.00  0.00     0.012 C 
HETATM    3  C4  UNL     1      26.140   0.572  54.487  1.00  0.00     0.005 C 
HETATM    4  C5  UNL     1      24.835  -0.171  54.418  1.00  0.00     0.040 C 
HETATM    5  C6  UNL     1      24.009   0.425  53.342  1.00  0.00    -0.040 C 
HETATM    6  C13 UNL     1      24.274   1.214  52.291  1.00  0.00    -0.029 C 
HETATM    7  C14 UNL     1      23.308   1.640  51.335  1.00  0.00     0.034 A 
HETATM    8  C15 UNL     1      22.486   0.664  50.781  1.00  0.00     0.134 A 
HETATM    9  N1  UNL     1      21.541   0.970  49.870  1.00  0.00    -0.253 NA
HETATM   10  C16 UNL     1      21.357   2.249  49.460  1.00  0.00     0.234 A 
HETATM   11  N2  UNL     1      22.150   3.194  49.995  1.00  0.00    -0.224 NA
HETATM   12  C17 UNL     1      23.103   2.934  50.904  1.00  0.00     0.137 A 
ENDROOT
BRANCH  12  13
HETATM   13  N3  UNL     1      23.872   3.992  51.454  1.00  0.00    -0.363 N 
HETATM   14  H18 UNL     1      24.291   4.014  52.405  1.00  0.00     0.162 HD
BRANCH  13  15
HETATM   15  C18 UNL     1      24.111   5.182  50.663  1.00  0.00     0.140 C 
BRANCH  15  16
HETATM   16  C19 UNL     1      23.999   6.462  51.453  1.00  0.00     0.194 C 
BRANCH  16  17
HETATM   17  O2  UNL     1      24.275   6.274  52.793  1.00  0.00    -0.399 OA
HETATM   18  H22 UNL     1      23.728   6.842  53.375  1.00  0.00     0.209 HD
ENDBRANCH  16  17
ENDBRANCH  15  16
BRANCH  15  19
HETATM   19  C20 UNL     1      25.402   5.078  49.923  1.00  0.00    -0.034 A 
HETATM   20  C21 UNL     1      26.272   4.053  49.635  1.00  0.00     0.009 A 
HETATM   21  C22 UNL     1      27.417   4.293  48.915  1.00  0.00     0.001 A 
HETATM   22  C23 UNL     1      27.759   5.544  48.443  1.00  0.00     0.000 A 
HETATM   23  C24 UNL     1      26.897   6.581  48.722  1.00  0.00     0.001 A 
HETATM   24  C25 UNL     1      25.725   6.354  49.457  1.00  0.00     0.009 A 
ENDBRANCH  15  19
ENDBRANCH  13  15
ENDBRANCH  12  13
BRANCH   1  25
HETATM   25  C1  UNL     1      26.528   0.269  51.803  1.00  0.00     0.173 C 
BRANCH  25  26
HETATM   26  O1  UNL     1      27.880   0.424  52.139  1.00  0.00    -0.400 OA
HETATM   27  H1  UNL     1      28.331   1.111  51.602  1.00  0.00     0.209 HD
ENDBRANCH  25  26
ENDBRANCH   1  25
BRANCH   5  28
HETATM   28  C7  UNL     1      22.624   0.029  53.568  1.00  0.00    -0.029 A 
HETATM   29  C8  UNL     1      21.568   0.935  53.733  1.00  0.00     0.012 A 
HETATM   30  C9  UNL     1      20.259   0.626  53.930  1.00  0.00     0.001 A 
HETATM   31  C10 UNL     1      19.898  -0.682  53.978  1.00  0.00     0.000 A 
HETATM   32  C11 UNL     1      20.879  -1.637  53.824  1.00  0.00     0.001 A 
HETATM   33  C12 UNL     1      22.200  -1.302  53.625  1.00  0.00     0.012 A 
ENDBRANCH   5  28
TORSDOF 8
ENDMDL
MODEL 2
REMARK VINA RESULT:      -8.4      2.477      5.404
REMARK  8 active torsions:
REMARK  status: ('A' for Active; 'I' for Inactive)
REMARK    1  A    between atoms: O1_1  and  C1_2 
REMARK    2  A    between atoms: C1_2  and  C2_3 
REMARK    3  A    between atoms: C6_7  and  C7_8 
REMARK    4  A    between atoms: C17_20  and  N3_21 
REMARK    5  A    between atoms: N3_21  and  C18_22 
REMARK    6  A    between atoms: C18_22  and  C19_23 
REMARK    7  A    between atoms: C18_22  and  C20_25 
REMARK    8  A    between atoms: C19_23  and  O2_24 
ROOT
HETATM    1  C2  UNL     1      23.857   3.679  51.876  1.00  0.00     0.044 C 
HETATM    2  C3  UNL     1      24.064   4.081  50.453  1.00  0.00     0.012 C 
HETATM    3  C4  UNL     1      22.876   4.847  49.950  1.00  0.00     0.005 C 
HETATM    4  C5  UNL     1      21.547   4.194  50.204  1.00  0.00     0.040 C 
HETATM    5  C6  UNL     1      21.755   3.033  51.102  1.00  0.00    -0.040 C 
HETATM    6  C13 UNL     1      22.745   2.656  51.925  1.00  0.00    -0.029 C 
HETATM    7  C14 UNL     1      22.715   1.495  52.749  1.00  0.00     0.034 A 
HETATM    8  C15 UNL     1      21.580   1.296  53.528  1.00  0.00     0.134 A 
HETATM    9  N1  UNL     1      21.457   0.226  54.338  1.00  0.00    -0.253 NA
HETATM   10  C16 UNL     1      22.442  -0.702  54.420  1.00  0.00     0.234 A 
HETATM   11  N2  UNL     1      23.539  -0.512  53.666  1.00  0.00    -0.224 NA
HETATM   12  C17 UNL     1      23.703   0.539  52.847  1.00  0.00     0.137 A 
ENDROOT
BRANCH  12  13
HETATM   13  N3  UNL     1      24.872   0.647  52.050  1.00  0.00    -0.363 N 
HETATM   14  H18 UNL     1      24.921   0.537  51.017  1.00  0.00     0.162 HD
BRANCH  13  15
HETATM   15  C18 UNL     1      26.145   0.918  52.688  1.00  0.00     0.140 C 
BRANCH  15  16
HETATM   16  C19 UNL     1      26.014   1.622  54.015  1.00  0.00     0.194 C 
BRANCH  16  17
HETATM   17  O2  UNL     1      26.491   2.917  53.968  1.00  0.00    -0.399 OA
HETATM   18  H22 UNL     1      26.371   3.395  54.815  1.00  0.00     0.209 HD
ENDBRANCH  16  17
ENDBRANCH  15  16
BRANCH  15  19
HETATM   19  C20 UNL     1      26.968  -0.323  52.778  1.00  0.00    -0.034 A 
HETATM   20  C21 UNL     1      26.753  -1.651  52.490  1.00  0.00     0.009 A 
HETATM   21  C22 UNL     1      27.745  -2.577  52.697  1.00  0.00     0.001 A 
HETATM   22  C23 UNL     1      28.991  -2.247  53.191  1.00  0.00     0.000 A 
HETATM   23  C24 UNL     1      29.223  -0.921  53.482  1.00  0.00     0.001 A 
HETATM   24  C25 UNL     1      28.221   0.038  53.279  1.00  0.00     0.009 A 
ENDBRANCH  15  19
ENDBRANCH  13  15
ENDBRANCH  12  13
BRANCH   1  25
HETATM   25  C1  UNL     1      23.407   4.955  52.625  1.00  0.00     0.173 C 
BRANCH  25  26
HETATM   26  O1  UNL     1      24.155   5.077  53.804  1.00  0.00    -0.400 OA
HETATM   27  H1  UNL     1      23.741   5.679  54.459  1.00  0.00     0.209 HD
ENDBRANCH  25  26
ENDBRANCH   1  25
BRANCH   5  28
HETATM   28  C7  UNL     1      20.593   2.160  50.985  1.00  0.00    -0.029 A 
HETATM   29  C8  UNL     1      19.353   2.422  51.583  1.00  0.00     0.012 A 
HETATM   30  C9  UNL     1      18.234   1.656  51.495  1.00  0.00     0.001 A 
HETATM   31  C10 UNL     1      18.282   0.512  50.765  1.00  0.00     0.000 A 
HETATM   32  C11 UNL     1      19.467   0.183  50.144  1.00  0.00     0.001 A 
HETATM   33  C12 UNL     1      20.590   0.974  50.245  1.00  0.00     0.012 A 
ENDBRANCH   5  28
TORSDOF 8
ENDMDL
MODEL 3
REMARK VINA RESULT:      -8.3      2.416      5.654
REMARK  8 active torsions:
REMARK  status: ('A' for Active; 'I' for Inactive)
REMARK    1  A    between atoms: O1_1  and  C1_2 
REMARK    2  A    between atoms: C1_2  and  C2_3 
REMARK    3  A    between atoms: C6_7  and  C7_8 
REMARK    4  A    between atoms: C17_20  and  N3_21 
REMARK    5  A    between atoms: N3_21  and  C18_22 
REMARK    6  A    between atoms: C18_22  and  C19_23 
REMARK    7  A    between atoms: C18_22  and  C20_25 
REMARK    8  A    between atoms: C19_23  and  O2_24 
ROOT
HETATM    1  C2  UNL     1      25.127   2.253  52.441  1.00  0.00     0.044 C 
HETATM    2  C3  UNL     1      26.165   1.913  51.422  1.00  0.00     0.012 C 
HETATM    3  C4  UNL     1      26.190   2.950  50.338  1.00  0.00     0.005 C 
HETATM    4  C5  UNL     1      24.848   3.280  49.746  1.00  0.00     0.040 C 
HETATM    5  C6  UNL     1      23.798   2.628  50.563  1.00  0.00    -0.040 C 
HETATM    6  C13 UNL     1      23.766   2.109  51.799  1.00  0.00    -0.029 C 
HETATM    7  C14 UNL     1      22.606   1.560  52.416  1.00  0.00     0.034 A 
HETATM    8  C15 UNL     1      21.442   2.320  52.376  1.00  0.00     0.134 A 
HETATM    9  N1  UNL     1      20.293   1.884  52.930  1.00  0.00    -0.253 NA
HETATM   10  C16 UNL     1      20.232   0.680  53.549  1.00  0.00     0.234 A 
HETATM   11  N2  UNL     1      21.356  -0.057  53.588  1.00  0.00    -0.224 NA
HETATM   12  C17 UNL     1      22.521   0.339  53.050  1.00  0.00     0.137 A 
ENDROOT
BRANCH  12  13
HETATM   13  N3  UNL     1      23.654  -0.515  53.095  1.00  0.00    -0.363 N 
HETATM   14  H18 UNL     1      23.974  -1.146  52.333  1.00  0.00     0.162 HD
BRANCH  13  15
HETATM   15  C18 UNL     1      24.463  -0.560  54.296  1.00  0.00     0.140 C 
BRANCH  15  16
HETATM   16  C19 UNL     1      24.025  -1.617  55.277  1.00  0.00     0.194 C 
BRANCH  16  17
HETATM   17  O2  UNL     1      22.724  -1.430  55.701  1.00  0.00    -0.399 OA
HETATM   18  H22 UNL     1      22.449  -0.490  55.675  1.00  0.00     0.209 HD
ENDBRANCH  16  17
ENDBRANCH  15  16
BRANCH  15  19
HETATM   19  C20 UNL     1      25.912  -0.660  53.957  1.00  0.00    -0.034 A 
HETATM   20  C21 UNL     1      26.636  -1.317  52.989  1.00  0.00     0.009 A 
HETATM   21  C22 UNL     1      28.005  -1.207  52.950  1.00  0.00     0.001 A 
HETATM   22  C23 UNL     1      28.724  -0.450  53.851  1.00  0.00     0.000 A 
HETATM   23  C24 UNL     1      28.013   0.215  54.825  1.00  0.00     0.001 A 
HETATM   24  C25 UNL     1      26.617   0.114  54.882  1.00  0.00     0.009 A 
ENDBRANCH  15  19
ENDBRANCH  13  15
ENDBRANCH  12  13
BRANCH   1  25
HETATM   25  C1  UNL     1      25.359   3.734  52.817  1.00  0.00     0.173 C 
BRANCH  25  26
HETATM   26  O1  UNL     1      24.272   4.184  53.579  1.00  0.00    -0.400 OA
HETATM   27  H1  UNL     1      24.258   5.160  53.687  1.00  0.00     0.209 HD
ENDBRANCH  25  26
ENDBRANCH   1  25
BRANCH   5  28
HETATM   28  C7  UNL     1      22.581   2.564  49.762  1.00  0.00    -0.029 A 
HETATM   29  C8  UNL     1      21.838   3.687  49.375  1.00  0.00     0.012 A 
HETATM   30  C9  UNL     1      20.709   3.690  48.618  1.00  0.00     0.001 A 
HETATM   31  C10 UNL     1      20.219   2.504  48.174  1.00  0.00     0.000 A 
HETATM   32  C11 UNL     1      20.893   1.351  48.512  1.00  0.00     0.001 A 
HETATM   33  C12 UNL     1      22.037   1.370  49.280  1.00  0.00     0.012 A 
ENDBRANCH   5  28
TORSDOF 8
ENDMDL
MODEL 4
REMARK VINA RESULT:      -8.2      1.598      1.947
REMARK  8 active torsions:
REMARK  status: ('A' for Active; 'I' for Inactive)
REMARK    1  A    between atoms: O1_1  and  C1_2 
REMARK    2  A    between atoms: C1_2  and  C2_3 
REMARK    3  A    between atoms: C6_7  and  C7_8 
REMARK    4  A    between atoms: C17_20  and  N3_21 
REMARK    5  A    between atoms: N3_21  and  C18_22 
REMARK    6  A    between atoms: C18_22  and  C19_23 
REMARK    7  A    between atoms: C18_22  and  C20_25 
REMARK    8  A    between atoms: C19_23  and  O2_24 
ROOT
HETATM    1  C2  UNL     1      25.150   2.256  51.657  1.00  0.00     0.044 C 
HETATM    2  C3  UNL     1      25.187   2.496  53.131  1.00  0.00     0.012 C 
HETATM    3  C4  UNL     1      24.632   1.312  53.866  1.00  0.00     0.005 C 
HETATM    4  C5  UNL     1      23.301   0.823  53.368  1.00  0.00     0.040 C 
HETATM    5  C6  UNL     1      22.981   1.531  52.106  1.00  0.00    -0.040 C 
HETATM    6  C13 UNL     1      23.705   2.226  51.216  1.00  0.00    -0.029 C 
HETATM    7  C14 UNL     1      23.185   2.796  50.019  1.00  0.00     0.034 A 
HETATM    8  C15 UNL     1      22.411   1.975  49.206  1.00  0.00     0.134 A 
HETATM    9  N1  UNL     1      21.874   2.425  48.054  1.00  0.00    -0.253 NA
HETATM   10  C16 UNL     1      22.071   3.703  47.647  1.00  0.00     0.234 A 
HETATM   11  N2  UNL     1      22.818   4.498  48.433  1.00  0.00    -0.224 NA
HETATM   12  C17 UNL     1      23.371   4.092  49.587  1.00  0.00     0.137 A 
ENDROOT
BRANCH  12  13
HETATM   13  N3  UNL     1      24.111   5.004  50.383  1.00  0.00    -0.363 N 
HETATM   14  H18 UNL     1      24.291   4.919  51.403  1.00  0.00     0.162 HD
BRANCH  13  15
HETATM   15  C18 UNL     1      24.676   6.188  49.767  1.00  0.00     0.140 C 
BRANCH  15  16
HETATM   16  C19 UNL     1      24.645   7.403  50.660  1.00  0.00     0.194 C 
BRANCH  16  17
HETATM   17  O2  UNL     1      24.551   7.068  51.996  1.00  0.00    -0.399 OA
HETATM   18  H22 UNL     1      24.401   7.845  52.572  1.00  0.00     0.209 HD
ENDBRANCH  16  17
ENDBRANCH  15  16
BRANCH  15  19
HETATM   19  C20 UNL     1      26.040   5.908  49.231  1.00  0.00    -0.034 A 
HETATM   20  C21 UNL     1      26.796   4.773  49.055  1.00  0.00     0.009 A 
HETATM   21  C22 UNL     1      28.060   4.855  48.523  1.00  0.00     0.001 A 
HETATM   22  C23 UNL     1      28.638   6.047  48.139  1.00  0.00     0.000 A 
HETATM   23  C24 UNL     1      27.893   7.193  48.308  1.00  0.00     0.001 A 
HETATM   24  C25 UNL     1      26.602   7.128  48.850  1.00  0.00     0.009 A 
ENDBRANCH  15  19
ENDBRANCH  13  15
ENDBRANCH  12  13
BRANCH   1  25
HETATM   25  C1  UNL     1      25.780   0.862  51.431  1.00  0.00     0.173 C 
BRANCH  25  26
HETATM   26  O1  UNL     1      27.143   0.923  51.753  1.00  0.00    -0.400 OA
HETATM   27  H1  UNL     1      27.307   1.266  52.658  1.00  0.00     0.209 HD
ENDBRANCH  25  26
ENDBRANCH   1  25
BRANCH   5  28
HETATM   28  C7  UNL     1      21.546   1.408  51.874  1.00  0.00    -0.029 A 
HETATM   29  C8  UNL     1      20.626   2.442  52.094  1.00  0.00     0.012 A 
HETATM   30  C9  UNL     1      19.285   2.391  51.880  1.00  0.00     0.001 A 
HETATM   31  C10 UNL     1      18.743   1.238  51.407  1.00  0.00     0.000 A 
HETATM   32  C11 UNL     1      19.582   0.174  51.165  1.00  0.00     0.001 A 
HETATM   33  C12 UNL     1      20.940   0.246  51.387  1.00  0.00     0.012 A 
ENDBRANCH   5  28
TORSDOF 8
ENDMDL
MODEL 5
REMARK VINA RESULT:      -8.1      9.983     12.415
REMARK  8 active torsions:
REMARK  status: ('A' for Active; 'I' for Inactive)
REMARK    1  A    between atoms: O1_1  and  C1_2 
REMARK    2  A    between atoms: C1_2  and  C2_3 
REMARK    3  A    between atoms: C6_7  and  C7_8 
REMARK    4  A    between atoms: C17_20  and  N3_21 
REMARK    5  A    between atoms: N3_21  and  C18_22 
REMARK    6  A    between atoms: C18_22  and  C19_23 
REMARK    7  A    between atoms: C18_22  and  C20_25 
REMARK    8  A    between atoms: C19_23  and  O2_24 
ROOT
HETATM    1  C2  UNL     1      31.069   9.574  48.091  1.00  0.00     0.044 C 
HETATM    2  C3  UNL     1      30.111   9.862  46.981  1.00  0.00     0.012 C 
HETATM    3  C4  UNL     1      29.077   8.779  46.891  1.00  0.00     0.005 C 
HETATM    4  C5  UNL     1      29.625   7.379  46.868  1.00  0.00     0.040 C 
HETATM    5  C6  UNL     1      31.076   7.436  47.163  1.00  0.00    -0.040 C 
HETATM    6  C13 UNL     1      31.881   8.356  47.714  1.00  0.00    -0.029 C 
HETATM    7  C14 UNL     1      33.274   8.176  47.949  1.00  0.00     0.034 A 
HETATM    8  C15 UNL     1      33.666   7.006  48.592  1.00  0.00     0.134 A 
HETATM    9  N1  UNL     1      34.962   6.746  48.855  1.00  0.00    -0.253 NA
HETATM   10  C16 UNL     1      35.935   7.621  48.500  1.00  0.00     0.234 A 
HETATM   11  N2  UNL     1      35.557   8.751  47.878  1.00  0.00    -0.224 NA
HETATM   12  C17 UNL     1      34.279   9.051  47.596  1.00  0.00     0.137 A 
ENDROOT
BRANCH  12  13
HETATM   13  N3  UNL     1      33.964  10.245  46.898  1.00  0.00    -0.363 N 
HETATM   14  H18 UNL     1      33.552  11.105  47.312  1.00  0.00     0.162 HD
BRANCH  13  15
HETATM   15  C18 UNL     1      34.205  10.319  45.471  1.00  0.00     0.140 C 
BRANCH  15  16
HETATM   16  C19 UNL     1      35.041   9.181  44.942  1.00  0.00     0.194 C 
BRANCH  16  17
HETATM   17  O2  UNL     1      36.390   9.472  44.960  1.00  0.00    -0.399 OA
HETATM   18  H22 UNL     1      36.951   8.672  44.885  1.00  0.00     0.209 HD
ENDBRANCH  16  17
ENDBRANCH  15  16
BRANCH  15  19
HETATM   19  C20 UNL     1      32.924  10.483  44.724  1.00  0.00    -0.034 A 
HETATM   20  C21 UNL     1      32.093  11.544  44.449  1.00  0.00     0.009 A 
HETATM   21  C22 UNL     1      30.946  11.357  43.716  1.00  0.00     0.001 A 
HETATM   22  C23 UNL     1      30.563  10.128  43.219  1.00  0.00     0.000 A 
HETATM   23  C24 UNL     1      31.386   9.056  43.486  1.00  0.00     0.001 A 
HETATM   24  C25 UNL     1      32.559   9.227  44.233  1.00  0.00     0.009 A 
ENDBRANCH  15  19
ENDBRANCH  13  15
ENDBRANCH  12  13
BRANCH   1  25
HETATM   25  C1  UNL     1      30.206   9.248  49.332  1.00  0.00     0.173 C 
BRANCH  25  26
HETATM   26  O1  UNL     1      30.680   9.992  50.421  1.00  0.00    -0.400 OA
HETATM   27  H1  UNL     1      31.507   9.626  50.803  1.00  0.00     0.209 HD
ENDBRANCH  25  26
ENDBRANCH   1  25
BRANCH   5  28
HETATM   28  C7  UNL     1      31.676   6.188  46.705  1.00  0.00    -0.029 A 
HETATM   29  C8  UNL     1      31.502   4.954  47.345  1.00  0.00     0.012 A 
HETATM   30  C9  UNL     1      32.022   3.760  46.956  1.00  0.00     0.001 A 
HETATM   31  C10 UNL     1      32.794   3.717  45.840  1.00  0.00     0.000 A 
HETATM   32  C11 UNL     1      33.013   4.890  45.152  1.00  0.00     0.001 A 
HETATM   33  C12 UNL     1      32.477   6.091  45.563  1.00  0.00     0.012 A 
ENDBRANCH   5  28
TORSDOF 8
ENDMDL
MODEL 6
REMARK VINA RESULT:      -8.1      5.123     10.701
REMARK  8 active torsions:
REMARK  status: ('A' for Active; 'I' for Inactive)
REMARK    1  A    between atoms: O1_1  and  C1_2 
REMARK    2  A    between atoms: C1_2  and  C2_3 
REMARK    3  A    between atoms: C6_7  and  C7_8 
REMARK    4  A    between atoms: C17_20  and  N3_21 
REMARK    5  A    between atoms: N3_21  and  C18_22 
REMARK    6  A    between atoms: C18_22  and  C19_23 
REMARK    7  A    between atoms: C18_22  and  C20_25 
REMARK    8  A    between atoms: C19_23  and  O2_24 
ROOT
HETATM    1  C2  UNL     1      30.805   6.114  48.690  1.00  0.00     0.044 C 
HETATM    2  C3  UNL     1      31.088   5.115  47.617  1.00  0.00     0.012 C 
HETATM    3  C4  UNL     1      32.532   5.178  47.214  1.00  0.00     0.005 C 
HETATM    4  C5  UNL     1      33.044   6.557  46.905  1.00  0.00     0.040 C 
HETATM    5  C6  UNL     1      32.011   7.543  47.299  1.00  0.00    -0.040 C 
HETATM    6  C13 UNL     1      30.934   7.498  48.098  1.00  0.00    -0.029 C 
HETATM    7  C14 UNL     1      30.085   8.608  48.375  1.00  0.00     0.034 A 
HETATM    8  C15 UNL     1      30.696   9.799  48.755  1.00  0.00     0.134 A 
HETATM    9  N1  UNL     1      29.977  10.903  49.035  1.00  0.00    -0.253 NA
HETATM   10  C16 UNL     1      28.624  10.893  48.955  1.00  0.00     0.234 A 
HETATM   11  N2  UNL     1      28.032   9.743  48.586  1.00  0.00    -0.224 NA
HETATM   12  C17 UNL     1      28.709   8.620  48.298  1.00  0.00     0.137 A 
ENDROOT
BRANCH  12  13
HETATM   13  N3  UNL     1      28.015   7.457  47.874  1.00  0.00    -0.363 N 
HETATM   14  H18 UNL     1      28.391   6.711  47.256  1.00  0.00     0.162 HD
BRANCH  13  15
HETATM   15  C18 UNL     1      26.645   7.252  48.302  1.00  0.00     0.140 C 
BRANCH  15  16
HETATM   16  C19 UNL     1      25.625   7.699  47.285  1.00  0.00     0.194 C 
BRANCH  16  17
HETATM   17  O2  UNL     1      25.263   9.020  47.455  1.00  0.00    -0.399 OA
HETATM   18  H22 UNL     1      24.545   9.135  48.112  1.00  0.00     0.209 HD
ENDBRANCH  16  17
ENDBRANCH  15  16
BRANCH  15  19
HETATM   19  C20 UNL     1      26.432   5.844  48.744  1.00  0.00    -0.034 A 
HETATM   20  C21 UNL     1      27.254   4.760  48.953  1.00  0.00     0.009 A 
HETATM   21  C22 UNL     1      26.730   3.560  49.368  1.00  0.00     0.001 A 
HETATM   22  C23 UNL     1      25.384   3.367  49.599  1.00  0.00     0.000 A 
HETATM   23  C24 UNL     1      24.548   4.443  49.395  1.00  0.00     0.001 A 
HETATM   24  C25 UNL     1      25.065   5.674  48.971  1.00  0.00     0.009 A 
ENDBRANCH  15  19
ENDBRANCH  13  15
ENDBRANCH  12  13
BRANCH   1  25
HETATM   25  C1  UNL     1      31.899   5.916  49.764  1.00  0.00     0.173 C 
BRANCH  25  26
HETATM   26  O1  UNL     1      31.338   5.257  50.867  1.00  0.00    -0.400 OA
HETATM   27  H1  UNL     1      30.786   4.487  50.612  1.00  0.00     0.209 HD
ENDBRANCH  25  26
ENDBRANCH   1  25
BRANCH   5  28
HETATM   28  C7  UNL     1      32.297   8.794  46.606  1.00  0.00    -0.029 A 
HETATM   29  C8  UNL     1      31.610   9.232  45.466  1.00  0.00     0.012 A 
HETATM   30  C9  UNL     1      31.820  10.392  44.789  1.00  0.00     0.001 A 
HETATM   31  C10 UNL     1      32.786  11.239  45.231  1.00  0.00     0.000 A 
HETATM   32  C11 UNL     1      33.508  10.880  46.348  1.00  0.00     0.001 A 
HETATM   33  C12 UNL     1      33.278   9.700  47.020  1.00  0.00     0.012 A 
ENDBRANCH   5  28
TORSDOF 8
ENDMDL
MODEL 7
REMARK VINA RESULT:      -8.0      2.883      6.903
REMARK  8 active torsions:
REMARK  status: ('A' for Active; 'I' for Inactive)
REMARK    1  A    between atoms: O1_1  and  C1_2 
REMARK    2  A    between atoms: C1_2  and  C2_3 
REMARK    3  A    between atoms: C6_7  and  C7_8 
REMARK    4  A    between atoms: C17_20  and  N3_21 
REMARK    5  A    between atoms: N3_21  and  C18_22 
REMARK    6  A    between atoms: C18_22  and  C19_23 
REMARK    7  A    between atoms: C18_22  and  C20_25 
REMARK    8  A    between atoms: C19_23  and  O2_24 
ROOT
HETATM    1  C2  UNL     1      23.106   2.984  51.888  1.00  0.00     0.044 C 
HETATM    2  C3  UNL     1      24.199   2.056  51.471  1.00  0.00     0.012 C 
HETATM    3  C4  UNL     1      25.298   2.817  50.791  1.00  0.00     0.005 C 
HETATM    4  C5  UNL     1      24.845   3.744  49.698  1.00  0.00     0.040 C 
HETATM    5  C6  UNL     1      23.365   3.822  49.729  1.00  0.00    -0.040 C 
HETATM    6  C13 UNL     1      22.434   3.517  50.644  1.00  0.00    -0.029 C 
HETATM    7  C14 UNL     1      21.035   3.720  50.473  1.00  0.00     0.034 A 
HETATM    8  C15 UNL     1      20.622   4.971  50.024  1.00  0.00     0.134 A 
HETATM    9  N1  UNL     1      19.320   5.258  49.830  1.00  0.00    -0.253 NA
HETATM   10  C16 UNL     1      18.360   4.330  50.066  1.00  0.00     0.234 A 
HETATM   11  N2  UNL     1      18.757   3.120  50.498  1.00  0.00    -0.224 NA
HETATM   12  C17 UNL     1      20.042   2.792  50.705  1.00  0.00     0.137 A 
ENDROOT
BRANCH  12  13
HETATM   13  N3  UNL     1      20.385   1.480  51.121  1.00  0.00    -0.363 N 
HETATM   14  H18 UNL     1      21.090   0.860  50.674  1.00  0.00     0.162 HD
BRANCH  13  15
HETATM   15  C18 UNL     1      19.708   0.896  52.262  1.00  0.00     0.140 C 
BRANCH  15  16
HETATM   16  C19 UNL     1      18.610  -0.065  51.882  1.00  0.00     0.194 C 
BRANCH  16  17
HETATM   17  O2  UNL     1      17.411   0.578  51.645  1.00  0.00    -0.399 OA
HETATM   18  H22 UNL     1      16.873   0.135  50.956  1.00  0.00     0.209 HD
ENDBRANCH  16  17
ENDBRANCH  15  16
BRANCH  15  19
HETATM   19  C20 UNL     1      20.688   0.297  53.213  1.00  0.00    -0.034 A 
HETATM   20  C21 UNL     1      20.792   0.232  54.583  1.00  0.00     0.009 A 
HETATM   21  C22 UNL     1      21.856  -0.409  55.169  1.00  0.00     0.001 A 
HETATM   22  C23 UNL     1      22.862  -1.014  54.445  1.00  0.00     0.000 A 
HETATM   23  C24 UNL     1      22.772  -0.959  53.072  1.00  0.00     0.001 A 
HETATM   24  C25 UNL     1      21.694  -0.308  52.456  1.00  0.00     0.009 A 
ENDBRANCH  15  19
ENDBRANCH  13  15
ENDBRANCH  12  13
BRANCH   1  25
HETATM   25  C1  UNL     1      23.792   4.151  52.635  1.00  0.00     0.173 C 
BRANCH  25  26
HETATM   26  O1  UNL     1      22.824   5.108  52.970  1.00  0.00    -0.400 OA
HETATM   27  H1  UNL     1      22.997   5.541  53.833  1.00  0.00     0.209 HD
ENDBRANCH  25  26
ENDBRANCH   1  25
BRANCH   5  28
HETATM   28  C7  UNL     1      22.916   4.330  48.438  1.00  0.00    -0.029 A 
HETATM   29  C8  UNL     1      22.293   3.543  47.460  1.00  0.00     0.012 A 
HETATM   30  C9  UNL     1      21.839   3.964  46.250  1.00  0.00     0.001 A 
HETATM   31  C10 UNL     1      21.987   5.272  45.917  1.00  0.00     0.000 A 
HETATM   32  C11 UNL     1      22.591   6.113  46.825  1.00  0.00     0.001 A 
HETATM   33  C12 UNL     1      23.044   5.667  48.048  1.00  0.00     0.012 A 
ENDBRANCH   5  28
TORSDOF 8
ENDMDL
MODEL 8
REMARK VINA RESULT:      -8.0      2.112      5.832
REMARK  8 active torsions:
REMARK  status: ('A' for Active; 'I' for Inactive)
REMARK    1  A    between atoms: O1_1  and  C1_2 
REMARK    2  A    between atoms: C1_2  and  C2_3 
REMARK    3  A    between atoms: C6_7  and  C7_8 
REMARK    4  A    between atoms: C17_20  and  N3_21 
REMARK    5  A    between atoms: N3_21  and  C18_22 
REMARK    6  A    between atoms: C18_22  and  C19_23 
REMARK    7  A    between atoms: C18_22  and  C20_25 
REMARK    8  A    between atoms: C19_23  and  O2_24 
ROOT
HETATM    1  C2  UNL     1      24.532   4.604  51.142  1.00  0.00     0.044 C 
HETATM    2  C3  UNL     1      25.484   4.455  50.002  1.00  0.00     0.012 C 
HETATM    3  C4  UNL     1      25.122   5.401  48.895  1.00  0.00     0.005 C 
HETATM    4  C5  UNL     1      23.677   5.372  48.482  1.00  0.00     0.040 C 
HETATM    5  C6  UNL     1      22.926   4.542  49.454  1.00  0.00    -0.040 C 
HETATM    6  C13 UNL     1      23.175   4.107  50.698  1.00  0.00    -0.029 C 
HETATM    7  C14 UNL     1      22.268   3.339  51.483  1.00  0.00     0.034 A 
HETATM    8  C15 UNL     1      20.960   3.802  51.580  1.00  0.00     0.134 A 
HETATM    9  N1  UNL     1      20.029   3.143  52.298  1.00  0.00    -0.253 NA
HETATM   10  C16 UNL     1      20.338   1.998  52.955  1.00  0.00     0.234 A 
HETATM   11  N2  UNL     1      21.602   1.549  52.861  1.00  0.00    -0.224 NA
HETATM   12  C17 UNL     1      22.560   2.173  52.157  1.00  0.00     0.137 A 
ENDROOT
BRANCH  12  13
HETATM   13  N3  UNL     1      23.861   1.613  52.072  1.00  0.00    -0.363 N 
HETATM   14  H18 UNL     1      24.471   1.609  51.230  1.00  0.00     0.162 HD
BRANCH  13  15
HETATM   15  C18 UNL     1      24.431   0.960  53.233  1.00  0.00     0.140 C 
BRANCH  15  16
HETATM   16  C19 UNL     1      24.151  -0.520  53.289  1.00  0.00     0.194 C 
BRANCH  16  17
HETATM   17  O2  UNL     1      23.071  -0.817  54.095  1.00  0.00    -0.399 OA
HETATM   18  H22 UNL     1      23.327  -1.294  54.912  1.00  0.00     0.209 HD
ENDBRANCH  16  17
ENDBRANCH  15  16
BRANCH  15  19
HETATM   19  C20 UNL     1      25.885   1.272  53.356  1.00  0.00    -0.034 A 
HETATM   20  C21 UNL     1      26.726   2.203  52.793  1.00  0.00     0.009 A 
HETATM   21  C22 UNL     1      28.060   2.223  53.121  1.00  0.00     0.001 A 
HETATM   22  C23 UNL     1      28.629   1.338  54.013  1.00  0.00     0.000 A 
HETATM   23  C24 UNL     1      27.799   0.400  54.586  1.00  0.00     0.001 A 
HETATM   24  C25 UNL     1      26.436   0.363  54.262  1.00  0.00     0.009 A 
ENDBRANCH  15  19
ENDBRANCH  13  15
ENDBRANCH  12  13
BRANCH   1  25
HETATM   25  C1  UNL     1      24.446   6.118  51.440  1.00  0.00     0.173 C 
BRANCH  25  26
HETATM   26  O1  UNL     1      24.269   6.300  52.818  1.00  0.00    -0.400 OA
HETATM   27  H1  UNL     1      24.782   5.661  53.358  1.00  0.00     0.209 HD
ENDBRANCH  25  26
ENDBRANCH   1  25
BRANCH   5  28
HETATM   28  C7  UNL     1      21.669   4.146  48.829  1.00  0.00    -0.029 A 
HETATM   29  C8  UNL     1      20.579   5.008  48.648  1.00  0.00     0.012 A 
HETATM   30  C9  UNL     1      19.393   4.700  48.059  1.00  0.00     0.001 A 
HETATM   31  C10 UNL     1      19.206   3.440  47.588  1.00  0.00     0.000 A 
HETATM   32  C11 UNL     1      20.232   2.531  47.729  1.00  0.00     0.001 A 
HETATM   33  C12 UNL     1      21.427   2.864  48.327  1.00  0.00     0.012 A 
ENDBRANCH   5  28
TORSDOF 8
ENDMDL
MODEL 9
REMARK VINA RESULT:      -7.9      2.522      6.269
REMARK  8 active torsions:
REMARK  status: ('A' for Active; 'I' for Inactive)
REMARK    1  A    between atoms: O1_1  and  C1_2 
REMARK    2  A    between atoms: C1_2  and  C2_3 
REMARK    3  A    between atoms: C6_7  and  C7_8 
REMARK    4  A    between atoms: C17_20  and  N3_21 
REMARK    5  A    between atoms: N3_21  and  C18_22 
REMARK    6  A    between atoms: C18_22  and  C19_23 
REMARK    7  A    between atoms: C18_22  and  C20_25 
REMARK    8  A    between atoms: C19_23  and  O2_24 
ROOT
HETATM    1  C2  UNL     1      24.815   6.521  50.580  1.00  0.00     0.044 C 
HETATM    2  C3  UNL     1      25.870   6.608  49.527  1.00  0.00     0.012 C 
HETATM    3  C4  UNL     1      25.325   7.268  48.295  1.00  0.00     0.005 C 
HETATM    4  C5  UNL     1      24.022   6.706  47.799  1.00  0.00     0.040 C 
HETATM    5  C6  UNL     1      23.499   5.760  48.812  1.00  0.00    -0.040 C 
HETATM    6  C13 UNL     1      23.755   5.550  50.112  1.00  0.00    -0.029 C 
HETATM    7  C14 UNL     1      23.084   4.592  50.924  1.00  0.00     0.034 A 
HETATM    8  C15 UNL     1      21.694   4.583  50.883  1.00  0.00     0.134 A 
HETATM    9  N1  UNL     1      20.971   3.711  51.614  1.00  0.00    -0.253 NA
HETATM   10  C16 UNL     1      21.578   2.806  52.420  1.00  0.00     0.234 A 
HETATM   11  N2  UNL     1      22.922   2.813  52.460  1.00  0.00    -0.224 NA
HETATM   12  C17 UNL     1      23.681   3.663  51.749  1.00  0.00     0.137 A 
ENDROOT
BRANCH  12  13
HETATM   13  N3  UNL     1      25.096   3.579  51.813  1.00  0.00    -0.363 N 
HETATM   14  H18 UNL     1      25.727   4.245  52.302  1.00  0.00     0.162 HD
BRANCH  13  15
HETATM   15  C18 UNL     1      25.775   2.493  51.135  1.00  0.00     0.140 C 
BRANCH  15  16
HETATM   16  C19 UNL     1      26.468   2.916  49.865  1.00  0.00     0.194 C 
BRANCH  16  17
HETATM   17  O2  UNL     1      27.421   3.890  50.089  1.00  0.00    -0.399 OA
HETATM   18  H22 UNL     1      27.125   4.568  50.731  1.00  0.00     0.209 HD
ENDBRANCH  16  17
ENDBRANCH  15  16
BRANCH  15  19
HETATM   19  C20 UNL     1      26.685   1.770  52.070  1.00  0.00    -0.034 A 
HETATM   20  C21 UNL     1      27.593   2.157  53.029  1.00  0.00     0.009 A 
HETATM   21  C22 UNL     1      28.301   1.215  53.735  1.00  0.00     0.001 A 
HETATM   22  C23 UNL     1      28.153  -0.142  53.538  1.00  0.00     0.000 A 
HETATM   23  C24 UNL     1      27.247  -0.545  52.582  1.00  0.00     0.001 A 
HETATM   24  C25 UNL     1      26.516   0.401  51.850  1.00  0.00     0.009 A 
ENDBRANCH  15  19
ENDBRANCH  13  15
ENDBRANCH  12  13
BRANCH   1  25
HETATM   25  C1  UNL     1      24.197   7.935  50.690  1.00  0.00     0.173 C 
BRANCH  25  26
HETATM   26  O1  UNL     1      22.929   7.831  51.277  1.00  0.00    -0.400 OA
HETATM   27  H1  UNL     1      22.847   8.351  52.105  1.00  0.00     0.209 HD
ENDBRANCH  25  26
ENDBRANCH   1  25
BRANCH   5  28
HETATM   28  C7  UNL     1      22.517   4.901  48.161  1.00  0.00    -0.029 A 
HETATM   29  C8  UNL     1      22.713   3.536  47.914  1.00  0.00     0.012 A 
HETATM   30  C9  UNL     1      21.831   2.684  47.327  1.00  0.00     0.001 A 
HETATM   31  C10 UNL     1      20.627   3.168  46.925  1.00  0.00     0.000 A 
HETATM   32  C11 UNL     1      20.357   4.502  47.133  1.00  0.00     0.001 A 
HETATM   33  C12 UNL     1      21.265   5.349  47.730  1.00  0.00     0.012 A 
ENDBRANCH   5  28
TORSDOF 8
ENDMDL
