MODEL 1
REMARK VINA RESULT:      -7.4      0.000      0.000
REMARK  5 active torsions:
REMARK  status: ('A' for Active; 'I' for Inactive)
REMARK    1  A    between atoms: C2_2  and  S1_3 
REMARK    2  A    between atoms: S1_3  and  N1_5 
REMARK    3  A    between atoms: C9_15  and  O2_16 
REMARK    4  A    between atoms: O2_16  and  C10_17 
REMARK    5  A    between atoms: C10_17  and  C11_18 
ROOT
HETATM    1  N1  UNL     1      27.052   0.578  53.523  1.00  0.00    -0.225 NA
HETATM    2  C3  UNL     1      26.070   1.632  53.222  1.00  0.00     0.110 C 
HETATM    3  C4  UNL     1      24.948   0.934  52.497  1.00  0.00     0.056 C 
HETATM    4  C5  UNL     1      24.222   0.094  53.483  1.00  0.00    -0.025 A 
HETATM    5  C6  UNL     1      25.069  -0.334  54.442  1.00  0.00     0.006 A 
HETATM    6  S2  UNL     1      24.099  -1.342  55.590  1.00  0.00    -0.072 SA
HETATM    7  C7  UNL     1      22.517  -1.078  54.600  1.00  0.00     0.114 A 
HETATM    8  N2  UNL     1      21.221  -1.532  54.793  1.00  0.00    -0.234 NA
HETATM    9  C8  UNL     1      20.280  -1.188  53.924  1.00  0.00     0.237 A 
HETATM   10  N3  UNL     1      20.632  -0.418  52.900  1.00  0.00    -0.217 NA
HETATM   11  C9  UNL     1      21.855   0.024  52.698  1.00  0.00     0.179 A 
HETATM   12  C13 UNL     1      22.907  -0.264  53.526  1.00  0.00     0.060 A 
HETATM   13  C14 UNL     1      26.493  -0.116  54.651  1.00  0.00     0.152 C 
ENDROOT
BRANCH  11  14
HETATM   14  O2  UNL     1      22.070   0.820  51.584  1.00  0.00    -0.326 OA
BRANCH  14  15
HETATM   15  C10 UNL     1      21.222   1.857  51.188  1.00  0.00     0.255 C 
BRANCH  15  16
HETATM   16  C11 UNL     1      21.330   2.988  52.132  1.00  0.00     0.147 C 
HETATM   17  C12 UNL     1      22.582   3.747  52.272  1.00  0.00     0.093 C 
HETATM   18  O3  UNL     1      20.269   3.171  52.734  1.00  0.00    -0.296 OA
ENDBRANCH  15  16
ENDBRANCH  14  15
ENDBRANCH  11  14
BRANCH   1  19
HETATM   19  S1  UNL     1      28.610   1.258  53.858  1.00  0.00     0.116 S 
HETATM   20  O1  UNL     1      28.779   2.553  53.075  1.00  0.00    -0.236 OA
BRANCH  19  21
HETATM   21  C2  UNL     1      29.854   0.060  53.460  1.00  0.00     0.085 C 
HETATM   22  C1  UNL     1      29.624  -1.240  53.485  1.00  0.00     0.022 C 
ENDBRANCH  19  21
ENDBRANCH   1  19
TORSDOF 5
ENDMDL
MODEL 2
REMARK VINA RESULT:      -7.1      1.754      2.229
REMARK  5 active torsions:
REMARK  status: ('A' for Active; 'I' for Inactive)
REMARK    1  A    between atoms: C2_2  and  S1_3 
REMARK    2  A    between atoms: S1_3  and  N1_5 
REMARK    3  A    between atoms: C9_15  and  O2_16 
REMARK    4  A    between atoms: O2_16  and  C10_17 
REMARK    5  A    between atoms: C10_17  and  C11_18 
ROOT
HETATM    1  N1  UNL     1      27.003   0.301  53.612  1.00  0.00    -0.225 NA
HETATM    2  C3  UNL     1      26.510   1.639  53.247  1.00  0.00     0.110 C 
HETATM    3  C4  UNL     1      25.601   1.417  52.065  1.00  0.00     0.056 C 
HETATM    4  C5  UNL     1      24.371   0.748  52.555  1.00  0.00    -0.025 A 
HETATM    5  C6  UNL     1      24.658  -0.031  53.620  1.00  0.00     0.006 A 
HETATM    6  S2  UNL     1      23.105  -0.798  54.145  1.00  0.00    -0.072 SA
HETATM    7  C7  UNL     1      22.132   0.062  52.779  1.00  0.00     0.114 A 
HETATM    8  N2  UNL     1      20.789   0.024  52.439  1.00  0.00    -0.234 NA
HETATM    9  C8  UNL     1      20.363   0.743  51.409  1.00  0.00     0.237 A 
HETATM   10  N3  UNL     1      21.256   1.470  50.747  1.00  0.00    -0.217 NA
HETATM   11  C9  UNL     1      22.536   1.520  51.052  1.00  0.00     0.179 A 
HETATM   12  C13 UNL     1      23.090   0.823  52.092  1.00  0.00     0.060 A 
HETATM   13  C14 UNL     1      25.905  -0.300  54.320  1.00  0.00     0.152 C 
ENDROOT
BRANCH  11  14
HETATM   14  O2  UNL     1      23.348   2.325  50.269  1.00  0.00    -0.326 OA
BRANCH  14  15
HETATM   15  C10 UNL     1      23.146   3.694  50.082  1.00  0.00     0.255 C 
BRANCH  15  16
HETATM   16  C11 UNL     1      23.971   4.462  51.035  1.00  0.00     0.147 C 
HETATM   17  C12 UNL     1      23.456   4.836  52.362  1.00  0.00     0.093 C 
HETATM   18  O3  UNL     1      25.083   4.715  50.563  1.00  0.00    -0.296 OA
ENDBRANCH  15  16
ENDBRANCH  14  15
ENDBRANCH  11  14
BRANCH   1  19
HETATM   19  S1  UNL     1      28.441   0.409  54.572  1.00  0.00     0.116 S 
HETATM   20  O1  UNL     1      28.863   1.868  54.694  1.00  0.00    -0.236 OA
BRANCH  19  21
HETATM   21  C2  UNL     1      29.698  -0.599  53.834  1.00  0.00     0.085 C 
HETATM   22  C1  UNL     1      29.452  -1.803  53.350  1.00  0.00     0.022 C 
ENDBRANCH  19  21
ENDBRANCH   1  19
TORSDOF 5
ENDMDL
MODEL 3
REMARK VINA RESULT:      -7.1      3.370      5.273
REMARK  5 active torsions:
REMARK  status: ('A' for Active; 'I' for Inactive)
REMARK    1  A    between atoms: C2_2  and  S1_3 
REMARK    2  A    between atoms: S1_3  and  N1_5 
REMARK    3  A    between atoms: C9_15  and  O2_16 
REMARK    4  A    between atoms: O2_16  and  C10_17 
REMARK    5  A    between atoms: C10_17  and  C11_18 
ROOT
HETATM    1  N1  UNL     1      25.071   4.057  50.930  1.00  0.00    -0.225 NA
HETATM    2  C3  UNL     1      25.638   2.710  50.755  1.00  0.00     0.110 C 
HETATM    3  C4  UNL     1      25.590   2.079  52.124  1.00  0.00     0.056 C 
HETATM    4  C5  UNL     1      24.170   1.788  52.442  1.00  0.00    -0.025 A 
HETATM    5  C6  UNL     1      23.365   2.694  51.847  1.00  0.00     0.006 A 
HETATM    6  S2  UNL     1      21.665   2.258  52.289  1.00  0.00    -0.072 SA
HETATM    7  C7  UNL     1      22.232   0.782  53.315  1.00  0.00     0.114 A 
HETATM    8  N2  UNL     1      21.524  -0.157  54.049  1.00  0.00    -0.234 NA
HETATM    9  C8  UNL     1      22.188  -1.110  54.689  1.00  0.00     0.237 A 
HETATM   10  N3  UNL     1      23.513  -1.115  54.594  1.00  0.00    -0.217 NA
HETATM   11  C9  UNL     1      24.205  -0.233  53.903  1.00  0.00     0.179 A 
HETATM   12  C13 UNL     1      23.630   0.793  53.202  1.00  0.00     0.060 A 
HETATM   13  C14 UNL     1      23.652   3.839  50.995  1.00  0.00     0.152 C 
ENDROOT
BRANCH  11  14
HETATM   14  O2  UNL     1      25.584  -0.367  53.897  1.00  0.00    -0.326 OA
BRANCH  14  15
HETATM   15  C10 UNL     1      26.420   0.095  54.915  1.00  0.00     0.255 C 
BRANCH  15  16
HETATM   16  C11 UNL     1      27.822   0.115  54.450  1.00  0.00     0.147 C 
HETATM   17  C12 UNL     1      28.262  -0.717  53.320  1.00  0.00     0.093 C 
HETATM   18  O3  UNL     1      28.505   0.892  55.121  1.00  0.00    -0.296 OA
ENDBRANCH  15  16
ENDBRANCH  14  15
ENDBRANCH  11  14
BRANCH   1  19
HETATM   19  S1  UNL     1      25.531   5.099  49.625  1.00  0.00     0.116 S 
HETATM   20  O1  UNL     1      24.405   5.159  48.600  1.00  0.00    -0.236 OA
BRANCH  19  21
HETATM   21  C2  UNL     1      27.049   4.507  48.928  1.00  0.00     0.085 C 
HETATM   22  C1  UNL     1      28.000   5.317  48.500  1.00  0.00     0.022 C 
ENDBRANCH  19  21
ENDBRANCH   1  19
TORSDOF 5
ENDMDL
MODEL 4
REMARK VINA RESULT:      -7.1      2.281      3.705
REMARK  5 active torsions:
REMARK  status: ('A' for Active; 'I' for Inactive)
REMARK    1  A    between atoms: C2_2  and  S1_3 
REMARK    2  A    between atoms: S1_3  and  N1_5 
REMARK    3  A    between atoms: C9_15  and  O2_16 
REMARK    4  A    between atoms: O2_16  and  C10_17 
REMARK    5  A    between atoms: C10_17  and  C11_18 
ROOT
HETATM    1  N1  UNL     1      27.089   1.149  53.916  1.00  0.00    -0.225 NA
HETATM    2  C3  UNL     1      26.341  -0.005  53.390  1.00  0.00     0.110 C 
HETATM    3  C4  UNL     1      24.914   0.467  53.275  1.00  0.00     0.056 C 
HETATM    4  C5  UNL     1      24.843   1.431  52.149  1.00  0.00    -0.025 A 
HETATM    5  C6  UNL     1      26.015   2.090  52.027  1.00  0.00     0.006 A 
HETATM    6  S2  UNL     1      25.832   3.235  50.637  1.00  0.00    -0.072 SA
HETATM    7  C7  UNL     1      24.058   2.683  50.319  1.00  0.00     0.114 A 
HETATM    8  N2  UNL     1      23.124   3.080  49.376  1.00  0.00    -0.234 NA
HETATM    9  C8  UNL     1      21.924   2.515  49.377  1.00  0.00     0.237 A 
HETATM   10  N3  UNL     1      21.676   1.587  50.295  1.00  0.00    -0.217 NA
HETATM   11  C9  UNL     1      22.548   1.195  51.200  1.00  0.00     0.179 A 
HETATM   12  C13 UNL     1      23.815   1.705  51.295  1.00  0.00     0.060 A 
HETATM   13  C14 UNL     1      27.259   2.009  52.777  1.00  0.00     0.152 C 
ENDROOT
BRANCH  11  14
HETATM   14  O2  UNL     1      22.145   0.214  52.092  1.00  0.00    -0.326 OA
BRANCH  14  15
HETATM   15  C10 UNL     1      20.951   0.257  52.815  1.00  0.00     0.255 C 
BRANCH  15  16
HETATM   16  C11 UNL     1      21.166  -0.262  54.181  1.00  0.00     0.147 C 
HETATM   17  C12 UNL     1      21.886  -1.524  54.412  1.00  0.00     0.093 C 
HETATM   18  O3  UNL     1      20.677   0.490  55.028  1.00  0.00    -0.296 OA
ENDBRANCH  15  16
ENDBRANCH  14  15
ENDBRANCH  11  14
BRANCH   1  19
HETATM   19  S1  UNL     1      28.595   0.649  54.611  1.00  0.00     0.116 S 
HETATM   20  O1  UNL     1      29.369   1.874  55.082  1.00  0.00    -0.236 OA
BRANCH  19  21
HETATM   21  C2  UNL     1      29.492  -0.299  53.412  1.00  0.00     0.085 C 
HETATM   22  C1  UNL     1      29.550  -1.617  53.446  1.00  0.00     0.022 C 
ENDBRANCH  19  21
ENDBRANCH   1  19
TORSDOF 5
ENDMDL
MODEL 5
REMARK VINA RESULT:      -6.6      1.895      2.278
REMARK  5 active torsions:
REMARK  status: ('A' for Active; 'I' for Inactive)
REMARK    1  A    between atoms: C2_2  and  S1_3 
REMARK    2  A    between atoms: S1_3  and  N1_5 
REMARK    3  A    between atoms: C9_15  and  O2_16 
REMARK    4  A    between atoms: O2_16  and  C10_17 
REMARK    5  A    between atoms: C10_17  and  C11_18 
ROOT
HETATM    1  N1  UNL     1      25.752   0.526  52.845  1.00  0.00    -0.225 NA
HETATM    2  C3  UNL     1      24.938   1.704  52.503  1.00  0.00     0.110 C 
HETATM    3  C4  UNL     1      23.805   1.173  51.662  1.00  0.00     0.056 C 
HETATM    4  C5  UNL     1      22.897   0.406  52.551  1.00  0.00    -0.025 A 
HETATM    5  C6  UNL     1      23.598  -0.152  53.561  1.00  0.00     0.006 A 
HETATM    6  S2  UNL     1      22.413  -1.058  54.586  1.00  0.00    -0.072 SA
HETATM    7  C7  UNL     1      20.969  -0.569  53.478  1.00  0.00     0.114 A 
HETATM    8  N2  UNL     1      19.615  -0.860  53.546  1.00  0.00    -0.234 NA
HETATM    9  C8  UNL     1      18.804  -0.376  52.615  1.00  0.00     0.237 A 
HETATM   10  N3  UNL     1      19.336   0.370  51.653  1.00  0.00    -0.217 NA
HETATM   11  C9  UNL     1      20.618   0.658  51.569  1.00  0.00     0.179 A 
HETATM   12  C13 UNL     1      21.549   0.217  52.471  1.00  0.00     0.060 A 
HETATM   13  C14 UNL     1      25.014  -0.121  53.896  1.00  0.00     0.152 C 
ENDROOT
BRANCH  11  14
HETATM   14  O2  UNL     1      21.027   1.450  50.508  1.00  0.00    -0.326 OA
BRANCH  14  15
HETATM   15  C10 UNL     1      20.596   1.276  49.192  1.00  0.00     0.255 C 
BRANCH  15  16
HETATM   16  C11 UNL     1      21.239   2.274  48.313  1.00  0.00     0.147 C 
HETATM   17  C12 UNL     1      22.675   2.575  48.423  1.00  0.00     0.093 C 
HETATM   18  O3  UNL     1      20.425   2.772  47.531  1.00  0.00    -0.296 OA
ENDBRANCH  15  16
ENDBRANCH  14  15
ENDBRANCH  11  14
BRANCH   1  19
HETATM   19  S1  UNL     1      27.347   0.993  53.334  1.00  0.00     0.116 S 
HETATM   20  O1  UNL     1      27.855   2.100  52.420  1.00  0.00    -0.236 OA
BRANCH  19  21
HETATM   21  C2  UNL     1      28.394  -0.437  53.311  1.00  0.00     0.085 C 
HETATM   22  C1  UNL     1      29.662  -0.396  53.676  1.00  0.00     0.022 C 
ENDBRANCH  19  21
ENDBRANCH   1  19
TORSDOF 5
ENDMDL
MODEL 6
REMARK VINA RESULT:      -6.6      2.845      6.592
REMARK  5 active torsions:
REMARK  status: ('A' for Active; 'I' for Inactive)
REMARK    1  A    between atoms: C2_2  and  S1_3 
REMARK    2  A    between atoms: S1_3  and  N1_5 
REMARK    3  A    between atoms: C9_15  and  O2_16 
REMARK    4  A    between atoms: O2_16  and  C10_17 
REMARK    5  A    between atoms: C10_17  and  C11_18 
ROOT
HETATM    1  N1  UNL     1      19.784   0.318  52.638  1.00  0.00    -0.225 NA
HETATM    2  C3  UNL     1      20.703   0.163  51.500  1.00  0.00     0.110 C 
HETATM    3  C4  UNL     1      21.933   0.952  51.873  1.00  0.00     0.056 C 
HETATM    4  C5  UNL     1      22.636   0.215  52.953  1.00  0.00    -0.025 A 
HETATM    5  C6  UNL     1      21.747  -0.464  53.708  1.00  0.00     0.006 A 
HETATM    6  S2  UNL     1      22.693  -1.325  54.987  1.00  0.00    -0.072 SA
HETATM    7  C7  UNL     1      24.327  -0.642  54.344  1.00  0.00     0.114 A 
HETATM    8  N2  UNL     1      25.633  -0.814  54.776  1.00  0.00    -0.234 NA
HETATM    9  C8  UNL     1      26.614  -0.204  54.126  1.00  0.00     0.237 A 
HETATM   10  N3  UNL     1      26.291   0.552  53.082  1.00  0.00    -0.217 NA
HETATM   11  C9  UNL     1      25.059   0.730  52.655  1.00  0.00     0.179 A 
HETATM   12  C13 UNL     1      23.967   0.151  53.244  1.00  0.00     0.060 A 
HETATM   13  C14 UNL     1      20.298  -0.581  53.634  1.00  0.00     0.152 C 
ENDROOT
BRANCH  11  14
HETATM   14  O2  UNL     1      24.877   1.548  51.551  1.00  0.00    -0.326 OA
BRANCH  14  15
HETATM   15  C10 UNL     1      24.979   2.940  51.583  1.00  0.00     0.255 C 
BRANCH  15  16
HETATM   16  C11 UNL     1      25.973   3.399  50.592  1.00  0.00     0.147 C 
HETATM   17  C12 UNL     1      25.577   4.230  49.444  1.00  0.00     0.093 C 
HETATM   18  O3  UNL     1      27.104   2.996  50.873  1.00  0.00    -0.296 OA
ENDBRANCH  15  16
ENDBRANCH  14  15
ENDBRANCH  11  14
BRANCH   1  19
HETATM   19  S1  UNL     1      18.155  -0.051  52.177  1.00  0.00     0.116 S 
HETATM   20  O1  UNL     1      17.800  -1.457  52.643  1.00  0.00    -0.236 OA
BRANCH  19  21
HETATM   21  C2  UNL     1      18.001   0.139  50.421  1.00  0.00     0.085 C 
HETATM   22  C1  UNL     1      16.896  -0.168  49.767  1.00  0.00     0.022 C 
ENDBRANCH  19  21
ENDBRANCH   1  19
TORSDOF 5
ENDMDL
MODEL 7
REMARK VINA RESULT:      -6.5      3.004      4.619
REMARK  5 active torsions:
REMARK  status: ('A' for Active; 'I' for Inactive)
REMARK    1  A    between atoms: C2_2  and  S1_3 
REMARK    2  A    between atoms: S1_3  and  N1_5 
REMARK    3  A    between atoms: C9_15  and  O2_16 
REMARK    4  A    between atoms: O2_16  and  C10_17 
REMARK    5  A    between atoms: C10_17  and  C11_18 
ROOT
HETATM    1  N1  UNL     1      26.342   1.259  53.355  1.00  0.00    -0.225 NA
HETATM    2  C3  UNL     1      24.933   0.939  53.073  1.00  0.00     0.110 C 
HETATM    3  C4  UNL     1      24.239   2.273  52.960  1.00  0.00     0.056 C 
HETATM    4  C5  UNL     1      24.681   2.910  51.694  1.00  0.00    -0.025 A 
HETATM    5  C6  UNL     1      25.942   2.531  51.398  1.00  0.00     0.006 A 
HETATM    6  S2  UNL     1      26.388   3.353  49.848  1.00  0.00    -0.072 SA
HETATM    7  C7  UNL     1      24.709   4.200  49.727  1.00  0.00     0.114 A 
HETATM    8  N2  UNL     1      24.179   5.066  48.785  1.00  0.00    -0.234 NA
HETATM    9  C8  UNL     1      22.944   5.521  48.948  1.00  0.00     0.237 A 
HETATM   10  N3  UNL     1      22.271   5.119  50.020  1.00  0.00    -0.217 NA
HETATM   11  C9  UNL     1      22.754   4.297  50.928  1.00  0.00     0.179 A 
HETATM   12  C13 UNL     1      24.014   3.763  50.865  1.00  0.00     0.060 A 
HETATM   13  C14 UNL     1      26.879   1.651  52.080  1.00  0.00     0.152 C 
ENDROOT
BRANCH  11  14
HETATM   14  O2  UNL     1      21.932   3.967  51.993  1.00  0.00    -0.326 OA
BRANCH  14  15
HETATM   15  C10 UNL     1      20.669   3.389  51.856  1.00  0.00     0.255 C 
BRANCH  15  16
HETATM   16  C11 UNL     1      20.753   1.930  52.074  1.00  0.00     0.147 C 
HETATM   17  C12 UNL     1      21.158   1.020  50.991  1.00  0.00     0.093 C 
HETATM   18  O3  UNL     1      20.450   1.632  53.231  1.00  0.00    -0.296 OA
ENDBRANCH  15  16
ENDBRANCH  14  15
ENDBRANCH  11  14
BRANCH   1  19
HETATM   19  S1  UNL     1      27.164  -0.105  54.038  1.00  0.00     0.116 S 
HETATM   20  O1  UNL     1      26.516  -0.477  55.366  1.00  0.00    -0.236 OA
BRANCH  19  21
HETATM   21  C2  UNL     1      28.883   0.292  54.213  1.00  0.00     0.085 C 
HETATM   22  C1  UNL     1      29.837  -0.407  53.625  1.00  0.00     0.022 C 
ENDBRANCH  19  21
ENDBRANCH   1  19
TORSDOF 5
ENDMDL
MODEL 8
REMARK VINA RESULT:      -6.4      3.304      6.159
REMARK  5 active torsions:
REMARK  status: ('A' for Active; 'I' for Inactive)
REMARK    1  A    between atoms: C2_2  and  S1_3 
REMARK    2  A    between atoms: S1_3  and  N1_5 
REMARK    3  A    between atoms: C9_15  and  O2_16 
REMARK    4  A    between atoms: O2_16  and  C10_17 
REMARK    5  A    between atoms: C10_17  and  C11_18 
ROOT
HETATM    1  N1  UNL     1      22.745   4.378  50.875  1.00  0.00    -0.225 NA
HETATM    2  C3  UNL     1      22.665   4.006  52.297  1.00  0.00     0.110 C 
HETATM    3  C4  UNL     1      22.821   2.507  52.324  1.00  0.00     0.056 C 
HETATM    4  C5  UNL     1      24.232   2.190  51.992  1.00  0.00    -0.025 A 
HETATM    5  C6  UNL     1      24.735   3.126  51.159  1.00  0.00     0.006 A 
HETATM    6  S2  UNL     1      26.448   2.657  50.814  1.00  0.00    -0.072 SA
HETATM    7  C7  UNL     1      26.327   1.124  51.904  1.00  0.00     0.114 A 
HETATM    8  N2  UNL     1      27.250   0.139  52.216  1.00  0.00    -0.234 NA
HETATM    9  C8  UNL     1      26.892  -0.848  53.027  1.00  0.00     0.237 A 
HETATM   10  N3  UNL     1      25.651  -0.842  53.503  1.00  0.00    -0.217 NA
HETATM   11  C9  UNL     1      24.759   0.084  53.220  1.00  0.00     0.179 A 
HETATM   12  C13 UNL     1      25.013   1.149  52.397  1.00  0.00     0.060 A 
HETATM   13  C14 UNL     1      24.149   4.322  50.572  1.00  0.00     0.152 C 
ENDROOT
BRANCH  11  14
HETATM   14  O2  UNL     1      23.504  -0.043  53.794  1.00  0.00    -0.326 OA
BRANCH  14  15
HETATM   15  C10 UNL     1      22.607  -1.070  53.494  1.00  0.00     0.255 C 
BRANCH  15  16
HETATM   16  C11 UNL     1      21.383  -0.927  54.309  1.00  0.00     0.147 C 
HETATM   17  C12 UNL     1      20.665   0.354  54.388  1.00  0.00     0.093 C 
HETATM   18  O3  UNL     1      21.091  -1.988  54.867  1.00  0.00    -0.296 OA
ENDBRANCH  15  16
ENDBRANCH  14  15
ENDBRANCH  11  14
BRANCH   1  19
HETATM   19  S1  UNL     1      22.062   5.946  50.603  1.00  0.00     0.116 S 
HETATM   20  O1  UNL     1      20.793   5.812  49.771  1.00  0.00    -0.236 OA
BRANCH  19  21
HETATM   21  C2  UNL     1      23.277   6.972  49.821  1.00  0.00     0.085 C 
HETATM   22  C1  UNL     1      23.623   8.155  50.296  1.00  0.00     0.022 C 
ENDBRANCH  19  21
ENDBRANCH   1  19
TORSDOF 5
ENDMDL
MODEL 9
REMARK VINA RESULT:      -6.4      3.079      6.091
REMARK  5 active torsions:
REMARK  status: ('A' for Active; 'I' for Inactive)
REMARK    1  A    between atoms: C2_2  and  S1_3 
REMARK    2  A    between atoms: S1_3  and  N1_5 
REMARK    3  A    between atoms: C9_15  and  O2_16 
REMARK    4  A    between atoms: O2_16  and  C10_17 
REMARK    5  A    between atoms: C10_17  and  C11_18 
ROOT
HETATM    1  N1  UNL     1      22.542   3.284  50.917  1.00  0.00    -0.225 NA
HETATM    2  C3  UNL     1      23.584   2.295  50.597  1.00  0.00     0.110 C 
HETATM    3  C4  UNL     1      24.264   1.997  51.908  1.00  0.00     0.056 C 
HETATM    4  C5  UNL     1      23.322   1.208  52.741  1.00  0.00    -0.025 A 
HETATM    5  C6  UNL     1      22.048   1.550  52.453  1.00  0.00     0.006 A 
HETATM    6  S2  UNL     1      20.980   0.541  53.510  1.00  0.00    -0.072 SA
HETATM    7  C7  UNL     1      22.456  -0.316  54.309  1.00  0.00     0.114 A 
HETATM    8  N2  UNL     1      22.536  -1.294  55.288  1.00  0.00    -0.234 NA
HETATM    9  C8  UNL     1      23.729  -1.728  55.672  1.00  0.00     0.237 A 
HETATM   10  N3  UNL     1      24.799  -1.195  55.093  1.00  0.00    -0.217 NA
HETATM   11  C9  UNL     1      24.747  -0.266  54.162  1.00  0.00     0.179 A 
HETATM   12  C13 UNL     1      23.575   0.257  53.685  1.00  0.00     0.060 A 
HETATM   13  C14 UNL     1      21.488   2.509  51.512  1.00  0.00     0.152 C 
ENDROOT
BRANCH  11  14
HETATM   14  O2  UNL     1      25.950   0.193  53.650  1.00  0.00    -0.326 OA
BRANCH  14  15
HETATM   15  C10 UNL     1      27.045  -0.627  53.372  1.00  0.00     0.255 C 
BRANCH  15  16
HETATM   16  C11 UNL     1      28.229  -0.161  54.123  1.00  0.00     0.147 C 
HETATM   17  C12 UNL     1      29.573  -0.683  53.827  1.00  0.00     0.093 C 
HETATM   18  O3  UNL     1      27.920   0.676  54.973  1.00  0.00    -0.296 OA
ENDBRANCH  15  16
ENDBRANCH  14  15
ENDBRANCH  11  14
BRANCH   1  19
HETATM   19  S1  UNL     1      22.031   4.132  49.495  1.00  0.00     0.116 S 
HETATM   20  O1  UNL     1      20.911   5.100  49.855  1.00  0.00    -0.236 OA
BRANCH  19  21
HETATM   21  C2  UNL     1      21.537   2.950  48.271  1.00  0.00     0.085 C 
HETATM   22  C1  UNL     1      22.084   2.897  47.071  1.00  0.00     0.022 C 
ENDBRANCH  19  21
ENDBRANCH   1  19
TORSDOF 5
ENDMDL
