MODEL 1
REMARK VINA RESULT:      -8.0      0.000      0.000
REMARK  2 active torsions:
REMARK  status: ('A' for Active; 'I' for Inactive)
REMARK    1  A    between atoms: N1_2  and  C2_3 
REMARK    2  A    between atoms: C11_15  and  O2_16 
ROOT
HETATM    1  C2  UNL     1      25.810   3.461  50.248  1.00  0.00     0.284 C 
HETATM    2  C3  UNL     1      26.775   2.725  51.202  1.00  0.00     0.216 C 
HETATM    3  O1  UNL     1      26.409   1.487  51.644  1.00  0.00    -0.346 OA
HETATM    4  C4  UNL     1      25.480   0.887  52.372  1.00  0.00     0.103 A 
HETATM    5  C5  UNL     1      24.198   0.797  52.710  1.00  0.00     0.057 A 
HETATM    6  C6  UNL     1      23.042   0.437  53.273  1.00  0.00     0.041 A 
HETATM    7  C7  UNL     1      21.696   0.860  53.195  1.00  0.00     0.137 A 
HETATM    8  N2  UNL     1      20.895   0.191  53.998  1.00  0.00    -0.224 NA
HETATM    9  C8  UNL     1      21.384  -0.806  54.810  1.00  0.00     0.235 A 
HETATM   10  N3  UNL     1      22.683  -1.236  54.909  1.00  0.00    -0.241 NA
HETATM   11  C9  UNL     1      23.572  -0.576  54.093  1.00  0.00     0.075 A 
HETATM   12  C10 UNL     1      24.949  -0.870  54.085  1.00  0.00     0.072 A 
HETATM   13  C11 UNL     1      25.836  -0.157  53.256  1.00  0.00     0.103 A 
HETATM   14  N4  UNL     1      21.748   1.941  52.290  1.00  0.00    -0.372 N 
HETATM   15  C13 UNL     1      21.806   3.051  51.377  1.00  0.00     0.146 C 
HETATM   16  C14 UNL     1      23.328   3.398  51.407  1.00  0.00     0.130 A 
HETATM   17  C15 UNL     1      24.477   3.412  50.834  1.00  0.00     0.028 A 
HETATM   18 CL1  UNL     1      23.494   2.778  49.451  1.00  0.00    -0.176 Cl
HETATM   19  H14 UNL     1      21.231   1.230  51.665  1.00  0.00     0.161 HD
ENDROOT
BRANCH   1  20
HETATM   20  N1  UNL     1      26.281   4.759  49.961  1.00  0.00     0.090 N 
HETATM   21  C1  UNL     1      27.251   4.828  48.917  1.00  0.00     0.307 C 
HETATM   22  H4  UNL     1      26.661   5.223  50.840  1.00  0.00     0.316 HD
ENDBRANCH   1  20
BRANCH  13  23
HETATM   23  O2  UNL     1      27.198  -0.541  53.340  1.00  0.00    -0.353 OA
HETATM   24  C12 UNL     1      28.072  -0.088  54.325  1.00  0.00     0.210 C 
ENDBRANCH  13  23
TORSDOF 2
ENDMDL
MODEL 2
REMARK VINA RESULT:      -7.9      2.504      4.443
REMARK  2 active torsions:
REMARK  status: ('A' for Active; 'I' for Inactive)
REMARK    1  A    between atoms: N1_2  and  C2_3 
REMARK    2  A    between atoms: C11_15  and  O2_16 
ROOT
HETATM    1  C2  UNL     1      22.231   2.611  50.132  1.00  0.00     0.284 C 
HETATM    2  C3  UNL     1      21.947   1.226  50.753  1.00  0.00     0.216 C 
HETATM    3  O1  UNL     1      22.541   0.932  51.946  1.00  0.00    -0.346 OA
HETATM    4  C4  UNL     1      23.738   0.755  52.483  1.00  0.00     0.103 A 
HETATM    5  C5  UNL     1      25.008   1.141  52.558  1.00  0.00     0.057 A 
HETATM    6  C6  UNL     1      26.300   1.245  52.877  1.00  0.00     0.041 A 
HETATM    7  C7  UNL     1      27.383   2.064  52.484  1.00  0.00     0.137 A 
HETATM    8  N2  UNL     1      28.514   1.749  53.080  1.00  0.00    -0.224 NA
HETATM    9  C8  UNL     1      28.569   0.713  53.983  1.00  0.00     0.235 A 
HETATM   10  N3  UNL     1      27.537  -0.100  54.381  1.00  0.00    -0.241 NA
HETATM   11  C9  UNL     1      26.325   0.179  53.793  1.00  0.00     0.075 A 
HETATM   12  C10 UNL     1      25.165  -0.571  54.066  1.00  0.00     0.072 A 
HETATM   13  C11 UNL     1      23.946  -0.276  53.427  1.00  0.00     0.103 A 
HETATM   14  N4  UNL     1      26.816   2.901  51.499  1.00  0.00    -0.372 N 
HETATM   15  C13 UNL     1      26.239   3.743  50.486  1.00  0.00     0.146 C 
HETATM   16  C14 UNL     1      24.951   2.944  50.114  1.00  0.00     0.130 A 
HETATM   17  C15 UNL     1      23.673   2.818  50.141  1.00  0.00     0.028 A 
HETATM   18 CL1  UNL     1      23.801   4.446  50.926  1.00  0.00    -0.176 Cl
HETATM   19  H14 UNL     1      26.953   3.634  52.277  1.00  0.00     0.161 HD
ENDROOT
BRANCH   1  20
HETATM   20  N1  UNL     1      21.626   2.724  48.862  1.00  0.00     0.090 N 
HETATM   21  C1  UNL     1      22.266   1.984  47.824  1.00  0.00     0.307 C 
HETATM   22  H4  UNL     1      21.540   3.745  48.578  1.00  0.00     0.316 HD
ENDBRANCH   1  20
BRANCH  13  23
HETATM   23  O2  UNL     1      22.851  -1.105  53.780  1.00  0.00    -0.353 OA
HETATM   24  C12 UNL     1      22.055  -0.902  54.904  1.00  0.00     0.210 C 
ENDBRANCH  13  23
TORSDOF 2
ENDMDL
MODEL 3
REMARK VINA RESULT:      -7.5      2.415      4.958
REMARK  2 active torsions:
REMARK  status: ('A' for Active; 'I' for Inactive)
REMARK    1  A    between atoms: N1_2  and  C2_3 
REMARK    2  A    between atoms: C11_15  and  O2_16 
ROOT
HETATM    1  C2  UNL     1      26.628  -0.356  54.058  1.00  0.00     0.284 C 
HETATM    2  C3  UNL     1      25.332  -0.532  54.879  1.00  0.00     0.216 C 
HETATM    3  O1  UNL     1      24.144  -0.472  54.211  1.00  0.00    -0.346 OA
HETATM    4  C4  UNL     1      23.400   0.369  53.508  1.00  0.00     0.103 A 
HETATM    5  C5  UNL     1      23.347   1.336  52.598  1.00  0.00     0.057 A 
HETATM    6  C6  UNL     1      22.927   2.285  51.758  1.00  0.00     0.041 A 
HETATM    7  C7  UNL     1      23.536   3.189  50.858  1.00  0.00     0.137 A 
HETATM    8  N2  UNL     1      22.672   3.980  50.256  1.00  0.00    -0.224 NA
HETATM    9  C8  UNL     1      21.326   3.887  50.524  1.00  0.00     0.235 A 
HETATM   10  N3  UNL     1      20.709   3.023  51.393  1.00  0.00    -0.241 NA
HETATM   11  C9  UNL     1      21.558   2.167  52.054  1.00  0.00     0.075 A 
HETATM   12  C10 UNL     1      21.098   1.231  53.001  1.00  0.00     0.072 A 
HETATM   13  C11 UNL     1      21.998   0.387  53.680  1.00  0.00     0.103 A 
HETATM   14  N4  UNL     1      24.913   2.927  51.016  1.00  0.00    -0.372 N 
HETATM   15  C13 UNL     1      26.317   2.666  51.188  1.00  0.00     0.146 C 
HETATM   16  C14 UNL     1      26.328   1.916  52.557  1.00  0.00     0.130 A 
HETATM   17  C15 UNL     1      26.475   0.832  53.230  1.00  0.00     0.028 A 
HETATM   18 CL1  UNL     1      26.915   0.194  51.593  1.00  0.00    -0.176 Cl
HETATM   19  H14 UNL     1      24.782   2.521  50.026  1.00  0.00     0.161 HD
ENDROOT
BRANCH   1  20
HETATM   20  N1  UNL     1      27.759  -0.347  54.902  1.00  0.00     0.090 N 
HETATM   21  C1  UNL     1      29.005  -0.160  54.233  1.00  0.00     0.307 C 
HETATM   22  H4  UNL     1      27.793  -1.231  55.493  1.00  0.00     0.316 HD
ENDBRANCH   1  20
BRANCH  13  23
HETATM   23  O2  UNL     1      21.415  -0.507  54.613  1.00  0.00    -0.353 OA
HETATM   24  C12 UNL     1      20.787  -1.698  54.257  1.00  0.00     0.210 C 
ENDBRANCH  13  23
TORSDOF 2
ENDMDL
MODEL 4
REMARK VINA RESULT:      -7.3      2.297      4.256
REMARK  2 active torsions:
REMARK  status: ('A' for Active; 'I' for Inactive)
REMARK    1  A    between atoms: N1_2  and  C2_3 
REMARK    2  A    between atoms: C11_15  and  O2_16 
ROOT
HETATM    1  C2  UNL     1      25.669   3.212  51.640  1.00  0.00     0.284 C 
HETATM    2  C3  UNL     1      24.358   3.545  50.895  1.00  0.00     0.216 C 
HETATM    3  O1  UNL     1      23.183   3.343  51.556  1.00  0.00    -0.346 OA
HETATM    4  C4  UNL     1      22.452   2.373  52.085  1.00  0.00     0.103 A 
HETATM    5  C5  UNL     1      22.418   1.240  52.779  1.00  0.00     0.057 A 
HETATM    6  C6  UNL     1      22.015   0.137  53.415  1.00  0.00     0.041 A 
HETATM    7  C7  UNL     1      22.640  -0.928  54.101  1.00  0.00     0.137 A 
HETATM    8  N2  UNL     1      21.789  -1.830  54.543  1.00  0.00    -0.224 NA
HETATM    9  C8  UNL     1      20.439  -1.692  54.323  1.00  0.00     0.235 A 
HETATM   10  N3  UNL     1      19.804  -0.672  53.659  1.00  0.00    -0.241 NA
HETATM   11  C9  UNL     1      20.640   0.306  53.172  1.00  0.00     0.075 A 
HETATM   12  C10 UNL     1      20.161   1.412  52.444  1.00  0.00     0.072 A 
HETATM   13  C11 UNL     1      21.047   2.382  51.937  1.00  0.00     0.103 A 
HETATM   14  N4  UNL     1      24.015  -0.632  53.977  1.00  0.00    -0.372 N 
HETATM   15  C13 UNL     1      25.415  -0.334  53.838  1.00  0.00     0.146 C 
HETATM   16  C14 UNL     1      25.400   0.680  52.651  1.00  0.00     0.130 A 
HETATM   17  C15 UNL     1      25.533   1.879  52.210  1.00  0.00     0.028 A 
HETATM   18 CL1  UNL     1      26.000   2.172  53.936  1.00  0.00    -0.176 Cl
HETATM   19  H14 UNL     1      23.900  -0.437  55.031  1.00  0.00     0.161 HD
ENDROOT
BRANCH   1  20
HETATM   20  N1  UNL     1      26.785   3.382  50.793  1.00  0.00     0.090 N 
HETATM   21  C1  UNL     1      26.469   3.739  49.449  1.00  0.00     0.307 C 
HETATM   22  H4  UNL     1      27.398   2.513  50.803  1.00  0.00     0.316 HD
ENDBRANCH   1  20
BRANCH  13  23
HETATM   23  O2  UNL     1      20.447   3.445  51.216  1.00  0.00    -0.353 OA
HETATM   24  C12 UNL     1      19.112   3.815  51.349  1.00  0.00     0.210 C 
ENDBRANCH  13  23
TORSDOF 2
ENDMDL
MODEL 5
REMARK VINA RESULT:      -7.0      1.953      2.506
REMARK  2 active torsions:
REMARK  status: ('A' for Active; 'I' for Inactive)
REMARK    1  A    between atoms: N1_2  and  C2_3 
REMARK    2  A    between atoms: C11_15  and  O2_16 
ROOT
HETATM    1  C2  UNL     1      22.706   3.051  49.296  1.00  0.00     0.284 C 
HETATM    2  C3  UNL     1      24.025   3.432  50.003  1.00  0.00     0.216 C 
HETATM    3  O1  UNL     1      24.699   2.447  50.662  1.00  0.00    -0.346 OA
HETATM    4  C4  UNL     1      24.569   1.621  51.690  1.00  0.00     0.103 A 
HETATM    5  C5  UNL     1      23.782   0.813  52.393  1.00  0.00     0.057 A 
HETATM    6  C6  UNL     1      23.304  -0.039  53.303  1.00  0.00     0.041 A 
HETATM    7  C7  UNL     1      22.055  -0.644  53.573  1.00  0.00     0.137 A 
HETATM    8  N2  UNL     1      22.074  -1.413  54.642  1.00  0.00    -0.224 NA
HETATM    9  C8  UNL     1      23.225  -1.567  55.379  1.00  0.00     0.235 A 
HETATM   10  N3  UNL     1      24.447  -0.991  55.143  1.00  0.00    -0.241 NA
HETATM   11  C9  UNL     1      24.495  -0.174  54.037  1.00  0.00     0.075 A 
HETATM   12  C10 UNL     1      25.663   0.518  53.662  1.00  0.00     0.072 A 
HETATM   13  C11 UNL     1      25.670   1.368  52.539  1.00  0.00     0.103 A 
HETATM   14  N4  UNL     1      21.211  -0.103  52.581  1.00  0.00    -0.372 N 
HETATM   15  C13 UNL     1      20.349   0.460  51.576  1.00  0.00     0.146 C 
HETATM   16  C14 UNL     1      21.171   1.707  51.125  1.00  0.00     0.130 A 
HETATM   17  C15 UNL     1      21.888   2.309  50.246  1.00  0.00     0.028 A 
HETATM   18 CL1  UNL     1      21.463   0.833  49.284  1.00  0.00    -0.176 Cl
HETATM   19  H14 UNL     1      21.266  -1.115  52.214  1.00  0.00     0.161 HD
ENDROOT
BRANCH   1  20
HETATM   20  N1  UNL     1      22.084   4.192  48.746  1.00  0.00     0.090 N 
HETATM   21  C1  UNL     1      22.955   5.061  48.023  1.00  0.00     0.307 C 
HETATM   22  H4  UNL     1      21.570   4.738  49.499  1.00  0.00     0.316 HD
ENDBRANCH   1  20
BRANCH  13  23
HETATM   23  O2  UNL     1      26.902   2.013  52.265  1.00  0.00    -0.353 OA
HETATM   24  C12 UNL     1      27.951   2.101  53.176  1.00  0.00     0.210 C 
ENDBRANCH  13  23
TORSDOF 2
ENDMDL
MODEL 6
REMARK VINA RESULT:      -6.9      2.782      4.407
REMARK  2 active torsions:
REMARK  status: ('A' for Active; 'I' for Inactive)
REMARK    1  A    between atoms: N1_2  and  C2_3 
REMARK    2  A    between atoms: C11_15  and  O2_16 
ROOT
HETATM    1  C2  UNL     1      22.513   4.620  49.726  1.00  0.00     0.284 C 
HETATM    2  C3  UNL     1      21.500   3.615  50.317  1.00  0.00     0.216 C 
HETATM    3  O1  UNL     1      21.838   2.982  51.476  1.00  0.00    -0.346 OA
HETATM    4  C4  UNL     1      22.729   2.131  51.963  1.00  0.00     0.103 A 
HETATM    5  C5  UNL     1      23.993   1.723  52.001  1.00  0.00     0.057 A 
HETATM    6  C6  UNL     1      25.119   1.060  52.274  1.00  0.00     0.041 A 
HETATM    7  C7  UNL     1      26.470   1.135  51.864  1.00  0.00     0.137 A 
HETATM    8  N2  UNL     1      27.228   0.207  52.408  1.00  0.00    -0.224 NA
HETATM    9  C8  UNL     1      26.696  -0.717  53.277  1.00  0.00     0.235 A 
HETATM   10  N3  UNL     1      25.392  -0.817  53.690  1.00  0.00    -0.241 NA
HETATM   11  C9  UNL     1      24.546   0.128  53.156  1.00  0.00     0.075 A 
HETATM   12  C10 UNL     1      23.169   0.158  53.451  1.00  0.00     0.072 A 
HETATM   13  C11 UNL     1      22.326   1.123  52.867  1.00  0.00     0.103 A 
HETATM   14  N4  UNL     1      26.466   2.190  50.926  1.00  0.00    -0.372 N 
HETATM   15  C13 UNL     1      26.457   3.256  49.961  1.00  0.00     0.146 C 
HETATM   16  C14 UNL     1      24.938   3.349  49.616  1.00  0.00     0.130 A 
HETATM   17  C15 UNL     1      23.816   3.971  49.687  1.00  0.00     0.028 A 
HETATM   18 CL1  UNL     1      24.859   5.199  50.515  1.00  0.00    -0.176 Cl
HETATM   19  H14 UNL     1      27.008   2.679  51.720  1.00  0.00     0.161 HD
ENDROOT
BRANCH   1  20
HETATM   20  N1  UNL     1      22.062   5.115  48.484  1.00  0.00     0.090 N 
HETATM   21  C1  UNL     1      22.198   6.525  48.315  1.00  0.00     0.307 C 
HETATM   22  H4  UNL     1      21.055   4.824  48.308  1.00  0.00     0.316 HD
ENDBRANCH   1  20
BRANCH  13  23
HETATM   23  O2  UNL     1      20.959   1.048  53.236  1.00  0.00    -0.353 OA
HETATM   24  C12 UNL     1      20.215  -0.129  53.222  1.00  0.00     0.210 C 
ENDBRANCH  13  23
TORSDOF 2
ENDMDL
MODEL 7
REMARK VINA RESULT:      -6.5      3.119      5.228
REMARK  2 active torsions:
REMARK  status: ('A' for Active; 'I' for Inactive)
REMARK    1  A    between atoms: N1_2  and  C2_3 
REMARK    2  A    between atoms: C11_15  and  O2_16 
ROOT
HETATM    1  C2  UNL     1      18.567   1.978  50.318  1.00  0.00     0.284 C 
HETATM    2  C3  UNL     1      19.885   2.782  50.323  1.00  0.00     0.216 C 
HETATM    3  O1  UNL     1      21.044   2.099  50.550  1.00  0.00    -0.346 OA
HETATM    4  C4  UNL     1      21.655   1.390  51.487  1.00  0.00     0.103 A 
HETATM    5  C5  UNL     1      21.561   0.483  52.454  1.00  0.00     0.057 A 
HETATM    6  C6  UNL     1      21.833  -0.359  53.454  1.00  0.00     0.041 A 
HETATM    7  C7  UNL     1      21.093  -1.247  54.267  1.00  0.00     0.137 A 
HETATM    8  N2  UNL     1      21.829  -1.856  55.172  1.00  0.00    -0.224 NA
HETATM    9  C8  UNL     1      23.179  -1.606  55.266  1.00  0.00     0.235 A 
HETATM   10  N3  UNL     1      23.922  -0.749  54.495  1.00  0.00    -0.241 NA
HETATM   11  C9  UNL     1      23.209  -0.080  53.527  1.00  0.00     0.075 A 
HETATM   12  C10 UNL     1      23.808   0.857  52.663  1.00  0.00     0.072 A 
HETATM   13  C11 UNL     1      23.043   1.544  51.701  1.00  0.00     0.103 A 
HETATM   14  N4  UNL     1      19.767  -1.073  53.815  1.00  0.00    -0.372 N 
HETATM   15  C13 UNL     1      18.416  -0.884  53.361  1.00  0.00     0.146 C 
HETATM   16  C14 UNL     1      18.528   0.482  52.613  1.00  0.00     0.130 A 
HETATM   17  C15 UNL     1      18.542   1.153  51.519  1.00  0.00     0.028 A 
HETATM   18 CL1  UNL     1      18.174  -0.481  50.828  1.00  0.00    -0.176 Cl
HETATM   19  H14 UNL     1      19.941  -2.066  53.433  1.00  0.00     0.161 HD
ENDROOT
BRANCH   1  20
HETATM   20  N1  UNL     1      17.457   2.836  50.168  1.00  0.00     0.090 N 
HETATM   21  C1  UNL     1      17.211   3.699  51.278  1.00  0.00     0.307 C 
HETATM   22  H4  UNL     1      16.581   2.279  49.940  1.00  0.00     0.316 HD
ENDBRANCH   1  20
BRANCH  13  23
HETATM   23  O2  UNL     1      23.757   2.466  50.894  1.00  0.00    -0.353 OA
HETATM   24  C12 UNL     1      25.101   2.777  51.075  1.00  0.00     0.210 C 
ENDBRANCH  13  23
TORSDOF 2
ENDMDL
MODEL 8
REMARK VINA RESULT:      -6.2      2.906      4.760
REMARK  2 active torsions:
REMARK  status: ('A' for Active; 'I' for Inactive)
REMARK    1  A    between atoms: N1_2  and  C2_3 
REMARK    2  A    between atoms: C11_15  and  O2_16 
ROOT
HETATM    1  C2  UNL     1      21.708   5.359  50.034  1.00  0.00     0.284 C 
HETATM    2  C3  UNL     1      20.935   4.101  50.485  1.00  0.00     0.216 C 
HETATM    3  O1  UNL     1      21.432   3.395  51.541  1.00  0.00    -0.346 OA
HETATM    4  C4  UNL     1      22.490   2.681  51.895  1.00  0.00     0.103 A 
HETATM    5  C5  UNL     1      23.810   2.533  51.865  1.00  0.00     0.057 A 
HETATM    6  C6  UNL     1      25.054   2.077  52.032  1.00  0.00     0.041 A 
HETATM    7  C7  UNL     1      26.348   2.477  51.627  1.00  0.00     0.137 A 
HETATM    8  N2  UNL     1      27.293   1.654  52.028  1.00  0.00    -0.224 NA
HETATM    9  C8  UNL     1      26.985   0.532  52.762  1.00  0.00     0.235 A 
HETATM   10  N3  UNL     1      25.742   0.117  53.167  1.00  0.00    -0.241 NA
HETATM   11  C9  UNL     1      24.708   0.938  52.779  1.00  0.00     0.075 A 
HETATM   12  C10 UNL     1      23.363   0.651  53.086  1.00  0.00     0.072 A 
HETATM   13  C11 UNL     1      22.326   1.498  52.651  1.00  0.00     0.103 A 
HETATM   14  N4  UNL     1      26.103   3.628  50.848  1.00  0.00    -0.372 N 
HETATM   15  C13 UNL     1      25.849   4.793  50.043  1.00  0.00     0.146 C 
HETATM   16  C14 UNL     1      24.330   4.626  49.726  1.00  0.00     0.130 A 
HETATM   17  C15 UNL     1      23.111   4.995  49.894  1.00  0.00     0.028 A 
HETATM   18 CL1  UNL     1      23.921   6.282  50.879  1.00  0.00    -0.176 Cl
HETATM   19  H14 UNL     1      26.565   4.102  51.698  1.00  0.00     0.161 HD
ENDROOT
BRANCH   1  20
HETATM   20  N1  UNL     1      21.124   5.919  48.878  1.00  0.00     0.090 N 
HETATM   21  C1  UNL     1      22.012   6.075  47.773  1.00  0.00     0.307 C 
HETATM   22  H4  UNL     1      20.661   6.849  49.106  1.00  0.00     0.316 HD
ENDBRANCH   1  20
BRANCH  13  23
HETATM   23  O2  UNL     1      21.015   1.102  53.017  1.00  0.00    -0.353 OA
HETATM   24  C12 UNL     1      20.218   0.256  52.249  1.00  0.00     0.210 C 
ENDBRANCH  13  23
TORSDOF 2
ENDMDL
MODEL 9
REMARK VINA RESULT:      -6.2      7.469     10.792
REMARK  2 active torsions:
REMARK  status: ('A' for Active; 'I' for Inactive)
REMARK    1  A    between atoms: N1_2  and  C2_3 
REMARK    2  A    between atoms: C11_15  and  O2_16 
ROOT
HETATM    1  C2  UNL     1      33.426   5.340  47.868  1.00  0.00     0.284 C 
HETATM    2  C3  UNL     1      32.207   4.712  48.578  1.00  0.00     0.216 C 
HETATM    3  O1  UNL     1      30.967   5.021  48.103  1.00  0.00    -0.346 OA
HETATM    4  C4  UNL     1      30.150   6.053  47.951  1.00  0.00     0.103 A 
HETATM    5  C5  UNL     1      30.003   7.336  47.637  1.00  0.00     0.057 A 
HETATM    6  C6  UNL     1      29.496   8.548  47.398  1.00  0.00     0.041 A 
HETATM    7  C7  UNL     1      30.009   9.810  47.020  1.00  0.00     0.137 A 
HETATM    8  N2  UNL     1      29.084  10.742  46.940  1.00  0.00    -0.224 NA
HETATM    9  C8  UNL     1      27.767  10.453  47.213  1.00  0.00     0.235 A 
HETATM   10  N3  UNL     1      27.241   9.241  47.584  1.00  0.00    -0.241 NA
HETATM   11  C9  UNL     1      28.159   8.222  47.685  1.00  0.00     0.075 A 
HETATM   12  C10 UNL     1      27.798   6.919  48.080  1.00  0.00     0.072 A 
HETATM   13  C11 UNL     1      28.767   5.905  48.200  1.00  0.00     0.103 A 
HETATM   14  N4  UNL     1      31.400   9.584  46.940  1.00  0.00    -0.372 N 
HETATM   15  C13 UNL     1      32.818   9.354  46.873  1.00  0.00     0.146 C 
HETATM   16  C14 UNL     1      32.958   8.034  47.695  1.00  0.00     0.130 A 
HETATM   17  C15 UNL     1      33.182   6.770  47.740  1.00  0.00     0.028 A 
HETATM   18 CL1  UNL     1      33.495   7.036  45.976  1.00  0.00    -0.176 Cl
HETATM   19  H14 UNL     1      31.194   9.704  45.889  1.00  0.00     0.161 HD
ENDROOT
BRANCH   1  20
HETATM   20  N1  UNL     1      34.624   5.002  48.534  1.00  0.00     0.090 N 
HETATM   21  C1  UNL     1      35.439   6.113  48.902  1.00  0.00     0.307 C 
HETATM   22  H4  UNL     1      35.190   4.311  47.958  1.00  0.00     0.316 HD
ENDBRANCH   1  20
BRANCH  13  23
HETATM   23  O2  UNL     1      28.283   4.638  48.609  1.00  0.00    -0.353 OA
HETATM   24  C12 UNL     1      26.975   4.405  49.027  1.00  0.00     0.210 C 
ENDBRANCH  13  23
TORSDOF 2
ENDMDL
