MODEL 1
REMARK VINA RESULT:      -8.2      0.000      0.000
REMARK  5 active torsions:
REMARK  status: ('A' for Active; 'I' for Inactive)
REMARK    1  A    between atoms: C4_5  and  O2_6 
REMARK    2  A    between atoms: C7_10  and  N2_11 
REMARK    3  A    between atoms: N3_21  and  C16_22 
REMARK    4  A    between atoms: C16_22  and  C17_23 
REMARK    5  A    between atoms: C17_23  and  N4_24 
ROOT
HETATM    1  C1  UNL     1      24.698   3.197  49.398  1.00  0.00     0.034 C 
HETATM    2  C2  UNL     1      25.094   2.924  50.823  1.00  0.00     0.099 C 
HETATM    3  C3  UNL     1      26.634   2.954  50.839  1.00  0.00     0.195 C 
HETATM    4  O1  UNL     1      27.218   2.489  51.793  1.00  0.00    -0.354 OA
HETATM    5  C4  UNL     1      27.844   1.998  52.794  1.00  0.00     0.305 C 
HETATM    6  C5  UNL     1      26.951   0.922  53.399  1.00  0.00     0.065 C 
HETATM    7  N1  UNL     1      26.619  -0.317  53.432  1.00  0.00    -0.287 NA
HETATM    8  C6  UNL     1      25.254  -0.717  53.080  1.00  0.00     0.206 C 
HETATM    9  C7  UNL     1      24.418   0.513  53.085  1.00  0.00     0.035 C 
HETATM   10  C13 UNL     1      24.789   1.738  53.445  1.00  0.00    -0.033 C 
HETATM   11  C14 UNL     1      25.987   1.596  54.348  1.00  0.00     0.097 C 
HETATM   12  C15 UNL     1      24.296   3.069  53.138  1.00  0.00     0.154 C 
HETATM   13  N3  UNL     1      24.335   3.486  51.757  1.00  0.00    -0.401 N 
ENDROOT
BRANCH  13  14
HETATM   14  C16 UNL     1      23.971   4.849  51.745  1.00  0.00     0.137 C 
BRANCH  14  15
HETATM   15  C17 UNL     1      22.635   5.326  52.112  1.00  0.00     0.136 C 
BRANCH  15  16
HETATM   16  N4  UNL     1      21.672   4.622  51.269  1.00  0.00    -0.407 N 
HETATM   17  C18 UNL     1      20.665   3.907  51.903  1.00  0.00     0.143 C 
HETATM   18  C19 UNL     1      19.417   3.867  51.036  1.00  0.00     0.187 C 
HETATM   19  O3  UNL     1      19.265   5.091  50.367  1.00  0.00    -0.388 OA
HETATM   20  C20 UNL     1      20.263   5.276  49.428  1.00  0.00     0.187 C 
HETATM   21  C21 UNL     1      21.650   4.942  49.917  1.00  0.00     0.143 C 
ENDBRANCH  15  16
ENDBRANCH  14  15
ENDBRANCH  13  14
BRANCH   9  22
HETATM   22  N2  UNL     1      23.033   0.418  52.656  1.00  0.00    -0.354 N 
HETATM   23  C8  UNL     1      22.692   0.757  51.297  1.00  0.00     0.110 A 
HETATM   24  C9  UNL     1      21.502   0.709  50.727  1.00  0.00     0.026 A 
HETATM   25 BR1  UNL     1      21.171   1.176  48.930  1.00  0.00    -0.050 Br
HETATM   26  C10 UNL     1      20.395   0.283  51.568  1.00  0.00     0.018 A 
HETATM   27  C11 UNL     1      20.699  -0.009  52.816  1.00  0.00    -0.005 A 
HETATM   28  C12 UNL     1      21.971   0.009  53.556  1.00  0.00     0.155 A 
ENDBRANCH   9  22
BRANCH   5  29
HETATM   29  O2  UNL     1      28.067   2.937  53.870  1.00  0.00    -0.366 OA
HETATM   30  H8  UNL     1      29.020   2.992  54.043  1.00  0.00     0.213 HD
ENDBRANCH   5  29
TORSDOF 5
ENDMDL
MODEL 2
REMARK VINA RESULT:      -8.1      1.629      2.078
REMARK  5 active torsions:
REMARK  status: ('A' for Active; 'I' for Inactive)
REMARK    1  A    between atoms: C4_5  and  O2_6 
REMARK    2  A    between atoms: C7_10  and  N2_11 
REMARK    3  A    between atoms: N3_21  and  C16_22 
REMARK    4  A    between atoms: C16_22  and  C17_23 
REMARK    5  A    between atoms: C17_23  and  N4_24 
ROOT
HETATM    1  C1  UNL     1      24.691   3.333  49.414  1.00  0.00     0.034 C 
HETATM    2  C2  UNL     1      25.091   3.031  50.832  1.00  0.00     0.099 C 
HETATM    3  C3  UNL     1      26.631   3.015  50.835  1.00  0.00     0.195 C 
HETATM    4  O1  UNL     1      27.209   2.521  51.778  1.00  0.00    -0.354 OA
HETATM    5  C4  UNL     1      27.828   2.000  52.768  1.00  0.00     0.305 C 
HETATM    6  C5  UNL     1      26.909   0.943  53.368  1.00  0.00     0.065 C 
HETATM    7  N1  UNL     1      26.539  -0.286  53.389  1.00  0.00    -0.287 NA
HETATM    8  C6  UNL     1      25.160  -0.640  53.044  1.00  0.00     0.206 C 
HETATM    9  C7  UNL     1      24.362   0.614  53.070  1.00  0.00     0.035 C 
HETATM   10  C13 UNL     1      24.773   1.823  53.442  1.00  0.00    -0.033 C 
HETATM   11  C14 UNL     1      25.972   1.634  54.333  1.00  0.00     0.097 C 
HETATM   12  C15 UNL     1      24.317   3.172  53.155  1.00  0.00     0.154 C 
HETATM   13  N3  UNL     1      24.357   3.604  51.779  1.00  0.00    -0.401 N 
ENDROOT
BRANCH  13  14
HETATM   14  C16 UNL     1      24.034   4.978  51.787  1.00  0.00     0.137 C 
BRANCH  14  15
HETATM   15  C17 UNL     1      22.686   5.487  51.521  1.00  0.00     0.136 C 
BRANCH  15  16
HETATM   16  N4  UNL     1      22.810   6.561  50.539  1.00  0.00    -0.407 N 
HETATM   17  C18 UNL     1      23.633   7.632  50.858  1.00  0.00     0.143 C 
HETATM   18  C19 UNL     1      24.231   8.236  49.598  1.00  0.00     0.187 C 
HETATM   19  O3  UNL     1      24.519   7.219  48.675  1.00  0.00    -0.388 OA
HETATM   20  C20 UNL     1      23.361   6.635  48.195  1.00  0.00     0.187 C 
HETATM   21  C21 UNL     1      22.338   6.314  49.255  1.00  0.00     0.143 C 
ENDBRANCH  15  16
ENDBRANCH  14  15
ENDBRANCH  13  14
BRANCH   9  22
HETATM   22  N2  UNL     1      22.971   0.566  52.653  1.00  0.00    -0.354 N 
HETATM   23  C8  UNL     1      22.640   0.837  51.275  1.00  0.00     0.110 A 
HETATM   24  C9  UNL     1      21.446   0.816  50.713  1.00  0.00     0.026 A 
HETATM   25 BR1  UNL     1      21.129   1.186  48.892  1.00  0.00    -0.050 Br
HETATM   26  C10 UNL     1      20.323   0.502  51.582  1.00  0.00     0.018 A 
HETATM   27  C11 UNL     1      20.619   0.274  52.845  1.00  0.00    -0.005 A 
HETATM   28  C12 UNL     1      21.894   0.271  53.579  1.00  0.00     0.155 A 
ENDBRANCH   9  22
BRANCH   5  29
HETATM   29  O2  UNL     1      28.088   2.919  53.853  1.00  0.00    -0.366 OA
HETATM   30  H8  UNL     1      29.038   3.115  53.874  1.00  0.00     0.213 HD
ENDBRANCH   5  29
TORSDOF 5
ENDMDL
MODEL 3
REMARK VINA RESULT:      -7.7      2.721      5.565
REMARK  5 active torsions:
REMARK  status: ('A' for Active; 'I' for Inactive)
REMARK    1  A    between atoms: C4_5  and  O2_6 
REMARK    2  A    between atoms: C7_10  and  N2_11 
REMARK    3  A    between atoms: N3_21  and  C16_22 
REMARK    4  A    between atoms: C16_22  and  C17_23 
REMARK    5  A    between atoms: C17_23  and  N4_24 
ROOT
HETATM    1  C1  UNL     1      23.387   5.031  52.748  1.00  0.00     0.034 C 
HETATM    2  C2  UNL     1      22.752   3.777  52.211  1.00  0.00     0.099 C 
HETATM    3  C3  UNL     1      21.234   4.032  52.245  1.00  0.00     0.195 C 
HETATM    4  O1  UNL     1      20.480   3.090  52.136  1.00  0.00    -0.354 OA
HETATM    5  C4  UNL     1      19.677   2.102  52.022  1.00  0.00     0.305 C 
HETATM    6  C5  UNL     1      20.402   0.870  52.549  1.00  0.00     0.065 C 
HETATM    7  N1  UNL     1      20.658   0.109  53.550  1.00  0.00    -0.287 NA
HETATM    8  C6  UNL     1      22.038  -0.044  54.017  1.00  0.00     0.206 C 
HETATM    9  C7  UNL     1      22.927   0.490  52.951  1.00  0.00     0.035 C 
HETATM   10  C13 UNL     1      22.569   0.928  51.747  1.00  0.00    -0.033 C 
HETATM   11  C14 UNL     1      21.236   0.304  51.423  1.00  0.00     0.097 C 
HETATM   12  C15 UNL     1      23.175   1.829  50.783  1.00  0.00     0.154 C 
HETATM   13  N3  UNL     1      23.381   3.196  51.196  1.00  0.00    -0.401 N 
ENDROOT
BRANCH  13  14
HETATM   14  C16 UNL     1      23.814   3.893  50.048  1.00  0.00     0.137 C 
BRANCH  14  15
HETATM   15  C17 UNL     1      25.039   3.555  49.319  1.00  0.00     0.136 C 
BRANCH  15  16
HETATM   16  N4  UNL     1      25.954   4.686  49.452  1.00  0.00    -0.407 N 
HETATM   17  C18 UNL     1      27.218   4.561  48.891  1.00  0.00     0.143 C 
HETATM   18  C19 UNL     1      27.744   5.920  48.459  1.00  0.00     0.187 C 
HETATM   19  O3  UNL     1      26.690   6.699  47.956  1.00  0.00    -0.388 OA
HETATM   20  C20 UNL     1      25.797   7.038  48.956  1.00  0.00     0.187 C 
HETATM   21  C21 UNL     1      25.418   5.899  49.868  1.00  0.00     0.143 C 
ENDBRANCH  15  16
ENDBRANCH  14  15
ENDBRANCH  13  14
BRANCH   9  22
HETATM   22  N2  UNL     1      24.356   0.563  53.204  1.00  0.00    -0.354 N 
HETATM   23  C8  UNL     1      25.183  -0.580  52.908  1.00  0.00     0.110 A 
HETATM   24  C9  UNL     1      26.491  -0.689  53.049  1.00  0.00     0.026 A 
HETATM   25 BR1  UNL     1      27.474  -2.240  52.624  1.00  0.00    -0.050 Br
HETATM   26  C10 UNL     1      27.186   0.471  53.584  1.00  0.00     0.018 A 
HETATM   27  C11 UNL     1      26.431   1.511  53.875  1.00  0.00    -0.005 A 
HETATM   28  C12 UNL     1      24.983   1.745  53.765  1.00  0.00     0.155 A 
ENDBRANCH   9  22
BRANCH   5  29
HETATM   29  O2  UNL     1      19.335   1.771  50.658  1.00  0.00    -0.366 OA
HETATM   30  H8  UNL     1      18.434   2.086  50.477  1.00  0.00     0.213 HD
ENDBRANCH   5  29
TORSDOF 5
ENDMDL
MODEL 4
REMARK VINA RESULT:      -7.3     10.476     12.503
REMARK  5 active torsions:
REMARK  status: ('A' for Active; 'I' for Inactive)
REMARK    1  A    between atoms: C4_5  and  O2_6 
REMARK    2  A    between atoms: C7_10  and  N2_11 
REMARK    3  A    between atoms: N3_21  and  C16_22 
REMARK    4  A    between atoms: C16_22  and  C17_23 
REMARK    5  A    between atoms: C17_23  and  N4_24 
ROOT
HETATM    1  C1  UNL     1      35.018   8.034  48.502  1.00  0.00     0.034 C 
HETATM    2  C2  UNL     1      34.349   6.779  48.012  1.00  0.00     0.099 C 
HETATM    3  C3  UNL     1      35.094   5.617  48.695  1.00  0.00     0.195 C 
HETATM    4  O1  UNL     1      34.949   4.495  48.263  1.00  0.00    -0.354 OA
HETATM    5  C4  UNL     1      34.802   3.307  47.814  1.00  0.00     0.305 C 
HETATM    6  C5  UNL     1      34.469   3.424  46.332  1.00  0.00     0.065 C 
HETATM    7  N1  UNL     1      34.901   3.464  45.124  1.00  0.00    -0.287 NA
HETATM    8  C6  UNL     1      34.666   4.654  44.302  1.00  0.00     0.206 C 
HETATM    9  C7  UNL     1      33.627   5.466  44.989  1.00  0.00     0.035 C 
HETATM   10  C13 UNL     1      32.944   5.143  46.083  1.00  0.00    -0.033 C 
HETATM   11  C14 UNL     1      32.979   3.642  46.206  1.00  0.00     0.097 C 
HETATM   12  C15 UNL     1      32.245   5.914  47.097  1.00  0.00     0.154 C 
HETATM   13  N3  UNL     1      33.029   6.835  47.883  1.00  0.00    -0.401 N 
ENDROOT
BRANCH  13  14
HETATM   14  C16 UNL     1      32.170   7.324  48.890  1.00  0.00     0.137 C 
BRANCH  14  15
HETATM   15  C17 UNL     1      30.715   7.400  48.737  1.00  0.00     0.136 C 
BRANCH  15  16
HETATM   16  N4  UNL     1      30.383   8.779  48.389  1.00  0.00    -0.407 N 
HETATM   17  C18 UNL     1      30.417   9.725  49.405  1.00  0.00     0.143 C 
HETATM   18  C19 UNL     1      30.777  11.092  48.847  1.00  0.00     0.187 C 
HETATM   19  O3  UNL     1      31.721  10.950  47.818  1.00  0.00    -0.388 OA
HETATM   20  C20 UNL     1      31.171  10.323  46.716  1.00  0.00     0.187 C 
HETATM   21  C21 UNL     1      30.339   9.108  47.040  1.00  0.00     0.143 C 
ENDBRANCH  15  16
ENDBRANCH  14  15
ENDBRANCH  13  14
BRANCH   9  22
HETATM   22  N2  UNL     1      33.283   6.767  44.441  1.00  0.00    -0.354 N 
HETATM   23  C8  UNL     1      34.286   7.802  44.401  1.00  0.00     0.110 A 
HETATM   24  C9  UNL     1      34.165   9.026  43.922  1.00  0.00     0.026 A 
HETATM   25 BR1  UNL     1      35.553  10.302  43.919  1.00  0.00    -0.050 Br
HETATM   26  C10 UNL     1      32.863   9.389  43.387  1.00  0.00     0.018 A 
HETATM   27  C11 UNL     1      31.937   8.453  43.440  1.00  0.00    -0.005 A 
HETATM   28  C12 UNL     1      31.954   7.072  43.946  1.00  0.00     0.155 A 
ENDBRANCH   9  22
BRANCH   5  29
HETATM   29  O2  UNL     1      33.684   2.591  48.385  1.00  0.00    -0.366 OA
HETATM   30  H8  UNL     1      33.065   3.235  48.766  1.00  0.00     0.213 HD
ENDBRANCH   5  29
TORSDOF 5
ENDMDL
MODEL 5
REMARK VINA RESULT:      -7.2      2.817      4.857
REMARK  5 active torsions:
REMARK  status: ('A' for Active; 'I' for Inactive)
REMARK    1  A    between atoms: C4_5  and  O2_6 
REMARK    2  A    between atoms: C7_10  and  N2_11 
REMARK    3  A    between atoms: N3_21  and  C16_22 
REMARK    4  A    between atoms: C16_22  and  C17_23 
REMARK    5  A    between atoms: C17_23  and  N4_24 
ROOT
HETATM    1  C1  UNL     1      23.389   5.001  52.359  1.00  0.00     0.034 C 
HETATM    2  C2  UNL     1      22.709   3.711  51.991  1.00  0.00     0.099 C 
HETATM    3  C3  UNL     1      21.199   3.995  52.088  1.00  0.00     0.195 C 
HETATM    4  O1  UNL     1      20.428   3.061  52.120  1.00  0.00    -0.354 OA
HETATM    5  C4  UNL     1      19.607   2.081  52.156  1.00  0.00     0.305 C 
HETATM    6  C5  UNL     1      20.348   0.896  52.763  1.00  0.00     0.065 C 
HETATM    7  N1  UNL     1      20.655   0.236  53.820  1.00  0.00    -0.287 NA
HETATM    8  C6  UNL     1      22.059   0.106  54.218  1.00  0.00     0.206 C 
HETATM    9  C7  UNL     1      22.888   0.513  53.053  1.00  0.00     0.035 C 
HETATM   10  C13 UNL     1      22.463   0.832  51.834  1.00  0.00    -0.033 C 
HETATM   11  C14 UNL     1      21.106   0.203  51.654  1.00  0.00     0.097 C 
HETATM   12  C15 UNL     1      23.021   1.619  50.748  1.00  0.00     0.154 C 
HETATM   13  N3  UNL     1      23.268   3.017  51.006  1.00  0.00    -0.401 N 
ENDROOT
BRANCH  13  14
HETATM   14  C16 UNL     1      23.640   3.587  49.769  1.00  0.00     0.137 C 
BRANCH  14  15
HETATM   15  C17 UNL     1      22.869   3.403  48.537  1.00  0.00     0.136 C 
BRANCH  15  16
HETATM   16  N4  UNL     1      22.173   4.658  48.265  1.00  0.00    -0.407 N 
HETATM   17  C18 UNL     1      20.798   4.605  48.084  1.00  0.00     0.143 C 
HETATM   18  C19 UNL     1      20.153   5.907  48.531  1.00  0.00     0.187 C 
HETATM   19  O3  UNL     1      20.818   6.401  49.664  1.00  0.00    -0.388 OA
HETATM   20  C20 UNL     1      22.103   6.806  49.352  1.00  0.00     0.187 C 
HETATM   21  C21 UNL     1      22.871   5.839  48.487  1.00  0.00     0.143 C 
ENDBRANCH  15  16
ENDBRANCH  14  15
ENDBRANCH  13  14
BRANCH   9  22
HETATM   22  N2  UNL     1      24.330   0.585  53.213  1.00  0.00    -0.354 N 
HETATM   23  C8  UNL     1      25.130  -0.581  52.929  1.00  0.00     0.110 A 
HETATM   24  C9  UNL     1      26.443  -0.695  52.995  1.00  0.00     0.026 A 
HETATM   25 BR1  UNL     1      27.388  -2.277  52.596  1.00  0.00    -0.050 Br
HETATM   26  C10 UNL     1      27.178   0.485  53.421  1.00  0.00     0.018 A 
HETATM   27  C11 UNL     1      26.450   1.547  53.700  1.00  0.00    -0.005 A 
HETATM   28  C12 UNL     1      24.999   1.790  53.667  1.00  0.00     0.155 A 
ENDBRANCH   9  22
BRANCH   5  29
HETATM   29  O2  UNL     1      19.179   1.619  50.855  1.00  0.00    -0.366 OA
HETATM   30  H8  UNL     1      18.271   1.923  50.700  1.00  0.00     0.213 HD
ENDBRANCH   5  29
TORSDOF 5
ENDMDL
MODEL 6
REMARK VINA RESULT:      -7.2      3.032      5.912
REMARK  5 active torsions:
REMARK  status: ('A' for Active; 'I' for Inactive)
REMARK    1  A    between atoms: C4_5  and  O2_6 
REMARK    2  A    between atoms: C7_10  and  N2_11 
REMARK    3  A    between atoms: N3_21  and  C16_22 
REMARK    4  A    between atoms: C16_22  and  C17_23 
REMARK    5  A    between atoms: C17_23  and  N4_24 
ROOT
HETATM    1  C1  UNL     1      22.191   5.930  51.216  1.00  0.00     0.034 C 
HETATM    2  C2  UNL     1      22.003   4.624  50.494  1.00  0.00     0.099 C 
HETATM    3  C3  UNL     1      20.573   4.665  49.926  1.00  0.00     0.195 C 
HETATM    4  O1  UNL     1      20.064   3.633  49.546  1.00  0.00    -0.354 OA
HETATM    5  C4  UNL     1      19.518   2.549  49.143  1.00  0.00     0.305 C 
HETATM    6  C5  UNL     1      20.148   1.408  49.932  1.00  0.00     0.065 C 
HETATM    7  N1  UNL     1      20.100   0.650  50.966  1.00  0.00    -0.287 NA
HETATM    8  C6  UNL     1      21.195   0.670  51.939  1.00  0.00     0.206 C 
HETATM    9  C7  UNL     1      22.343   1.364  51.298  1.00  0.00     0.035 C 
HETATM   10  C13 UNL     1      22.424   1.797  50.043  1.00  0.00    -0.033 C 
HETATM   11  C14 UNL     1      21.428   1.010  49.233  1.00  0.00     0.097 C 
HETATM   12  C15 UNL     1      23.223   2.812  49.379  1.00  0.00     0.154 C 
HETATM   13  N3  UNL     1      23.054   4.176  49.816  1.00  0.00    -0.401 N 
ENDROOT
BRANCH  13  14
HETATM   14  C16 UNL     1      23.796   4.973  48.919  1.00  0.00     0.137 C 
BRANCH  14  15
HETATM   15  C17 UNL     1      25.233   5.222  49.066  1.00  0.00     0.136 C 
BRANCH  15  16
HETATM   16  N4  UNL     1      25.426   6.670  49.082  1.00  0.00    -0.407 N 
HETATM   17  C18 UNL     1      25.682   7.271  50.307  1.00  0.00     0.143 C 
HETATM   18  C19 UNL     1      26.539   8.513  50.121  1.00  0.00     0.187 C 
HETATM   19  O3  UNL     1      27.473   8.295  49.096  1.00  0.00    -0.388 OA
HETATM   20  C20 UNL     1      26.850   8.185  47.866  1.00  0.00     0.187 C 
HETATM   21  C21 UNL     1      25.627   7.304  47.862  1.00  0.00     0.143 C 
ENDBRANCH  15  16
ENDBRANCH  14  15
ENDBRANCH  13  14
BRANCH   9  22
HETATM   22  N2  UNL     1      23.533   1.624  52.090  1.00  0.00    -0.354 N 
HETATM   23  C8  UNL     1      24.601   0.654  52.094  1.00  0.00     0.110 A 
HETATM   24  C9  UNL     1      25.757   0.728  52.728  1.00  0.00     0.026 A 
HETATM   25 BR1  UNL     1      27.088  -0.605  52.658  1.00  0.00    -0.050 Br
HETATM   26  C10 UNL     1      25.980   1.916  53.536  1.00  0.00     0.018 A 
HETATM   27  C11 UNL     1      24.998   2.795  53.551  1.00  0.00    -0.005 A 
HETATM   28  C12 UNL     1      23.681   2.820  52.896  1.00  0.00     0.155 A 
ENDBRANCH   9  22
BRANCH   5  29
HETATM   29  O2  UNL     1      19.787   2.230  47.759  1.00  0.00    -0.366 OA
HETATM   30  H8  UNL     1      19.666   3.032  47.226  1.00  0.00     0.213 HD
ENDBRANCH   5  29
TORSDOF 5
ENDMDL
MODEL 7
REMARK VINA RESULT:      -7.0      2.498      6.192
REMARK  5 active torsions:
REMARK  status: ('A' for Active; 'I' for Inactive)
REMARK    1  A    between atoms: C4_5  and  O2_6 
REMARK    2  A    between atoms: C7_10  and  N2_11 
REMARK    3  A    between atoms: N3_21  and  C16_22 
REMARK    4  A    between atoms: C16_22  and  C17_23 
REMARK    5  A    between atoms: C17_23  and  N4_24 
ROOT
HETATM    1  C1  UNL     1      22.628   4.749  53.029  1.00  0.00     0.034 C 
HETATM    2  C2  UNL     1      23.556   4.957  51.863  1.00  0.00     0.099 C 
HETATM    3  C3  UNL     1      24.137   6.372  52.042  1.00  0.00     0.195 C 
HETATM    4  O1  UNL     1      24.688   6.901  51.102  1.00  0.00    -0.354 OA
HETATM    5  C4  UNL     1      25.271   7.468  50.115  1.00  0.00     0.305 C 
HETATM    6  C5  UNL     1      24.666   6.890  48.842  1.00  0.00     0.065 C 
HETATM    7  N1  UNL     1      23.769   6.985  47.929  1.00  0.00    -0.287 NA
HETATM    8  C6  UNL     1      22.785   5.913  47.756  1.00  0.00     0.206 C 
HETATM    9  C7  UNL     1      23.284   4.731  48.508  1.00  0.00     0.035 C 
HETATM   10  C13 UNL     1      24.450   4.607  49.134  1.00  0.00    -0.033 C 
HETATM   11  C14 UNL     1      25.396   5.606  48.520  1.00  0.00     0.097 C 
HETATM   12  C15 UNL     1      24.926   3.764  50.216  1.00  0.00     0.154 C 
HETATM   13  N3  UNL     1      24.277   3.904  51.497  1.00  0.00    -0.401 N 
ENDROOT
BRANCH  13  14
HETATM   14  C16 UNL     1      25.019   3.118  52.404  1.00  0.00     0.137 C 
BRANCH  14  15
HETATM   15  C17 UNL     1      24.978   1.653  52.416  1.00  0.00     0.136 C 
BRANCH  15  16
HETATM   16  N4  UNL     1      26.324   1.181  52.730  1.00  0.00    -0.407 N 
HETATM   17  C18 UNL     1      27.381   2.053  52.507  1.00  0.00     0.143 C 
HETATM   18  C19 UNL     1      28.513   1.778  53.483  1.00  0.00     0.187 C 
HETATM   19  O3  UNL     1      27.984   1.423  54.734  1.00  0.00    -0.388 OA
HETATM   20  C20 UNL     1      27.345   0.199  54.678  1.00  0.00     0.187 C 
HETATM   21  C21 UNL     1      26.437   0.021  53.488  1.00  0.00     0.143 C 
ENDBRANCH  15  16
ENDBRANCH  14  15
ENDBRANCH  13  14
BRANCH   9  22
HETATM   22  N2  UNL     1      22.438   3.553  48.597  1.00  0.00    -0.354 N 
HETATM   23  C8  UNL     1      21.262   3.592  49.432  1.00  0.00     0.110 A 
HETATM   24  C9  UNL     1      20.371   2.636  49.617  1.00  0.00     0.026 A 
HETATM   25 BR1  UNL     1      18.862   2.799  50.736  1.00  0.00    -0.050 Br
HETATM   26  C10 UNL     1      20.604   1.385  48.914  1.00  0.00     0.018 A 
HETATM   27  C11 UNL     1      21.688   1.338  48.166  1.00  0.00    -0.005 A 
HETATM   28  C12 UNL     1      22.743   2.325  47.887  1.00  0.00     0.155 A 
ENDBRANCH   9  22
BRANCH   5  29
HETATM   29  O2  UNL     1      26.683   7.175  50.015  1.00  0.00    -0.366 OA
HETATM   30  H8  UNL     1      26.935   7.176  49.077  1.00  0.00     0.213 HD
ENDBRANCH   5  29
TORSDOF 5
ENDMDL
MODEL 8
REMARK VINA RESULT:      -6.8      2.886      5.170
REMARK  5 active torsions:
REMARK  status: ('A' for Active; 'I' for Inactive)
REMARK    1  A    between atoms: C4_5  and  O2_6 
REMARK    2  A    between atoms: C7_10  and  N2_11 
REMARK    3  A    between atoms: N3_21  and  C16_22 
REMARK    4  A    between atoms: C16_22  and  C17_23 
REMARK    5  A    between atoms: C17_23  and  N4_24 
ROOT
HETATM    1  C1  UNL     1      21.025   5.697  50.679  1.00  0.00     0.034 C 
HETATM    2  C2  UNL     1      21.521   4.282  50.800  1.00  0.00     0.099 C 
HETATM    3  C3  UNL     1      20.632   3.619  51.868  1.00  0.00     0.195 C 
HETATM    4  O1  UNL     1      20.993   2.574  52.363  1.00  0.00    -0.354 OA
HETATM    5  C4  UNL     1      21.366   1.471  52.892  1.00  0.00     0.305 C 
HETATM    6  C5  UNL     1      22.887   1.432  52.827  1.00  0.00     0.065 C 
HETATM    7  N1  UNL     1      24.003   1.694  53.404  1.00  0.00    -0.287 NA
HETATM    8  C6  UNL     1      24.944   2.632  52.785  1.00  0.00     0.206 C 
HETATM    9  C7  UNL     1      24.510   2.826  51.375  1.00  0.00     0.035 C 
HETATM   10  C13 UNL     1      23.526   2.196  50.741  1.00  0.00    -0.033 C 
HETATM   11  C14 UNL     1      23.282   0.900  51.468  1.00  0.00     0.097 C 
HETATM   12  C15 UNL     1      22.710   2.516  49.583  1.00  0.00     0.154 C 
HETATM   13  N3  UNL     1      21.877   3.691  49.665  1.00  0.00    -0.401 N 
ENDROOT
BRANCH  13  14
HETATM   14  C16 UNL     1      21.072   3.686  48.506  1.00  0.00     0.137 C 
BRANCH  14  15
HETATM   15  C17 UNL     1      20.260   2.537  48.098  1.00  0.00     0.136 C 
BRANCH  15  16
HETATM   16  N4  UNL     1      18.875   2.829  48.458  1.00  0.00    -0.407 N 
HETATM   17  C18 UNL     1      18.322   2.122  49.518  1.00  0.00     0.143 C 
HETATM   18  C19 UNL     1      17.267   2.959  50.222  1.00  0.00     0.187 C 
HETATM   19  O3  UNL     1      17.666   4.304  50.246  1.00  0.00    -0.388 OA
HETATM   20  C20 UNL     1      17.667   4.849  48.975  1.00  0.00     0.187 C 
HETATM   21  C21 UNL     1      18.301   3.976  47.922  1.00  0.00     0.143 C 
ENDBRANCH  15  16
ENDBRANCH  14  15
ENDBRANCH  13  14
BRANCH   9  22
HETATM   22  N2  UNL     1      25.209   3.803  50.558  1.00  0.00    -0.354 N 
HETATM   23  C8  UNL     1      24.823   5.191  50.635  1.00  0.00     0.110 A 
HETATM   24  C9  UNL     1      25.354   6.214  49.992  1.00  0.00     0.026 A 
HETATM   25 BR1  UNL     1      24.768   7.996  50.173  1.00  0.00    -0.050 Br
HETATM   26  C10 UNL     1      26.447   5.912  49.080  1.00  0.00     0.018 A 
HETATM   27  C11 UNL     1      26.789   4.643  48.992  1.00  0.00    -0.005 A 
HETATM   28  C12 UNL     1      26.276   3.430  49.648  1.00  0.00     0.155 A 
ENDBRANCH   9  22
BRANCH   5  29
HETATM   29  O2  UNL     1      20.938   0.294  52.170  1.00  0.00    -0.366 OA
HETATM   30  H8  UNL     1      20.022   0.425  51.877  1.00  0.00     0.213 HD
ENDBRANCH   5  29
TORSDOF 5
ENDMDL
MODEL 9
REMARK VINA RESULT:      -6.8      8.055     10.705
REMARK  5 active torsions:
REMARK  status: ('A' for Active; 'I' for Inactive)
REMARK    1  A    between atoms: C4_5  and  O2_6 
REMARK    2  A    between atoms: C7_10  and  N2_11 
REMARK    3  A    between atoms: N3_21  and  C16_22 
REMARK    4  A    between atoms: C16_22  and  C17_23 
REMARK    5  A    between atoms: C17_23  and  N4_24 
ROOT
HETATM    1  C1  UNL     1      28.026   8.598  44.941  1.00  0.00     0.034 C 
HETATM    2  C2  UNL     1      28.571   9.015  46.279  1.00  0.00     0.099 C 
HETATM    3  C3  UNL     1      27.885  10.354  46.608  1.00  0.00     0.195 C 
HETATM    4  O1  UNL     1      28.348  11.048  47.487  1.00  0.00    -0.354 OA
HETATM    5  C4  UNL     1      28.830  11.788  48.411  1.00  0.00     0.305 C 
HETATM    6  C5  UNL     1      30.321  11.487  48.497  1.00  0.00     0.065 C 
HETATM    7  N1  UNL     1      31.509  11.780  48.111  1.00  0.00    -0.287 NA
HETATM    8  C6  UNL     1      32.312  10.784  47.396  1.00  0.00     0.206 C 
HETATM    9  C7  UNL     1      31.650   9.466  47.584  1.00  0.00     0.035 C 
HETATM   10  C13 UNL     1      30.591   9.197  48.342  1.00  0.00    -0.033 C 
HETATM   11  C14 UNL     1      30.502  10.279  49.387  1.00  0.00     0.097 C 
HETATM   12  C15 UNL     1      29.589   8.145  48.334  1.00  0.00     0.154 C 
HETATM   13  N3  UNL     1      28.752   8.041  47.164  1.00  0.00    -0.401 N 
ENDROOT
BRANCH  13  14
HETATM   14  C16 UNL     1      27.768   7.075  47.467  1.00  0.00     0.137 C 
BRANCH  14  15
HETATM   15  C17 UNL     1      27.152   6.946  48.790  1.00  0.00     0.136 C 
BRANCH  15  16
HETATM   16  N4  UNL     1      26.451   5.665  48.823  1.00  0.00    -0.407 N 
HETATM   17  C18 UNL     1      27.220   4.512  48.917  1.00  0.00     0.143 C 
HETATM   18  C19 UNL     1      26.453   3.420  49.644  1.00  0.00     0.187 C 
HETATM   19  O3  UNL     1      25.683   3.986  50.672  1.00  0.00    -0.388 OA
HETATM   20  C20 UNL     1      24.662   4.766  50.162  1.00  0.00     0.187 C 
HETATM   21  C21 UNL     1      25.080   5.690  49.046  1.00  0.00     0.143 C 
ENDBRANCH  15  16
ENDBRANCH  14  15
ENDBRANCH  13  14
BRANCH   9  22
HETATM   22  N2  UNL     1      32.181   8.311  46.880  1.00  0.00    -0.354 N 
HETATM   23  C8  UNL     1      33.030   7.385  47.588  1.00  0.00     0.110 A 
HETATM   24  C9  UNL     1      33.580   6.278  47.124  1.00  0.00     0.026 A 
HETATM   25 BR1  UNL     1      34.677   5.135  48.146  1.00  0.00    -0.050 Br
HETATM   26  C10 UNL     1      33.320   5.957  45.730  1.00  0.00     0.018 A 
HETATM   27  C11 UNL     1      32.560   6.811  45.075  1.00  0.00    -0.005 A 
HETATM   28  C12 UNL     1      31.902   8.063  45.479  1.00  0.00     0.155 A 
ENDBRANCH   9  22
BRANCH   5  29
HETATM   29  O2  UNL     1      28.320  11.493  49.731  1.00  0.00    -0.366 OA
HETATM   30  H8  UNL     1      28.944  10.900  50.181  1.00  0.00     0.213 HD
ENDBRANCH   5  29
TORSDOF 5
ENDMDL
