MODEL 1
REMARK VINA RESULT:      -9.4      0.000      0.000
REMARK  6 active torsions:
REMARK  status: ('A' for Active; 'I' for Inactive)
REMARK    1  A    between atoms: C7_7  and  N1_8 
REMARK       I    between atoms: N1_8  and  C8_9 
REMARK       I    between atoms: C8_9  and  N2_11 
REMARK    2  A    between atoms: N2_11  and  C9_12 
REMARK    3  A    between atoms: N2_11  and  C16_20 
REMARK    4  A    between atoms: C9_12  and  C10_13 
REMARK    5  A    between atoms: C16_20  and  C17_21 
REMARK    6  A    between atoms: C23_27  and  O2_28 
ROOT
HETATM    1  N1  UNL     1      26.309   0.577  53.173  1.00  0.00    -0.308 N 
HETATM    2  C8  UNL     1      25.816   1.103  51.947  1.00  0.00     0.323 C 
HETATM    3  O1  UNL     1      26.767   0.771  51.184  1.00  0.00    -0.247 OA
HETATM    4  N2  UNL     1      24.537   1.775  51.942  1.00  0.00    -0.325 N 
HETATM    5  H8  UNL     1      25.854   0.622  54.129  1.00  0.00     0.170 HD
ENDROOT
BRANCH   4   6
HETATM    6  C9  UNL     1      23.776   1.881  53.191  1.00  0.00     0.166 C 
BRANCH   6   7
HETATM    7  C10 UNL     1      22.770   0.838  53.390  1.00  0.00    -0.040 A 
HETATM    8  C11 UNL     1      22.941  -0.438  53.877  1.00  0.00     0.012 A 
HETATM    9  C12 UNL     1      21.957  -1.381  54.064  1.00  0.00     0.043 A 
HETATM   10  C13 UNL     1      20.660  -1.055  53.746  1.00  0.00     0.116 A 
HETATM   11  F1  UNL     1      19.679  -1.967  53.922  1.00  0.00    -0.206 F 
HETATM   12  C14 UNL     1      20.402   0.201  53.252  1.00  0.00     0.043 A 
HETATM   13  C15 UNL     1      21.422   1.085  53.093  1.00  0.00     0.012 A 
ENDBRANCH   6   7
ENDBRANCH   4   6
BRANCH   4  14
HETATM   14  C16 UNL     1      24.089   2.322  50.679  1.00  0.00     0.169 C 
BRANCH  14  15
HETATM   15  C17 UNL     1      24.655   3.594  50.268  1.00  0.00    -0.006 A 
HETATM   16  C18 UNL     1      23.929   4.753  50.598  1.00  0.00     0.012 A 
HETATM   17  C19 UNL     1      24.286   6.048  50.314  1.00  0.00     0.001 A 
HETATM   18  C20 UNL     1      25.463   6.271  49.640  1.00  0.00     0.009 A 
HETATM   19  C21 UNL     1      26.222   5.180  49.286  1.00  0.00    -0.028 A 
HETATM   20  C22 UNL     1      27.497   5.402  48.556  1.00  0.00     0.051 C 
HETATM   21  C23 UNL     1      25.803   3.928  49.602  1.00  0.00     0.079 A 
BRANCH  21  22
HETATM   22  O2  UNL     1      26.602   2.891  49.225  1.00  0.00    -0.360 OA
HETATM   23  H23 UNL     1      27.576   2.903  49.021  1.00  0.00     0.217 HD
ENDBRANCH  21  22
ENDBRANCH  14  15
ENDBRANCH   4  14
BRANCH   1  24
HETATM   24  C7  UNL     1      27.573  -0.111  53.273  1.00  0.00     0.042 A 
HETATM   25  C2  UNL     1      28.681   0.687  53.580  1.00  0.00    -0.035 A 
HETATM   26  C1  UNL     1      28.618   2.162  53.801  1.00  0.00     0.050 C 
HETATM   27  C3  UNL     1      29.916   0.080  53.688  1.00  0.00     0.009 A 
HETATM   28  C4  UNL     1      30.004  -1.283  53.489  1.00  0.00     0.001 A 
HETATM   29  C5  UNL     1      28.934  -2.097  53.186  1.00  0.00     0.002 A 
HETATM   30  C6  UNL     1      27.726  -1.470  53.086  1.00  0.00     0.030 A 
ENDBRANCH   1  24
TORSDOF 6
ENDMDL
MODEL 2
REMARK VINA RESULT:      -9.1      1.686      2.348
REMARK  6 active torsions:
REMARK  status: ('A' for Active; 'I' for Inactive)
REMARK    1  A    between atoms: C7_7  and  N1_8 
REMARK       I    between atoms: N1_8  and  C8_9 
REMARK       I    between atoms: C8_9  and  N2_11 
REMARK    2  A    between atoms: N2_11  and  C9_12 
REMARK    3  A    between atoms: N2_11  and  C16_20 
REMARK    4  A    between atoms: C9_12  and  C10_13 
REMARK    5  A    between atoms: C16_20  and  C17_21 
REMARK    6  A    between atoms: C23_27  and  O2_28 
ROOT
HETATM    1  N1  UNL     1      26.044   2.329  52.712  1.00  0.00    -0.308 N 
HETATM    2  C8  UNL     1      25.933   2.703  51.344  1.00  0.00     0.323 C 
HETATM    3  O1  UNL     1      27.066   2.316  50.934  1.00  0.00    -0.247 OA
HETATM    4  N2  UNL     1      24.715   3.333  50.890  1.00  0.00    -0.325 N 
HETATM    5  H8  UNL     1      25.329   2.467  53.481  1.00  0.00     0.170 HD
ENDROOT
BRANCH   4   6
HETATM    6  C9  UNL     1      23.622   3.554  51.842  1.00  0.00     0.166 C 
BRANCH   6   7
HETATM    7  C10 UNL     1      22.565   2.544  51.811  1.00  0.00    -0.040 A 
HETATM    8  C11 UNL     1      22.686   1.176  51.727  1.00  0.00     0.012 A 
HETATM    9  C12 UNL     1      21.658   0.262  51.720  1.00  0.00     0.043 A 
HETATM   10  C13 UNL     1      20.365   0.721  51.805  1.00  0.00     0.116 A 
HETATM   11  F1  UNL     1      19.341  -0.159  51.800  1.00  0.00    -0.206 F 
HETATM   12  C14 UNL     1      20.155   2.076  51.892  1.00  0.00     0.043 A 
HETATM   13  C15 UNL     1      21.217   2.924  51.894  1.00  0.00     0.012 A 
ENDBRANCH   6   7
ENDBRANCH   4   6
BRANCH   4  14
HETATM   14  C16 UNL     1      24.660   3.725  49.497  1.00  0.00     0.169 C 
BRANCH  14  15
HETATM   15  C17 UNL     1      25.353   4.943  49.121  1.00  0.00    -0.006 A 
HETATM   16  C18 UNL     1      24.587   6.121  49.058  1.00  0.00     0.012 A 
HETATM   17  C19 UNL     1      25.044   7.376  48.734  1.00  0.00     0.001 A 
HETATM   18  C20 UNL     1      26.376   7.531  48.435  1.00  0.00     0.009 A 
HETATM   19  C21 UNL     1      27.183   6.418  48.478  1.00  0.00    -0.028 A 
HETATM   20  C22 UNL     1      28.626   6.567  48.157  1.00  0.00     0.051 C 
HETATM   21  C23 UNL     1      26.658   5.209  48.807  1.00  0.00     0.079 A 
BRANCH  21  22
HETATM   22  O2  UNL     1      27.512   4.148  48.834  1.00  0.00    -0.360 OA
HETATM   23  H23 UNL     1      27.988   3.718  48.073  1.00  0.00     0.217 HD
ENDBRANCH  21  22
ENDBRANCH  14  15
ENDBRANCH   4  14
BRANCH   1  24
HETATM   24  C7  UNL     1      27.220   1.693  53.253  1.00  0.00     0.042 A 
HETATM   25  C2  UNL     1      27.199   0.294  53.282  1.00  0.00    -0.035 A 
HETATM   26  C1  UNL     1      26.060  -0.539  52.797  1.00  0.00     0.050 C 
HETATM   27  C3  UNL     1      28.300  -0.367  53.790  1.00  0.00     0.009 A 
HETATM   28  C4  UNL     1      29.368   0.379  54.245  1.00  0.00     0.001 A 
HETATM   29  C5  UNL     1      29.421   1.756  54.231  1.00  0.00     0.002 A 
HETATM   30  C6  UNL     1      28.320   2.382  53.723  1.00  0.00     0.030 A 
ENDBRANCH   1  24
TORSDOF 6
ENDMDL
MODEL 3
REMARK VINA RESULT:      -8.9      2.412      5.618
REMARK  6 active torsions:
REMARK  status: ('A' for Active; 'I' for Inactive)
REMARK    1  A    between atoms: C7_7  and  N1_8 
REMARK       I    between atoms: N1_8  and  C8_9 
REMARK       I    between atoms: C8_9  and  N2_11 
REMARK    2  A    between atoms: N2_11  and  C9_12 
REMARK    3  A    between atoms: N2_11  and  C16_20 
REMARK    4  A    between atoms: C9_12  and  C10_13 
REMARK    5  A    between atoms: C16_20  and  C17_21 
REMARK    6  A    between atoms: C23_27  and  O2_28 
ROOT
HETATM    1  N1  UNL     1      23.587   1.340  52.942  1.00  0.00    -0.308 N 
HETATM    2  C8  UNL     1      24.115   1.614  51.649  1.00  0.00     0.323 C 
HETATM    3  O1  UNL     1      23.148   1.206  50.943  1.00  0.00    -0.247 OA
HETATM    4  N2  UNL     1      25.430   2.201  51.544  1.00  0.00    -0.325 N 
HETATM    5  H8  UNL     1      24.052   1.502  53.880  1.00  0.00     0.170 HD
ENDROOT
BRANCH   4   6
HETATM    6  C9  UNL     1      26.178   2.514  52.766  1.00  0.00     0.166 C 
BRANCH   6   7
HETATM    7  C10 UNL     1      27.262   1.584  53.081  1.00  0.00    -0.040 A 
HETATM    8  C11 UNL     1      28.499   1.857  53.618  1.00  0.00     0.012 A 
HETATM    9  C12 UNL     1      29.483   0.943  53.915  1.00  0.00     0.043 A 
HETATM   10  C13 UNL     1      29.244  -0.388  53.666  1.00  0.00     0.116 A 
HETATM   11  F1  UNL     1      30.196  -1.303  53.951  1.00  0.00    -0.206 F 
HETATM   12  C14 UNL     1      28.031  -0.748  53.130  1.00  0.00     0.043 A 
HETATM   13  C15 UNL     1      27.104   0.208  52.861  1.00  0.00     0.012 A 
ENDBRANCH   6   7
ENDBRANCH   4   6
BRANCH   4  14
HETATM   14  C16 UNL     1      25.939   2.433  50.209  1.00  0.00     0.169 C 
BRANCH  14  15
HETATM   15  C17 UNL     1      25.726   3.750  49.636  1.00  0.00    -0.006 A 
HETATM   16  C18 UNL     1      24.399   4.108  49.334  1.00  0.00     0.012 A 
HETATM   17  C19 UNL     1      23.978   5.300  48.798  1.00  0.00     0.001 A 
HETATM   18  C20 UNL     1      24.919   6.262  48.517  1.00  0.00     0.009 A 
HETATM   19  C21 UNL     1      26.236   5.976  48.789  1.00  0.00    -0.028 A 
HETATM   20  C22 UNL     1      27.268   7.004  48.491  1.00  0.00     0.051 C 
HETATM   21  C23 UNL     1      26.577   4.773  49.319  1.00  0.00     0.079 A 
BRANCH  21  22
HETATM   22  O2  UNL     1      27.898   4.555  49.567  1.00  0.00    -0.360 OA
HETATM   23  H23 UNL     1      28.367   4.524  50.444  1.00  0.00     0.217 HD
ENDBRANCH  21  22
ENDBRANCH  14  15
ENDBRANCH   4  14
BRANCH   1  24
HETATM   24  C7  UNL     1      22.283   0.758  53.143  1.00  0.00     0.042 A 
HETATM   25  C2  UNL     1      22.245  -0.400  53.929  1.00  0.00    -0.035 A 
HETATM   26  C1  UNL     1      23.446  -1.036  54.545  1.00  0.00     0.050 C 
HETATM   27  C3  UNL     1      21.022  -0.999  54.155  1.00  0.00     0.009 A 
HETATM   28  C4  UNL     1      19.893  -0.431  53.598  1.00  0.00     0.001 A 
HETATM   29  C5  UNL     1      19.896   0.707  52.821  1.00  0.00     0.002 A 
HETATM   30  C6  UNL     1      21.119   1.277  52.614  1.00  0.00     0.030 A 
ENDBRANCH   1  24
TORSDOF 6
ENDMDL
MODEL 4
REMARK VINA RESULT:      -8.9      1.151      2.209
REMARK  6 active torsions:
REMARK  status: ('A' for Active; 'I' for Inactive)
REMARK    1  A    between atoms: C7_7  and  N1_8 
REMARK       I    between atoms: N1_8  and  C8_9 
REMARK       I    between atoms: C8_9  and  N2_11 
REMARK    2  A    between atoms: N2_11  and  C9_12 
REMARK    3  A    between atoms: N2_11  and  C16_20 
REMARK    4  A    between atoms: C9_12  and  C10_13 
REMARK    5  A    between atoms: C16_20  and  C17_21 
REMARK    6  A    between atoms: C23_27  and  O2_28 
ROOT
HETATM    1  N1  UNL     1      26.452   1.150  53.129  1.00  0.00    -0.308 N 
HETATM    2  C8  UNL     1      26.044   1.690  51.879  1.00  0.00     0.323 C 
HETATM    3  O1  UNL     1      27.041   1.358  51.176  1.00  0.00    -0.247 OA
HETATM    4  N2  UNL     1      24.772   2.371  51.796  1.00  0.00    -0.325 N 
HETATM    5  H8  UNL     1      25.936   1.190  54.053  1.00  0.00     0.170 HD
ENDROOT
BRANCH   4   6
HETATM    6  C9  UNL     1      23.932   2.471  52.993  1.00  0.00     0.166 C 
BRANCH   6   7
HETATM    7  C10 UNL     1      22.882   1.458  53.096  1.00  0.00    -0.040 A 
HETATM    8  C11 UNL     1      21.580   1.521  52.653  1.00  0.00     0.012 A 
HETATM    9  C12 UNL     1      20.631   0.531  52.756  1.00  0.00     0.043 A 
HETATM   10  C13 UNL     1      20.979  -0.657  53.355  1.00  0.00     0.116 A 
HETATM   11  F1  UNL     1      20.062  -1.643  53.467  1.00  0.00    -0.206 F 
HETATM   12  C14 UNL     1      22.261  -0.804  53.826  1.00  0.00     0.043 A 
HETATM   13  C15 UNL     1      23.149   0.216  53.691  1.00  0.00     0.012 A 
ENDBRANCH   6   7
ENDBRANCH   4   6
BRANCH   4  14
HETATM   14  C16 UNL     1      24.412   2.932  50.512  1.00  0.00     0.169 C 
BRANCH  14  15
HETATM   15  C17 UNL     1      24.995   4.213  50.158  1.00  0.00    -0.006 A 
HETATM   16  C18 UNL     1      26.135   4.191  49.333  1.00  0.00     0.012 A 
HETATM   17  C19 UNL     1      26.833   5.282  48.876  1.00  0.00     0.001 A 
HETATM   18  C20 UNL     1      26.403   6.536  49.242  1.00  0.00     0.009 A 
HETATM   19  C21 UNL     1      25.294   6.629  50.048  1.00  0.00    -0.028 A 
HETATM   20  C22 UNL     1      24.815   7.976  50.455  1.00  0.00     0.051 C 
HETATM   21  C23 UNL     1      24.655   5.504  50.462  1.00  0.00     0.079 A 
BRANCH  21  22
HETATM   22  O2  UNL     1      23.561   5.666  51.257  1.00  0.00    -0.360 OA
HETATM   23  H23 UNL     1      23.052   4.973  51.757  1.00  0.00     0.217 HD
ENDBRANCH  21  22
ENDBRANCH  14  15
ENDBRANCH   4  14
BRANCH   1  24
HETATM   24  C7  UNL     1      27.702   0.453  53.305  1.00  0.00     0.042 A 
HETATM   25  C2  UNL     1      27.667  -0.930  53.090  1.00  0.00    -0.035 A 
HETATM   26  C1  UNL     1      26.441  -1.688  52.701  1.00  0.00     0.050 C 
HETATM   27  C3  UNL     1      28.836  -1.648  53.244  1.00  0.00     0.009 A 
HETATM   28  C4  UNL     1      29.986  -0.972  53.603  1.00  0.00     0.001 A 
HETATM   29  C5  UNL     1      30.055   0.386  53.822  1.00  0.00     0.002 A 
HETATM   30  C6  UNL     1      28.885   1.069  53.662  1.00  0.00     0.030 A 
ENDBRANCH   1  24
TORSDOF 6
ENDMDL
MODEL 5
REMARK VINA RESULT:      -8.9      2.592      6.022
REMARK  6 active torsions:
REMARK  status: ('A' for Active; 'I' for Inactive)
REMARK    1  A    between atoms: C7_7  and  N1_8 
REMARK       I    between atoms: N1_8  and  C8_9 
REMARK       I    between atoms: C8_9  and  N2_11 
REMARK    2  A    between atoms: N2_11  and  C9_12 
REMARK    3  A    between atoms: N2_11  and  C16_20 
REMARK    4  A    between atoms: C9_12  and  C10_13 
REMARK    5  A    between atoms: C16_20  and  C17_21 
REMARK    6  A    between atoms: C23_27  and  O2_28 
ROOT
HETATM    1  N1  UNL     1      21.848   0.530  51.887  1.00  0.00    -0.308 N 
HETATM    2  C8  UNL     1      22.293   1.865  52.093  1.00  0.00     0.323 C 
HETATM    3  O1  UNL     1      21.187   2.409  52.374  1.00  0.00    -0.247 OA
HETATM    4  N2  UNL     1      23.698   2.162  51.936  1.00  0.00    -0.325 N 
HETATM    5  H8  UNL     1      22.428  -0.313  51.612  1.00  0.00     0.170 HD
ENDROOT
BRANCH   4   6
HETATM    6  C9  UNL     1      24.627   1.082  51.590  1.00  0.00     0.166 C 
BRANCH   6   7
HETATM    7  C10 UNL     1      25.618   0.768  52.619  1.00  0.00    -0.040 A 
HETATM    8  C11 UNL     1      25.413   0.490  53.952  1.00  0.00     0.012 A 
HETATM    9  C12 UNL     1      26.379   0.181  54.881  1.00  0.00     0.043 A 
HETATM   10  C13 UNL     1      27.692   0.134  54.478  1.00  0.00     0.116 A 
HETATM   11  F1  UNL     1      28.657  -0.168  55.375  1.00  0.00    -0.206 F 
HETATM   12  C14 UNL     1      27.985   0.399  53.162  1.00  0.00     0.043 A 
HETATM   13  C15 UNL     1      26.981   0.698  52.296  1.00  0.00     0.012 A 
ENDBRANCH   6   7
ENDBRANCH   4   6
BRANCH   4  14
HETATM   14  C16 UNL     1      24.101   3.540  52.123  1.00  0.00     0.169 C 
BRANCH  14  15
HETATM   15  C17 UNL     1      24.508   4.280  50.943  1.00  0.00    -0.006 A 
HETATM   16  C18 UNL     1      23.518   5.036  50.289  1.00  0.00     0.012 A 
HETATM   17  C19 UNL     1      23.690   5.812  49.169  1.00  0.00     0.001 A 
HETATM   18  C20 UNL     1      24.940   5.877  48.602  1.00  0.00     0.009 A 
HETATM   19  C21 UNL     1      25.955   5.161  49.192  1.00  0.00    -0.028 A 
HETATM   20  C22 UNL     1      27.314   5.219  48.593  1.00  0.00     0.051 C 
HETATM   21  C23 UNL     1      25.708   4.415  50.300  1.00  0.00     0.079 A 
BRANCH  21  22
HETATM   22  O2  UNL     1      26.757   3.731  50.836  1.00  0.00    -0.360 OA
HETATM   23  H23 UNL     1      27.727   3.947  50.784  1.00  0.00     0.217 HD
ENDBRANCH  21  22
ENDBRANCH  14  15
ENDBRANCH   4  14
BRANCH   1  24
HETATM   24  C7  UNL     1      20.466   0.140  52.024  1.00  0.00     0.042 A 
HETATM   25  C2  UNL     1      20.133  -0.528  53.209  1.00  0.00    -0.035 A 
HETATM   26  C1  UNL     1      21.105  -0.843  54.296  1.00  0.00     0.050 C 
HETATM   27  C3  UNL     1      18.823  -0.924  53.392  1.00  0.00     0.009 A 
HETATM   28  C4  UNL     1      17.902  -0.645  52.402  1.00  0.00     0.001 A 
HETATM   29  C5  UNL     1      18.196   0.010  51.226  1.00  0.00     0.002 A 
HETATM   30  C6  UNL     1      19.498   0.389  51.072  1.00  0.00     0.030 A 
ENDBRANCH   1  24
TORSDOF 6
ENDMDL
MODEL 6
REMARK VINA RESULT:      -8.8      2.787      6.085
REMARK  6 active torsions:
REMARK  status: ('A' for Active; 'I' for Inactive)
REMARK    1  A    between atoms: C7_7  and  N1_8 
REMARK       I    between atoms: N1_8  and  C8_9 
REMARK       I    between atoms: C8_9  and  N2_11 
REMARK    2  A    between atoms: N2_11  and  C9_12 
REMARK    3  A    between atoms: N2_11  and  C16_20 
REMARK    4  A    between atoms: C9_12  and  C10_13 
REMARK    5  A    between atoms: C16_20  and  C17_21 
REMARK    6  A    between atoms: C23_27  and  O2_28 
ROOT
HETATM    1  N1  UNL     1      26.244   0.653  52.092  1.00  0.00    -0.308 N 
HETATM    2  C8  UNL     1      25.106   1.024  52.861  1.00  0.00     0.323 C 
HETATM    3  O1  UNL     1      25.491   0.632  54.000  1.00  0.00    -0.247 OA
HETATM    4  N2  UNL     1      23.991   1.656  52.194  1.00  0.00    -0.325 N 
HETATM    5  H8  UNL     1      26.389   0.771  51.050  1.00  0.00     0.170 HD
ENDROOT
BRANCH   4   6
HETATM    6  C9  UNL     1      24.068   1.915  50.753  1.00  0.00     0.166 C 
BRANCH   6   7
HETATM    7  C10 UNL     1      24.685   3.190  50.388  1.00  0.00    -0.040 A 
HETATM    8  C11 UNL     1      24.245   4.466  50.659  1.00  0.00     0.012 A 
HETATM    9  C12 UNL     1      24.871   5.639  50.310  1.00  0.00     0.043 A 
HETATM   10  C13 UNL     1      26.059   5.574  49.621  1.00  0.00     0.116 A 
HETATM   11  F1  UNL     1      26.691   6.714  49.268  1.00  0.00    -0.206 F 
HETATM   12  C14 UNL     1      26.570   4.337  49.309  1.00  0.00     0.043 A 
HETATM   13  C15 UNL     1      25.899   3.217  49.685  1.00  0.00     0.012 A 
ENDBRANCH   6   7
ENDBRANCH   4   6
BRANCH   4  14
HETATM   14  C16 UNL     1      22.842   1.987  53.010  1.00  0.00     0.169 C 
BRANCH  14  15
HETATM   15  C17 UNL     1      21.797   0.986  53.123  1.00  0.00    -0.006 A 
HETATM   16  C18 UNL     1      21.983  -0.028  54.081  1.00  0.00     0.012 A 
HETATM   17  C19 UNL     1      21.119  -1.060  54.355  1.00  0.00     0.001 A 
HETATM   18  C20 UNL     1      19.947  -1.141  53.642  1.00  0.00     0.009 A 
HETATM   19  C21 UNL     1      19.702  -0.180  52.690  1.00  0.00    -0.028 A 
HETATM   20  C22 UNL     1      18.439  -0.252  51.909  1.00  0.00     0.051 C 
HETATM   21  C23 UNL     1      20.605   0.811  52.474  1.00  0.00     0.079 A 
BRANCH  21  22
HETATM   22  O2  UNL     1      20.300   1.732  51.518  1.00  0.00    -0.360 OA
HETATM   23  H23 UNL     1      20.915   2.200  50.891  1.00  0.00     0.217 HD
ENDBRANCH  21  22
ENDBRANCH  14  15
ENDBRANCH   4  14
BRANCH   1  24
HETATM   24  C7  UNL     1      27.403   0.020  52.672  1.00  0.00     0.042 A 
HETATM   25  C2  UNL     1      28.388   0.883  53.167  1.00  0.00    -0.035 A 
HETATM   26  C1  UNL     1      28.297   2.373  53.124  1.00  0.00     0.050 C 
HETATM   27  C3  UNL     1      29.519   0.331  53.734  1.00  0.00     0.009 A 
HETATM   28  C4  UNL     1      29.629  -1.044  53.787  1.00  0.00     0.001 A 
HETATM   29  C5  UNL     1      28.679  -1.921  53.310  1.00  0.00     0.002 A 
HETATM   30  C6  UNL     1      27.572  -1.347  52.756  1.00  0.00     0.030 A 
ENDBRANCH   1  24
TORSDOF 6
ENDMDL
MODEL 7
REMARK VINA RESULT:      -8.7      2.618      7.121
REMARK  6 active torsions:
REMARK  status: ('A' for Active; 'I' for Inactive)
REMARK    1  A    between atoms: C7_7  and  N1_8 
REMARK       I    between atoms: N1_8  and  C8_9 
REMARK       I    between atoms: C8_9  and  N2_11 
REMARK    2  A    between atoms: N2_11  and  C9_12 
REMARK    3  A    between atoms: N2_11  and  C16_20 
REMARK    4  A    between atoms: C9_12  and  C10_13 
REMARK    5  A    between atoms: C16_20  and  C17_21 
REMARK    6  A    between atoms: C23_27  and  O2_28 
ROOT
HETATM    1  N1  UNL     1      24.975   3.921  51.513  1.00  0.00    -0.308 N 
HETATM    2  C8  UNL     1      24.421   2.616  51.397  1.00  0.00     0.323 C 
HETATM    3  O1  UNL     1      23.737   2.777  50.345  1.00  0.00    -0.247 OA
HETATM    4  N2  UNL     1      24.761   1.624  52.390  1.00  0.00    -0.325 N 
HETATM    5  H8  UNL     1      25.622   4.286  52.268  1.00  0.00     0.170 HD
ENDROOT
BRANCH   4   6
HETATM    6  C9  UNL     1      25.679   1.980  53.476  1.00  0.00     0.166 C 
BRANCH   6   7
HETATM    7  C10 UNL     1      26.908   1.187  53.529  1.00  0.00    -0.040 A 
HETATM    8  C11 UNL     1      27.065  -0.168  53.342  1.00  0.00     0.012 A 
HETATM    9  C12 UNL     1      28.248  -0.868  53.384  1.00  0.00     0.043 A 
HETATM   10  C13 UNL     1      29.412  -0.183  53.635  1.00  0.00     0.116 A 
HETATM   11  F1  UNL     1      30.586  -0.851  53.681  1.00  0.00    -0.206 F 
HETATM   12  C14 UNL     1      29.345   1.175  53.834  1.00  0.00     0.043 A 
HETATM   13  C15 UNL     1      28.142   1.805  53.779  1.00  0.00     0.012 A 
ENDBRANCH   6   7
ENDBRANCH   4   6
BRANCH   4  14
HETATM   14  C16 UNL     1      24.150   0.319  52.249  1.00  0.00     0.169 C 
BRANCH  14  15
HETATM   15  C17 UNL     1      22.766   0.186  52.665  1.00  0.00    -0.006 A 
HETATM   16  C18 UNL     1      22.531  -0.102  54.022  1.00  0.00     0.012 A 
HETATM   17  C19 UNL     1      21.306  -0.258  54.623  1.00  0.00     0.001 A 
HETATM   18  C20 UNL     1      20.176  -0.129  53.852  1.00  0.00     0.009 A 
HETATM   19  C21 UNL     1      20.334   0.152  52.515  1.00  0.00    -0.028 A 
HETATM   20  C22 UNL     1      19.123   0.295  51.665  1.00  0.00     0.051 C 
HETATM   21  C23 UNL     1      21.579   0.294  51.991  1.00  0.00     0.079 A 
BRANCH  21  22
HETATM   22  O2  UNL     1      21.666   0.574  50.661  1.00  0.00    -0.360 OA
HETATM   23  H23 UNL     1      22.404   1.026  50.171  1.00  0.00     0.217 HD
ENDBRANCH  21  22
ENDBRANCH  14  15
ENDBRANCH   4  14
BRANCH   1  24
HETATM   24  C7  UNL     1      24.693   4.974  50.569  1.00  0.00     0.042 A 
HETATM   25  C2  UNL     1      25.601   5.106  49.511  1.00  0.00    -0.035 A 
HETATM   26  C1  UNL     1      26.802   4.240  49.324  1.00  0.00     0.050 C 
HETATM   27  C3  UNL     1      25.380   6.098  48.577  1.00  0.00     0.009 A 
HETATM   28  C4  UNL     1      24.276   6.914  48.726  1.00  0.00     0.001 A 
HETATM   29  C5  UNL     1      23.363   6.810  49.753  1.00  0.00     0.002 A 
HETATM   30  C6  UNL     1      23.608   5.821  50.661  1.00  0.00     0.030 A 
ENDBRANCH   1  24
TORSDOF 6
ENDMDL
MODEL 8
REMARK VINA RESULT:      -8.7      2.226      3.322
REMARK  6 active torsions:
REMARK  status: ('A' for Active; 'I' for Inactive)
REMARK    1  A    between atoms: C7_7  and  N1_8 
REMARK       I    between atoms: N1_8  and  C8_9 
REMARK       I    between atoms: C8_9  and  N2_11 
REMARK    2  A    between atoms: N2_11  and  C9_12 
REMARK    3  A    between atoms: N2_11  and  C16_20 
REMARK    4  A    between atoms: C9_12  and  C10_13 
REMARK    5  A    between atoms: C16_20  and  C17_21 
REMARK    6  A    between atoms: C23_27  and  O2_28 
ROOT
HETATM    1  N1  UNL     1      26.198   1.724  52.975  1.00  0.00    -0.308 N 
HETATM    2  C8  UNL     1      25.995   2.523  51.816  1.00  0.00     0.323 C 
HETATM    3  O1  UNL     1      27.085   2.294  51.216  1.00  0.00    -0.247 OA
HETATM    4  N2  UNL     1      24.763   3.265  51.688  1.00  0.00    -0.325 N 
HETATM    5  H8  UNL     1      25.545   1.601  53.801  1.00  0.00     0.170 HD
ENDROOT
BRANCH   4   6
HETATM    6  C9  UNL     1      23.748   3.161  52.742  1.00  0.00     0.166 C 
BRANCH   6   7
HETATM    7  C10 UNL     1      22.576   2.360  52.392  1.00  0.00    -0.040 A 
HETATM    8  C11 UNL     1      21.255   2.744  52.345  1.00  0.00     0.012 A 
HETATM    9  C12 UNL     1      20.185   1.956  51.991  1.00  0.00     0.043 A 
HETATM   10  C13 UNL     1      20.416   0.647  51.641  1.00  0.00     0.116 A 
HETATM   11  F1  UNL     1      19.380  -0.145  51.289  1.00  0.00    -0.206 F 
HETATM   12  C14 UNL     1      21.709   0.181  51.660  1.00  0.00     0.043 A 
HETATM   13  C15 UNL     1      22.720   1.015  52.020  1.00  0.00     0.012 A 
ENDBRANCH   6   7
ENDBRANCH   4   6
BRANCH   4  14
HETATM   14  C16 UNL     1      24.614   4.089  50.507  1.00  0.00     0.169 C 
BRANCH  14  15
HETATM   15  C17 UNL     1      23.455   3.845  49.668  1.00  0.00    -0.006 A 
HETATM   16  C18 UNL     1      23.484   2.694  48.859  1.00  0.00     0.012 A 
HETATM   17  C19 UNL     1      22.495   2.273  48.003  1.00  0.00     0.001 A 
HETATM   18  C20 UNL     1      21.351   3.028  47.901  1.00  0.00     0.009 A 
HETATM   19  C21 UNL     1      21.258   4.167  48.665  1.00  0.00    -0.028 A 
HETATM   20  C22 UNL     1      20.028   4.997  48.568  1.00  0.00     0.051 C 
HETATM   21  C23 UNL     1      22.278   4.520  49.490  1.00  0.00     0.079 A 
BRANCH  21  22
HETATM   22  O2  UNL     1      22.122   5.658  50.222  1.00  0.00    -0.360 OA
HETATM   23  H23 UNL     1      22.412   5.838  51.156  1.00  0.00     0.217 HD
ENDBRANCH  21  22
ENDBRANCH  14  15
ENDBRANCH   4  14
BRANCH   1  24
HETATM   24  C7  UNL     1      27.395   0.949  53.187  1.00  0.00     0.042 A 
HETATM   25  C2  UNL     1      27.269  -0.434  53.004  1.00  0.00    -0.035 A 
HETATM   26  C1  UNL     1      26.000  -1.116  52.613  1.00  0.00     0.050 C 
HETATM   27  C3  UNL     1      28.384  -1.225  53.193  1.00  0.00     0.009 A 
HETATM   28  C4  UNL     1      29.571  -0.620  53.555  1.00  0.00     0.001 A 
HETATM   29  C5  UNL     1      29.729   0.736  53.743  1.00  0.00     0.002 A 
HETATM   30  C6  UNL     1      28.611   1.493  53.549  1.00  0.00     0.030 A 
ENDBRANCH   1  24
TORSDOF 6
ENDMDL
MODEL 9
REMARK VINA RESULT:      -8.7      1.684      6.397
REMARK  6 active torsions:
REMARK  status: ('A' for Active; 'I' for Inactive)
REMARK    1  A    between atoms: C7_7  and  N1_8 
REMARK       I    between atoms: N1_8  and  C8_9 
REMARK       I    between atoms: C8_9  and  N2_11 
REMARK    2  A    between atoms: N2_11  and  C9_12 
REMARK    3  A    between atoms: N2_11  and  C16_20 
REMARK    4  A    between atoms: C9_12  and  C10_13 
REMARK    5  A    between atoms: C16_20  and  C17_21 
REMARK    6  A    between atoms: C23_27  and  O2_28 
ROOT
HETATM    1  N1  UNL     1      23.871   4.943  51.599  1.00  0.00    -0.308 N 
HETATM    2  C8  UNL     1      24.747   3.975  51.034  1.00  0.00     0.323 C 
HETATM    3  O1  UNL     1      25.058   4.578  49.967  1.00  0.00    -0.247 OA
HETATM    4  N2  UNL     1      24.986   2.747  51.756  1.00  0.00    -0.325 N 
HETATM    5  H8  UNL     1      23.337   4.881  52.512  1.00  0.00     0.170 HD
ENDROOT
BRANCH   4   6
HETATM    6  C9  UNL     1      24.339   2.539  53.055  1.00  0.00     0.166 C 
BRANCH   6   7
HETATM    7  C10 UNL     1      23.228   1.589  53.045  1.00  0.00    -0.040 A 
HETATM    8  C11 UNL     1      23.228   0.262  53.413  1.00  0.00     0.012 A 
HETATM    9  C12 UNL     1      22.149  -0.590  53.404  1.00  0.00     0.043 A 
HETATM   10  C13 UNL     1      20.929  -0.107  52.992  1.00  0.00     0.116 A 
HETATM   11  F1  UNL     1      19.856  -0.927  52.975  1.00  0.00    -0.206 F 
HETATM   12  C14 UNL     1      20.841   1.209  52.607  1.00  0.00     0.043 A 
HETATM   13  C15 UNL     1      21.948   1.997  52.641  1.00  0.00     0.012 A 
ENDBRANCH   6   7
ENDBRANCH   4   6
BRANCH   4  14
HETATM   14  C16 UNL     1      25.859   1.778  51.128  1.00  0.00     0.169 C 
BRANCH  14  15
HETATM   15  C17 UNL     1      26.757   1.034  51.993  1.00  0.00    -0.006 A 
HETATM   16  C18 UNL     1      26.562  -0.357  52.071  1.00  0.00     0.012 A 
HETATM   17  C19 UNL     1      27.300  -1.244  52.817  1.00  0.00     0.001 A 
HETATM   18  C20 UNL     1      28.339  -0.758  53.574  1.00  0.00     0.009 A 
HETATM   19  C21 UNL     1      28.584   0.594  53.543  1.00  0.00    -0.028 A 
HETATM   20  C22 UNL     1      29.703   1.138  54.356  1.00  0.00     0.051 C 
HETATM   21  C23 UNL     1      27.811   1.410  52.781  1.00  0.00     0.079 A 
BRANCH  21  22
HETATM   22  O2  UNL     1      28.108   2.739  52.793  1.00  0.00    -0.360 OA
HETATM   23  H23 UNL     1      27.809   3.446  52.160  1.00  0.00     0.217 HD
ENDBRANCH  21  22
ENDBRANCH  14  15
ENDBRANCH   4  14
BRANCH   1  24
HETATM   24  C7  UNL     1      23.575   6.197  50.951  1.00  0.00     0.042 A 
HETATM   25  C2  UNL     1      22.261   6.354  50.493  1.00  0.00    -0.035 A 
HETATM   26  C1  UNL     1      21.193   5.322  50.639  1.00  0.00     0.050 C 
HETATM   27  C3  UNL     1      21.922   7.536  49.866  1.00  0.00     0.009 A 
HETATM   28  C4  UNL     1      22.890   8.509  49.718  1.00  0.00     0.001 A 
HETATM   29  C5  UNL     1      24.191   8.387  50.157  1.00  0.00     0.002 A 
HETATM   30  C6  UNL     1      24.497   7.209  50.773  1.00  0.00     0.030 A 
ENDBRANCH   1  24
TORSDOF 6
ENDMDL
