MODEL 1
REMARK VINA RESULT:      -8.3      0.000      0.000
REMARK  5 active torsions:
REMARK  status: ('A' for Active; 'I' for Inactive)
REMARK    1  A    between atoms: C2_2  and  N1_3 
REMARK    2  A    between atoms: N1_3  and  C3_4 
REMARK    3  A    between atoms: C7_8  and  C8_9 
REMARK    4  A    between atoms: C8_9  and  N2_10 
REMARK    5  A    between atoms: N2_10  and  C9_11 
ROOT
HETATM    1  C3  UNL     1      26.330   2.321  51.652  1.00  0.00     0.029 A 
HETATM    2  C4  UNL     1      26.611   3.083  50.538  1.00  0.00     0.029 A 
HETATM    3  C5  UNL     1      25.727   3.500  49.595  1.00  0.00     0.003 A 
HETATM    4  C6  UNL     1      24.412   3.121  49.773  1.00  0.00     0.009 A 
HETATM    5  C7  UNL     1      24.025   2.360  50.854  1.00  0.00    -0.038 A 
HETATM    6  C15 UNL     1      24.996   1.988  51.753  1.00  0.00     0.038 A 
ENDROOT
BRANCH   5   7
HETATM    7  C8  UNL     1      22.610   1.948  51.052  1.00  0.00     0.158 C 
BRANCH   7   8
HETATM    8  N2  UNL     1      22.246   1.972  52.450  1.00  0.00    -0.386 N 
HETATM    9  H10 UNL     1      22.338   2.842  53.050  1.00  0.00     0.160 HD
BRANCH   8  10
HETATM   10  C9  UNL     1      21.746   0.788  53.044  1.00  0.00     0.029 A 
HETATM   11  C10 UNL     1      22.610   0.007  53.791  1.00  0.00     0.029 A 
HETATM   12  C11 UNL     1      22.127  -1.158  54.378  1.00  0.00     0.004 A 
HETATM   13  C12 UNL     1      20.808  -1.544  54.227  1.00  0.00     0.019 A 
HETATM   14  C13 UNL     1      19.940  -0.767  53.480  1.00  0.00     0.013 A 
HETATM   15 BR1  UNL     1      18.111  -1.287  53.262  1.00  0.00    -0.051 Br
HETATM   16  C14 UNL     1      20.424   0.400  52.893  1.00  0.00     0.048 A 
ENDBRANCH   8  10
ENDBRANCH   7   8
ENDBRANCH   5   7
BRANCH   1  17
HETATM   17  N1  UNL     1      27.258   1.904  52.613  1.00  0.00    -0.369 N 
HETATM   18  H4  UNL     1      27.890   2.668  52.987  1.00  0.00     0.161 HD
BRANCH  17  19
HETATM   19  C2  UNL     1      27.513   0.634  53.185  1.00  0.00     0.136 A 
HETATM   20  C1  UNL     1      28.980   0.435  53.534  1.00  0.00     0.054 C 
HETATM   21  C16 UNL     1      27.165  -0.527  52.283  1.00  0.00     0.038 A 
HETATM   22  C17 UNL     1      26.313  -1.397  52.852  1.00  0.00     0.144 A 
HETATM   23  O1  UNL     1      26.010  -0.926  54.145  1.00  0.00    -0.289 OA
HETATM   24  C18 UNL     1      26.705   0.280  54.369  1.00  0.00     0.295 A 
HETATM   25  O2  UNL     1      26.693   0.996  55.383  1.00  0.00    -0.262 OA
ENDBRANCH  17  19
ENDBRANCH   1  17
TORSDOF 5
ENDMDL
MODEL 2
REMARK VINA RESULT:      -8.1      1.594      2.192
REMARK  5 active torsions:
REMARK  status: ('A' for Active; 'I' for Inactive)
REMARK    1  A    between atoms: C2_2  and  N1_3 
REMARK    2  A    between atoms: N1_3  and  C3_4 
REMARK    3  A    between atoms: C7_8  and  C8_9 
REMARK    4  A    between atoms: C8_9  and  N2_10 
REMARK    5  A    between atoms: N2_10  and  C9_11 
ROOT
HETATM    1  C3  UNL     1      25.685   2.306  51.769  1.00  0.00     0.029 A 
HETATM    2  C4  UNL     1      26.508   2.919  50.848  1.00  0.00     0.029 A 
HETATM    3  C5  UNL     1      26.136   3.456  49.657  1.00  0.00     0.003 A 
HETATM    4  C6  UNL     1      24.795   3.378  49.339  1.00  0.00     0.009 A 
HETATM    5  C7  UNL     1      23.889   2.786  50.190  1.00  0.00    -0.038 A 
HETATM    6  C15 UNL     1      24.365   2.272  51.373  1.00  0.00     0.038 A 
ENDROOT
BRANCH   5   7
HETATM    7  C8  UNL     1      22.443   2.699  49.853  1.00  0.00     0.158 C 
BRANCH   7   8
HETATM    8  N2  UNL     1      22.015   1.325  49.720  1.00  0.00    -0.386 N 
HETATM    9  H10 UNL     1      22.373   0.687  48.952  1.00  0.00     0.160 HD
BRANCH   8  10
HETATM   10  C9  UNL     1      21.083   0.810  50.653  1.00  0.00     0.029 A 
HETATM   11  C10 UNL     1      19.734   0.914  50.364  1.00  0.00     0.029 A 
HETATM   12  C11 UNL     1      18.810   0.410  51.275  1.00  0.00     0.004 A 
HETATM   13  C12 UNL     1      19.216  -0.188  52.452  1.00  0.00     0.019 A 
HETATM   14  C13 UNL     1      20.565  -0.293  52.746  1.00  0.00     0.013 A 
HETATM   15 BR1  UNL     1      21.144  -1.118  54.373  1.00  0.00    -0.051 Br
HETATM   16  C14 UNL     1      21.489   0.211  51.834  1.00  0.00     0.048 A 
ENDBRANCH   8  10
ENDBRANCH   7   8
ENDBRANCH   5   7
BRANCH   1  17
HETATM   17  N1  UNL     1      26.090   1.761  52.993  1.00  0.00    -0.369 N 
HETATM   18  H4  UNL     1      26.297   2.471  53.753  1.00  0.00     0.161 HD
BRANCH  17  19
HETATM   19  C2  UNL     1      26.278   0.421  53.410  1.00  0.00     0.136 A 
HETATM   20  C1  UNL     1      27.020  -0.412  52.376  1.00  0.00     0.054 C 
HETATM   21  C16 UNL     1      24.992  -0.328  53.666  1.00  0.00     0.038 A 
HETATM   22  C17 UNL     1      24.929  -0.859  54.899  1.00  0.00     0.144 A 
HETATM   23  O1  UNL     1      26.122  -0.530  55.573  1.00  0.00    -0.289 OA
HETATM   24  C18 UNL     1      26.940   0.233  54.716  1.00  0.00     0.295 A 
HETATM   25  O2  UNL     1      28.062   0.710  54.949  1.00  0.00    -0.262 OA
ENDBRANCH  17  19
ENDBRANCH   1  17
TORSDOF 5
ENDMDL
MODEL 3
REMARK VINA RESULT:      -8.0      3.014      5.416
REMARK  5 active torsions:
REMARK  status: ('A' for Active; 'I' for Inactive)
REMARK    1  A    between atoms: C2_2  and  N1_3 
REMARK    2  A    between atoms: N1_3  and  C3_4 
REMARK    3  A    between atoms: C7_8  and  C8_9 
REMARK    4  A    between atoms: C8_9  and  N2_10 
REMARK    5  A    between atoms: N2_10  and  C9_11 
ROOT
HETATM    1  C3  UNL     1      24.766   0.440  53.545  1.00  0.00     0.029 A 
HETATM    2  C4  UNL     1      23.785  -0.515  53.707  1.00  0.00     0.029 A 
HETATM    3  C5  UNL     1      22.548  -0.512  53.147  1.00  0.00     0.003 A 
HETATM    4  C6  UNL     1      22.245   0.558  52.330  1.00  0.00     0.009 A 
HETATM    5  C7  UNL     1      23.155   1.566  52.102  1.00  0.00    -0.038 A 
HETATM    6  C15 UNL     1      24.381   1.472  52.716  1.00  0.00     0.038 A 
ENDROOT
BRANCH   5   7
HETATM    7  C8  UNL     1      22.834   2.722  51.223  1.00  0.00     0.158 C 
BRANCH   7   8
HETATM    8  N2  UNL     1      23.478   2.599  49.936  1.00  0.00    -0.386 N 
HETATM    9  H10 UNL     1      23.220   1.844  49.238  1.00  0.00     0.160 HD
BRANCH   8  10
HETATM   10  C9  UNL     1      24.494   3.524  49.591  1.00  0.00     0.029 A 
HETATM   11  C10 UNL     1      25.814   3.126  49.703  1.00  0.00     0.029 A 
HETATM   12  C11 UNL     1      26.819   4.028  49.366  1.00  0.00     0.004 A 
HETATM   13  C12 UNL     1      26.520   5.304  48.926  1.00  0.00     0.019 A 
HETATM   14  C13 UNL     1      25.201   5.706  48.813  1.00  0.00     0.013 A 
HETATM   15 BR1  UNL     1      24.770   7.469  48.205  1.00  0.00    -0.051 Br
HETATM   16  C14 UNL     1      24.195   4.803  49.150  1.00  0.00     0.048 A 
ENDBRANCH   8  10
ENDBRANCH   7   8
ENDBRANCH   5   7
BRANCH   1  17
HETATM   17  N1  UNL     1      26.037   0.416  54.132  1.00  0.00    -0.369 N 
HETATM   18  H4  UNL     1      26.043   0.491  55.190  1.00  0.00     0.161 HD
BRANCH  17  19
HETATM   19  C2  UNL     1      27.331   0.308  53.569  1.00  0.00     0.136 A 
HETATM   20  C1  UNL     1      27.636   1.431  52.588  1.00  0.00     0.054 C 
HETATM   21  C16 UNL     1      27.557  -0.965  52.787  1.00  0.00     0.038 A 
HETATM   22  C17 UNL     1      28.622  -1.663  53.216  1.00  0.00     0.144 A 
HETATM   23  O1  UNL     1      29.198  -0.958  54.291  1.00  0.00    -0.289 OA
HETATM   24  C18 UNL     1      28.452   0.214  54.526  1.00  0.00     0.295 A 
HETATM   25  O2  UNL     1      28.643   1.087  55.387  1.00  0.00    -0.262 OA
ENDBRANCH  17  19
ENDBRANCH   1  17
TORSDOF 5
ENDMDL
MODEL 4
REMARK VINA RESULT:      -8.0      2.746      5.028
REMARK  5 active torsions:
REMARK  status: ('A' for Active; 'I' for Inactive)
REMARK    1  A    between atoms: C2_2  and  N1_3 
REMARK    2  A    between atoms: N1_3  and  C3_4 
REMARK    3  A    between atoms: C7_8  and  C8_9 
REMARK    4  A    between atoms: C8_9  and  N2_10 
REMARK    5  A    between atoms: N2_10  and  C9_11 
ROOT
HETATM    1  C3  UNL     1      25.151  -0.479  54.680  1.00  0.00     0.029 A 
HETATM    2  C4  UNL     1      24.431  -1.242  55.574  1.00  0.00     0.029 A 
HETATM    3  C5  UNL     1      23.117  -1.575  55.485  1.00  0.00     0.003 A 
HETATM    4  C6  UNL     1      22.435  -1.097  54.384  1.00  0.00     0.009 A 
HETATM    5  C7  UNL     1      23.062  -0.325  53.431  1.00  0.00    -0.038 A 
HETATM    6  C15 UNL     1      24.394  -0.044  53.613  1.00  0.00     0.038 A 
ENDROOT
BRANCH   5   7
HETATM    7  C8  UNL     1      22.332   0.192  52.243  1.00  0.00     0.158 C 
BRANCH   7   8
HETATM    8  N2  UNL     1      22.343   1.636  52.206  1.00  0.00    -0.386 N 
HETATM    9  H10 UNL     1      21.987   2.231  53.009  1.00  0.00     0.160 HD
BRANCH   8  10
HETATM   10  C9  UNL     1      22.849   2.284  51.054  1.00  0.00     0.029 A 
HETATM   11  C10 UNL     1      21.971   2.589  50.028  1.00  0.00     0.029 A 
HETATM   12  C11 UNL     1      22.460   3.226  48.892  1.00  0.00     0.004 A 
HETATM   13  C12 UNL     1      23.797   3.556  48.773  1.00  0.00     0.019 A 
HETATM   14  C13 UNL     1      24.678   3.252  49.796  1.00  0.00     0.013 A 
HETATM   15 BR1  UNL     1      26.533   3.701  49.646  1.00  0.00    -0.051 Br
HETATM   16  C14 UNL     1      24.189   2.614  50.933  1.00  0.00     0.048 A 
ENDBRANCH   8  10
ENDBRANCH   7   8
ENDBRANCH   5   7
BRANCH   1  17
HETATM   17  N1  UNL     1      26.507  -0.150  54.791  1.00  0.00    -0.369 N 
HETATM   18  H4  UNL     1      26.833   0.079  55.774  1.00  0.00     0.161 HD
BRANCH  17  19
HETATM   19  C2  UNL     1      27.537  -0.065  53.823  1.00  0.00     0.136 A 
HETATM   20  C1  UNL     1      27.205   0.910  52.703  1.00  0.00     0.054 C 
HETATM   21  C16 UNL     1      27.835  -1.372  53.127  1.00  0.00     0.038 A 
HETATM   22  C17 UNL     1      29.127  -1.732  53.216  1.00  0.00     0.144 A 
HETATM   23  O1  UNL     1      29.803  -0.741  53.956  1.00  0.00    -0.289 OA
HETATM   24  C18 UNL     1      28.884   0.259  54.333  1.00  0.00     0.295 A 
HETATM   25  O2  UNL     1      29.097   1.288  54.993  1.00  0.00    -0.262 OA
ENDBRANCH  17  19
ENDBRANCH   1  17
TORSDOF 5
ENDMDL
MODEL 5
REMARK VINA RESULT:      -8.0      3.434      5.977
REMARK  5 active torsions:
REMARK  status: ('A' for Active; 'I' for Inactive)
REMARK    1  A    between atoms: C2_2  and  N1_3 
REMARK    2  A    between atoms: N1_3  and  C3_4 
REMARK    3  A    between atoms: C7_8  and  C8_9 
REMARK    4  A    between atoms: C8_9  and  N2_10 
REMARK    5  A    between atoms: N2_10  and  C9_11 
ROOT
HETATM    1  C3  UNL     1      24.451   1.059  52.836  1.00  0.00     0.029 A 
HETATM    2  C4  UNL     1      23.332   0.269  52.993  1.00  0.00     0.029 A 
HETATM    3  C5  UNL     1      22.214   0.282  52.222  1.00  0.00     0.003 A 
HETATM    4  C6  UNL     1      22.199   1.179  51.174  1.00  0.00     0.009 A 
HETATM    5  C7  UNL     1      23.267   2.014  50.929  1.00  0.00    -0.038 A 
HETATM    6  C15 UNL     1      24.353   1.924  51.767  1.00  0.00     0.038 A 
ENDROOT
BRANCH   5   7
HETATM    7  C8  UNL     1      23.257   2.982  49.801  1.00  0.00     0.158 C 
BRANCH   7   8
HETATM    8  N2  UNL     1      23.754   4.275  50.212  1.00  0.00    -0.386 N 
HETATM    9  H10 UNL     1      23.262   4.871  50.939  1.00  0.00     0.160 HD
BRANCH   8  10
HETATM   10  C9  UNL     1      24.944   4.766  49.624  1.00  0.00     0.029 A 
HETATM   11  C10 UNL     1      26.053   3.939  49.586  1.00  0.00     0.029 A 
HETATM   12  C11 UNL     1      27.227   4.414  49.009  1.00  0.00     0.004 A 
HETATM   13  C12 UNL     1      27.301   5.688  48.478  1.00  0.00     0.019 A 
HETATM   14  C13 UNL     1      26.195   6.519  48.514  1.00  0.00     0.013 A 
HETATM   15 BR1  UNL     1      26.282   8.286  47.783  1.00  0.00    -0.051 Br
HETATM   16  C14 UNL     1      25.020   6.044  49.092  1.00  0.00     0.048 A 
ENDBRANCH   8  10
ENDBRANCH   7   8
ENDBRANCH   5   7
BRANCH   1  17
HETATM   17  N1  UNL     1      25.595   1.028  53.642  1.00  0.00    -0.369 N 
HETATM   18  H4  UNL     1      25.465   1.423  54.618  1.00  0.00     0.161 HD
BRANCH  17  19
HETATM   19  C2  UNL     1      26.908   0.561  53.394  1.00  0.00     0.136 A 
HETATM   20  C1  UNL     1      26.952  -0.509  52.312  1.00  0.00     0.054 C 
HETATM   21  C16 UNL     1      27.573  -0.071  54.594  1.00  0.00     0.038 A 
HETATM   22  C17 UNL     1      28.754   0.493  54.898  1.00  0.00     0.144 A 
HETATM   23  O1  UNL     1      28.994   1.524  53.969  1.00  0.00    -0.289 OA
HETATM   24  C18 UNL     1      27.914   1.591  53.066  1.00  0.00     0.295 A 
HETATM   25  O2  UNL     1      27.757   2.368  52.112  1.00  0.00    -0.262 OA
ENDBRANCH  17  19
ENDBRANCH   1  17
TORSDOF 5
ENDMDL
MODEL 6
REMARK VINA RESULT:      -8.0      2.888      5.151
REMARK  5 active torsions:
REMARK  status: ('A' for Active; 'I' for Inactive)
REMARK    1  A    between atoms: C2_2  and  N1_3 
REMARK    2  A    between atoms: N1_3  and  C3_4 
REMARK    3  A    between atoms: C7_8  and  C8_9 
REMARK    4  A    between atoms: C8_9  and  N2_10 
REMARK    5  A    between atoms: N2_10  and  C9_11 
ROOT
HETATM    1  C3  UNL     1      24.952  -0.695  54.348  1.00  0.00     0.029 A 
HETATM    2  C4  UNL     1      24.126  -1.316  55.260  1.00  0.00     0.029 A 
HETATM    3  C5  UNL     1      22.769  -1.271  55.290  1.00  0.00     0.003 A 
HETATM    4  C6  UNL     1      22.156  -0.524  54.304  1.00  0.00     0.009 A 
HETATM    5  C7  UNL     1      22.891   0.137  53.345  1.00  0.00    -0.038 A 
HETATM    6  C15 UNL     1      24.260   0.029  53.401  1.00  0.00     0.038 A 
ENDROOT
BRANCH   5   7
HETATM    7  C8  UNL     1      22.237   0.943  52.280  1.00  0.00     0.158 C 
BRANCH   7   8
HETATM    8  N2  UNL     1      23.188   1.358  51.275  1.00  0.00    -0.386 N 
HETATM    9  H10 UNL     1      23.638   0.676  50.598  1.00  0.00     0.160 HD
BRANCH   8  10
HETATM   10  C9  UNL     1      23.534   2.728  51.188  1.00  0.00     0.029 A 
HETATM   11  C10 UNL     1      22.831   3.637  51.960  1.00  0.00     0.029 A 
HETATM   12  C11 UNL     1      23.164   4.986  51.881  1.00  0.00     0.004 A 
HETATM   13  C12 UNL     1      24.177   5.428  51.051  1.00  0.00     0.019 A 
HETATM   14  C13 UNL     1      24.882   4.523  50.277  1.00  0.00     0.013 A 
HETATM   15 BR1  UNL     1      26.288   5.118  49.122  1.00  0.00    -0.051 Br
HETATM   16  C14 UNL     1      24.549   3.173  50.356  1.00  0.00     0.048 A 
ENDBRANCH   8  10
ENDBRANCH   7   8
ENDBRANCH   5   7
BRANCH   1  17
HETATM   17  N1  UNL     1      26.350  -0.757  54.336  1.00  0.00    -0.369 N 
HETATM   18  H4  UNL     1      26.779  -1.356  55.099  1.00  0.00     0.161 HD
BRANCH  17  19
HETATM   19  C2  UNL     1      27.311  -0.163  53.482  1.00  0.00     0.136 A 
HETATM   20  C1  UNL     1      26.821  -0.046  52.046  1.00  0.00     0.054 C 
HETATM   21  C16 UNL     1      28.609  -0.929  53.391  1.00  0.00     0.038 A 
HETATM   22  C17 UNL     1      29.683  -0.182  53.699  1.00  0.00     0.144 A 
HETATM   23  O1  UNL     1      29.232   1.114  54.018  1.00  0.00    -0.289 OA
HETATM   24  C18 UNL     1      27.828   1.155  53.903  1.00  0.00     0.295 A 
HETATM   25  O2  UNL     1      27.068   2.115  54.105  1.00  0.00    -0.262 OA
ENDBRANCH  17  19
ENDBRANCH   1  17
TORSDOF 5
ENDMDL
MODEL 7
REMARK VINA RESULT:      -7.9      2.641      4.533
REMARK  5 active torsions:
REMARK  status: ('A' for Active; 'I' for Inactive)
REMARK    1  A    between atoms: C2_2  and  N1_3 
REMARK    2  A    between atoms: N1_3  and  C3_4 
REMARK    3  A    between atoms: C7_8  and  C8_9 
REMARK    4  A    between atoms: C8_9  and  N2_10 
REMARK    5  A    between atoms: N2_10  and  C9_11 
ROOT
HETATM    1  C3  UNL     1      23.655  -0.071  53.437  1.00  0.00     0.029 A 
HETATM    2  C4  UNL     1      23.947  -0.787  54.578  1.00  0.00     0.029 A 
HETATM    3  C5  UNL     1      23.064  -1.449  55.370  1.00  0.00     0.003 A 
HETATM    4  C6  UNL     1      21.738  -1.398  54.991  1.00  0.00     0.009 A 
HETATM    5  C7  UNL     1      21.341  -0.710  53.866  1.00  0.00    -0.038 A 
HETATM    6  C15 UNL     1      22.311  -0.073  53.131  1.00  0.00     0.038 A 
ENDROOT
BRANCH   5   7
HETATM    7  C8  UNL     1      19.913  -0.652  53.451  1.00  0.00     0.158 C 
BRANCH   7   8
HETATM    8  N2  UNL     1      19.155  -1.743  54.020  1.00  0.00    -0.386 N 
HETATM    9  H10 UNL     1      19.492  -2.295  54.861  1.00  0.00     0.160 HD
BRANCH   8  10
HETATM   10  C9  UNL     1      17.914  -2.089  53.433  1.00  0.00     0.029 A 
HETATM   11  C10 UNL     1      17.408  -3.357  53.658  1.00  0.00     0.029 A 
HETATM   12  C11 UNL     1      16.188  -3.705  53.085  1.00  0.00     0.004 A 
HETATM   13  C12 UNL     1      15.482  -2.812  52.302  1.00  0.00     0.019 A 
HETATM   14  C13 UNL     1      15.985  -1.543  52.074  1.00  0.00     0.013 A 
HETATM   15 BR1  UNL     1      15.020  -0.293  50.992  1.00  0.00    -0.051 Br
HETATM   16  C14 UNL     1      17.206  -1.194  52.647  1.00  0.00     0.048 A 
ENDBRANCH   8  10
ENDBRANCH   7   8
ENDBRANCH   5   7
BRANCH   1  17
HETATM   17  N1  UNL     1      24.582   0.602  52.634  1.00  0.00    -0.369 N 
HETATM   18  H4  UNL     1      24.162   1.293  51.948  1.00  0.00     0.161 HD
BRANCH  17  19
HETATM   19  C2  UNL     1      25.995   0.532  52.568  1.00  0.00     0.136 A 
HETATM   20  C1  UNL     1      26.581   1.514  51.564  1.00  0.00     0.054 C 
HETATM   21  C16 UNL     1      26.524  -0.819  52.146  1.00  0.00     0.038 A 
HETATM   22  C17 UNL     1      27.398  -1.338  53.025  1.00  0.00     0.144 A 
HETATM   23  O1  UNL     1      27.539  -0.424  54.088  1.00  0.00    -0.289 OA
HETATM   24  C18 UNL     1      26.715   0.694  53.846  1.00  0.00     0.295 A 
HETATM   25  O2  UNL     1      26.564   1.703  54.552  1.00  0.00    -0.262 OA
ENDBRANCH  17  19
ENDBRANCH   1  17
TORSDOF 5
ENDMDL
MODEL 8
REMARK VINA RESULT:      -7.8      3.284      5.553
REMARK  5 active torsions:
REMARK  status: ('A' for Active; 'I' for Inactive)
REMARK    1  A    between atoms: C2_2  and  N1_3 
REMARK    2  A    between atoms: N1_3  and  C3_4 
REMARK    3  A    between atoms: C7_8  and  C8_9 
REMARK    4  A    between atoms: C8_9  and  N2_10 
REMARK    5  A    between atoms: N2_10  and  C9_11 
ROOT
HETATM    1  C3  UNL     1      24.688   0.524  53.495  1.00  0.00     0.029 A 
HETATM    2  C4  UNL     1      23.731  -0.468  53.455  1.00  0.00     0.029 A 
HETATM    3  C5  UNL     1      22.442  -0.337  53.049  1.00  0.00     0.003 A 
HETATM    4  C6  UNL     1      22.052   0.920  52.635  1.00  0.00     0.009 A 
HETATM    5  C7  UNL     1      22.931   1.980  52.636  1.00  0.00    -0.038 A 
HETATM    6  C15 UNL     1      24.215   1.745  53.065  1.00  0.00     0.038 A 
ENDROOT
BRANCH   5   7
HETATM    7  C8  UNL     1      22.516   3.337  52.190  1.00  0.00     0.158 C 
BRANCH   7   8
HETATM    8  N2  UNL     1      22.949   3.602  50.838  1.00  0.00    -0.386 N 
HETATM    9  H10 UNL     1      22.617   3.029  50.009  1.00  0.00     0.160 HD
BRANCH   8  10
HETATM   10  C9  UNL     1      23.853   4.667  50.608  1.00  0.00     0.029 A 
HETATM   11  C10 UNL     1      23.563   5.908  51.148  1.00  0.00     0.029 A 
HETATM   12  C11 UNL     1      24.446   6.961  50.927  1.00  0.00     0.004 A 
HETATM   13  C12 UNL     1      25.597   6.787  50.183  1.00  0.00     0.019 A 
HETATM   14  C13 UNL     1      25.891   5.549  49.639  1.00  0.00     0.013 A 
HETATM   15 BR1  UNL     1      27.481   5.292  48.605  1.00  0.00    -0.051 Br
HETATM   16  C14 UNL     1      25.007   4.495  49.861  1.00  0.00     0.048 A 
ENDBRANCH   8  10
ENDBRANCH   7   8
ENDBRANCH   5   7
BRANCH   1  17
HETATM   17  N1  UNL     1      26.013   0.366  53.916  1.00  0.00    -0.369 N 
HETATM   18  H4  UNL     1      26.133   0.141  54.945  1.00  0.00     0.161 HD
BRANCH  17  19
HETATM   19  C2  UNL     1      27.240   0.451  53.214  1.00  0.00     0.136 A 
HETATM   20  C1  UNL     1      27.049   0.827  51.752  1.00  0.00     0.054 C 
HETATM   21  C16 UNL     1      28.023  -0.840  53.185  1.00  0.00     0.038 A 
HETATM   22  C17 UNL     1      29.273  -0.707  53.658  1.00  0.00     0.144 A 
HETATM   23  O1  UNL     1      29.451   0.637  54.041  1.00  0.00    -0.289 OA
HETATM   24  C18 UNL     1      28.260   1.348  53.792  1.00  0.00     0.295 A 
HETATM   25  O2  UNL     1      28.024   2.549  54.000  1.00  0.00    -0.262 OA
ENDBRANCH  17  19
ENDBRANCH   1  17
TORSDOF 5
ENDMDL
MODEL 9
REMARK VINA RESULT:      -7.8      5.429      7.191
REMARK  5 active torsions:
REMARK  status: ('A' for Active; 'I' for Inactive)
REMARK    1  A    between atoms: C2_2  and  N1_3 
REMARK    2  A    between atoms: N1_3  and  C3_4 
REMARK    3  A    between atoms: C7_8  and  C8_9 
REMARK    4  A    between atoms: C8_9  and  N2_10 
REMARK    5  A    between atoms: N2_10  and  C9_11 
ROOT
HETATM    1  C3  UNL     1      28.805   6.313  47.929  1.00  0.00     0.029 A 
HETATM    2  C4  UNL     1      27.803   7.252  47.804  1.00  0.00     0.029 A 
HETATM    3  C5  UNL     1      26.499   7.100  48.152  1.00  0.00     0.003 A 
HETATM    4  C6  UNL     1      26.143   5.878  48.688  1.00  0.00     0.009 A 
HETATM    5  C7  UNL     1      27.069   4.873  48.856  1.00  0.00    -0.038 A 
HETATM    6  C15 UNL     1      28.364   5.125  48.472  1.00  0.00     0.038 A 
ENDROOT
BRANCH   5   7
HETATM    7  C8  UNL     1      26.692   3.555  49.433  1.00  0.00     0.158 C 
BRANCH   7   8
HETATM    8  N2  UNL     1      26.504   3.640  50.863  1.00  0.00    -0.386 N 
HETATM    9  H10 UNL     1      26.819   4.479  51.431  1.00  0.00     0.160 HD
BRANCH   8  10
HETATM   10  C9  UNL     1      25.876   2.563  51.533  1.00  0.00     0.029 A 
HETATM   11  C10 UNL     1      24.589   2.742  52.010  1.00  0.00     0.029 A 
HETATM   12  C11 UNL     1      23.964   1.688  52.670  1.00  0.00     0.004 A 
HETATM   13  C12 UNL     1      24.603   0.477  52.854  1.00  0.00     0.019 A 
HETATM   14  C13 UNL     1      25.890   0.294  52.380  1.00  0.00     0.013 A 
HETATM   15 BR1  UNL     1      26.790  -1.378  52.628  1.00  0.00    -0.051 Br
HETATM   16  C14 UNL     1      26.516   1.348  51.719  1.00  0.00     0.048 A 
ENDBRANCH   8  10
ENDBRANCH   7   8
ENDBRANCH   5   7
BRANCH   1  17
HETATM   17  N1  UNL     1      30.144   6.493  47.564  1.00  0.00    -0.369 N 
HETATM   18  H4  UNL     1      30.388   6.171  46.584  1.00  0.00     0.161 HD
BRANCH  17  19
HETATM   19  C2  UNL     1      31.247   7.032  48.270  1.00  0.00     0.136 A 
HETATM   20  C1  UNL     1      30.856   8.208  49.152  1.00  0.00     0.054 C 
HETATM   21  C16 UNL     1      32.347   7.559  47.380  1.00  0.00     0.038 A 
HETATM   22  C17 UNL     1      33.545   7.011  47.644  1.00  0.00     0.144 A 
HETATM   23  O1  UNL     1      33.378   6.092  48.698  1.00  0.00    -0.289 OA
HETATM   24  C18 UNL     1      32.024   6.079  49.088  1.00  0.00     0.295 A 
HETATM   25  O2  UNL     1      31.487   5.399  49.976  1.00  0.00    -0.262 OA
ENDBRANCH  17  19
ENDBRANCH   1  17
TORSDOF 5
ENDMDL
