MODEL 1
REMARK VINA RESULT:      -9.3      0.000      0.000
REMARK  6 active torsions:
REMARK  status: ('A' for Active; 'I' for Inactive)
REMARK    1  A    between atoms: C1_2  and  C2_3 
REMARK       I    between atoms: C1_2  and  N2_12 
REMARK    2  A    between atoms: C3_4  and  C4_5 
REMARK    3  A    between atoms: C4_5  and  C5_6 
REMARK    4  A    between atoms: N2_12  and  C10_13 
REMARK    5  A    between atoms: C13_16  and  N3_17 
REMARK    6  A    between atoms: N3_17  and  C14_18 
ROOT
HETATM    1  C10 UNL     1      24.501   3.388  50.694  1.00  0.00     0.131 A 
HETATM    2  C11 UNL     1      24.698   2.551  51.768  1.00  0.00     0.068 A 
HETATM    3  C12 UNL     1      23.753   1.576  52.003  1.00  0.00     0.044 A 
HETATM    4  C13 UNL     1      23.970   0.739  53.087  1.00  0.00     0.142 A 
HETATM    5  N4  UNL     1      23.034  -0.195  53.285  1.00  0.00    -0.224 NA
HETATM    6  C20 UNL     1      21.955  -0.334  52.504  1.00  0.00     0.236 A 
HETATM    7  N5  UNL     1      21.764   0.500  51.446  1.00  0.00    -0.240 NA
HETATM    8  C21 UNL     1      22.656   1.466  51.177  1.00  0.00     0.089 A 
HETATM    9  C22 UNL     1      22.461   2.323  50.085  1.00  0.00     0.151 A 
HETATM   10  N6  UNL     1      23.413   3.271  49.882  1.00  0.00    -0.241 NA
ENDROOT
BRANCH   1  11
HETATM   11  N2  UNL     1      25.305   4.486  50.204  1.00  0.00    -0.301 N 
HETATM   12  C1  UNL     1      26.417   3.883  49.505  1.00  0.00     0.302 C 
HETATM   13  O1  UNL     1      26.660   2.664  49.350  1.00  0.00    -0.258 OA
HETATM   14  H13 UNL     1      25.259   5.526  50.244  1.00  0.00     0.171 HD
BRANCH  12  15
HETATM   15  C2  UNL     1      27.414   4.745  48.881  1.00  0.00    -0.005 C 
HETATM   16  C3  UNL     1      28.264   5.463  48.369  1.00  0.00    -0.094 C 
BRANCH  16  17
HETATM   17  C4  UNL     1      29.294   6.307  47.770  1.00  0.00     0.130 C 
BRANCH  17  18
HETATM   18  C5  UNL     1      28.863   7.749  47.903  1.00  0.00     0.231 C 
HETATM   19  C6  UNL     1      29.868   8.624  47.233  1.00  0.00     0.036 C 
HETATM   20  C7  UNL     1      30.676   9.460  48.222  1.00  0.00     0.004 C 
HETATM   21  C8  UNL     1      29.706  10.273  49.042  1.00  0.00     0.030 C 
HETATM   22  C9  UNL     1      28.551   9.465  49.553  1.00  0.00     0.270 C 
HETATM   23  N1  UNL     1      28.706   8.040  49.310  1.00  0.00     0.088 N 
HETATM   24  H12 UNL     1      27.872   7.552  49.668  1.00  0.00     0.316 HD
ENDBRANCH  17  18
ENDBRANCH  16  17
ENDBRANCH  12  15
ENDBRANCH   1  11
BRANCH   4  25
HETATM   25  N3  UNL     1      25.153   0.971  53.886  1.00  0.00    -0.340 N 
HETATM   26  H15 UNL     1      25.195   1.722  54.587  1.00  0.00     0.167 HD
BRANCH  25  27
HETATM   27  C14 UNL     1      26.175   0.022  53.537  1.00  0.00     0.035 A 
HETATM   28  C15 UNL     1      25.969  -1.236  52.981  1.00  0.00     0.032 A 
HETATM   29  C16 UNL     1      27.029  -2.043  52.717  1.00  0.00     0.046 A 
HETATM   30  C17 UNL     1      28.334  -1.703  52.964  1.00  0.00     0.138 A 
HETATM   31  F1  UNL     1      29.349  -2.571  52.660  1.00  0.00    -0.204 F 
HETATM   32  C18 UNL     1      28.540  -0.433  53.526  1.00  0.00     0.074 A 
HETATM   33 CL1  UNL     1      30.231  -0.063  53.823  1.00  0.00    -0.081 Cl
HETATM   34  C19 UNL     1      27.497   0.399  53.802  1.00  0.00     0.056 A 
ENDBRANCH  25  27
ENDBRANCH   4  25
TORSDOF 6
ENDMDL
MODEL 2
REMARK VINA RESULT:      -9.2      1.691      2.325
REMARK  6 active torsions:
REMARK  status: ('A' for Active; 'I' for Inactive)
REMARK    1  A    between atoms: C1_2  and  C2_3 
REMARK       I    between atoms: C1_2  and  N2_12 
REMARK    2  A    between atoms: C3_4  and  C4_5 
REMARK    3  A    between atoms: C4_5  and  C5_6 
REMARK    4  A    between atoms: N2_12  and  C10_13 
REMARK    5  A    between atoms: C13_16  and  N3_17 
REMARK    6  A    between atoms: N3_17  and  C14_18 
ROOT
HETATM    1  C10 UNL     1      24.781   4.371  49.967  1.00  0.00     0.131 A 
HETATM    2  C11 UNL     1      25.006   3.761  51.180  1.00  0.00     0.068 A 
HETATM    3  C12 UNL     1      24.207   2.691  51.517  1.00  0.00     0.044 A 
HETATM    4  C13 UNL     1      24.451   2.086  52.741  1.00  0.00     0.142 A 
HETATM    5  N4  UNL     1      23.658   1.051  53.036  1.00  0.00    -0.224 NA
HETATM    6  C20 UNL     1      22.690   0.610  52.223  1.00  0.00     0.236 A 
HETATM    7  N5  UNL     1      22.469   1.220  51.026  1.00  0.00    -0.240 NA
HETATM    8  C21 UNL     1      23.221   2.267  50.653  1.00  0.00     0.089 A 
HETATM    9  C22 UNL     1      22.997   2.894  49.420  1.00  0.00     0.151 A 
HETATM   10  N6  UNL     1      23.803   3.945  49.119  1.00  0.00    -0.241 NA
ENDROOT
BRANCH   1  11
HETATM   11  N2  UNL     1      25.447   5.497  49.348  1.00  0.00    -0.301 N 
HETATM   12  C1  UNL     1      26.758   5.024  48.969  1.00  0.00     0.302 C 
HETATM   13  O1  UNL     1      27.244   3.882  49.139  1.00  0.00    -0.258 OA
HETATM   14  H13 UNL     1      25.204   6.488  49.137  1.00  0.00     0.171 HD
BRANCH  12  15
HETATM   15  C2  UNL     1      27.677   5.939  48.303  1.00  0.00    -0.005 C 
HETATM   16  C3  UNL     1      28.441   6.705  47.727  1.00  0.00    -0.094 C 
BRANCH  16  17
HETATM   17  C4  UNL     1      29.336   7.617  47.021  1.00  0.00     0.130 C 
BRANCH  17  18
HETATM   18  C5  UNL     1      30.712   7.497  47.631  1.00  0.00     0.231 C 
HETATM   19  C6  UNL     1      31.404   6.310  47.047  1.00  0.00     0.036 C 
HETATM   20  C7  UNL     1      31.577   5.174  48.050  1.00  0.00     0.004 C 
HETATM   21  C8  UNL     1      32.334   5.715  49.238  1.00  0.00     0.030 C 
HETATM   22  C9  UNL     1      31.800   7.031  49.720  1.00  0.00     0.270 C 
HETATM   23  N1  UNL     1      30.560   7.413  49.066  1.00  0.00     0.088 N 
HETATM   24  H12 UNL     1      30.263   8.330  49.431  1.00  0.00     0.316 HD
ENDBRANCH  17  18
ENDBRANCH  16  17
ENDBRANCH  12  15
ENDBRANCH   1  11
BRANCH   4  25
HETATM   25  N3  UNL     1      25.505   2.639  53.564  1.00  0.00    -0.340 N 
HETATM   26  H15 UNL     1      25.380   3.513  54.090  1.00  0.00     0.167 HD
BRANCH  25  27
HETATM   27  C14 UNL     1      26.667   1.795  53.505  1.00  0.00     0.035 A 
HETATM   28  C15 UNL     1      27.982   2.197  53.717  1.00  0.00     0.032 A 
HETATM   29  C16 UNL     1      28.992   1.296  53.612  1.00  0.00     0.046 A 
HETATM   30  C17 UNL     1      28.812  -0.027  53.301  1.00  0.00     0.138 A 
HETATM   31  F1  UNL     1      29.885  -0.876  53.223  1.00  0.00    -0.204 F 
HETATM   32  C18 UNL     1      27.485  -0.431  53.087  1.00  0.00     0.074 A 
HETATM   33 CL1  UNL     1      27.325  -2.134  52.688  1.00  0.00    -0.081 Cl
HETATM   34  C19 UNL     1      26.450   0.450  53.186  1.00  0.00     0.056 A 
ENDBRANCH  25  27
ENDBRANCH   4  25
TORSDOF 6
ENDMDL
MODEL 3
REMARK VINA RESULT:      -9.1      2.748      3.631
REMARK  6 active torsions:
REMARK  status: ('A' for Active; 'I' for Inactive)
REMARK    1  A    between atoms: C1_2  and  C2_3 
REMARK       I    between atoms: C1_2  and  N2_12 
REMARK    2  A    between atoms: C3_4  and  C4_5 
REMARK    3  A    between atoms: C4_5  and  C5_6 
REMARK    4  A    between atoms: N2_12  and  C10_13 
REMARK    5  A    between atoms: C13_16  and  N3_17 
REMARK    6  A    between atoms: N3_17  and  C14_18 
ROOT
HETATM    1  C10 UNL     1      25.237   5.283  49.688  1.00  0.00     0.131 A 
HETATM    2  C11 UNL     1      24.944   4.651  50.873  1.00  0.00     0.068 A 
HETATM    3  C12 UNL     1      23.681   4.121  51.022  1.00  0.00     0.044 A 
HETATM    4  C13 UNL     1      23.404   3.483  52.222  1.00  0.00     0.142 A 
HETATM    5  N4  UNL     1      22.170   2.981  52.333  1.00  0.00    -0.224 NA
HETATM    6  C20 UNL     1      21.248   3.074  51.366  1.00  0.00     0.236 A 
HETATM    7  N5  UNL     1      21.543   3.704  50.196  1.00  0.00    -0.240 NA
HETATM    8  C21 UNL     1      22.760   4.237  50.004  1.00  0.00     0.089 A 
HETATM    9  C22 UNL     1      23.065   4.885  48.799  1.00  0.00     0.151 A 
HETATM   10  N6  UNL     1      24.320   5.393  48.686  1.00  0.00    -0.241 NA
ENDROOT
BRANCH   1  11
HETATM   11  N2  UNL     1      26.456   5.925  49.246  1.00  0.00    -0.301 N 
HETATM   12  C1  UNL     1      27.367   4.857  48.904  1.00  0.00     0.302 C 
HETATM   13  O1  UNL     1      27.167   3.623  48.975  1.00  0.00    -0.258 OA
HETATM   14  H13 UNL     1      26.789   6.907  49.133  1.00  0.00     0.171 HD
BRANCH  12  15
HETATM   15  C2  UNL     1      28.697   5.191  48.409  1.00  0.00    -0.005 C 
HETATM   16  C3  UNL     1      29.817   5.483  48.007  1.00  0.00    -0.094 C 
BRANCH  16  17
HETATM   17  C4  UNL     1      31.156   5.841  47.549  1.00  0.00     0.130 C 
BRANCH  17  18
HETATM   18  C5  UNL     1      32.140   4.870  48.159  1.00  0.00     0.231 C 
HETATM   19  C6  UNL     1      33.448   5.561  48.358  1.00  0.00     0.036 C 
HETATM   20  C7  UNL     1      34.534   5.053  47.415  1.00  0.00     0.004 C 
HETATM   21  C8  UNL     1      34.667   3.564  47.620  1.00  0.00     0.030 C 
HETATM   22  C9  UNL     1      33.345   2.857  47.648  1.00  0.00     0.270 C 
HETATM   23  N1  UNL     1      32.234   3.722  47.286  1.00  0.00     0.088 N 
HETATM   24  H12 UNL     1      31.361   3.178  47.344  1.00  0.00     0.316 HD
ENDBRANCH  17  18
ENDBRANCH  16  17
ENDBRANCH  12  15
ENDBRANCH   1  11
BRANCH   4  25
HETATM   25  N3  UNL     1      24.453   3.445  53.218  1.00  0.00    -0.340 N 
HETATM   26  H15 UNL     1      24.655   4.250  53.824  1.00  0.00     0.167 HD
BRANCH  25  27
HETATM   27  C14 UNL     1      25.106   2.164  53.194  1.00  0.00     0.035 A 
HETATM   28  C15 UNL     1      24.592   0.993  52.646  1.00  0.00     0.032 A 
HETATM   29  C16 UNL     1      25.310  -0.157  52.708  1.00  0.00     0.046 A 
HETATM   30  C17 UNL     1      26.547  -0.260  53.292  1.00  0.00     0.138 A 
HETATM   31  F1  UNL     1      27.212  -1.458  53.306  1.00  0.00    -0.204 F 
HETATM   32  C18 UNL     1      27.063   0.922  53.845  1.00  0.00     0.074 A 
HETATM   33 CL1  UNL     1      28.645   0.719  54.581  1.00  0.00    -0.081 Cl
HETATM   34  C19 UNL     1      26.367   2.092  53.798  1.00  0.00     0.056 A 
ENDBRANCH  25  27
ENDBRANCH   4  25
TORSDOF 6
ENDMDL
MODEL 4
REMARK VINA RESULT:      -8.9      2.743      3.557
REMARK  6 active torsions:
REMARK  status: ('A' for Active; 'I' for Inactive)
REMARK    1  A    between atoms: C1_2  and  C2_3 
REMARK       I    between atoms: C1_2  and  N2_12 
REMARK    2  A    between atoms: C3_4  and  C4_5 
REMARK    3  A    between atoms: C4_5  and  C5_6 
REMARK    4  A    between atoms: N2_12  and  C10_13 
REMARK    5  A    between atoms: C13_16  and  N3_17 
REMARK    6  A    between atoms: N3_17  and  C14_18 
ROOT
HETATM    1  C10 UNL     1      23.584   4.050  51.177  1.00  0.00     0.131 A 
HETATM    2  C11 UNL     1      22.905   2.854  51.192  1.00  0.00     0.068 A 
HETATM    3  C12 UNL     1      21.542   2.893  51.389  1.00  0.00     0.044 A 
HETATM    4  C13 UNL     1      20.874   1.678  51.397  1.00  0.00     0.142 A 
HETATM    5  N4  UNL     1      19.553   1.752  51.591  1.00  0.00    -0.224 NA
HETATM    6  C20 UNL     1      18.899   2.907  51.767  1.00  0.00     0.236 A 
HETATM    7  N5  UNL     1      19.576   4.087  51.756  1.00  0.00    -0.240 NA
HETATM    8  C21 UNL     1      20.905   4.102  51.568  1.00  0.00     0.089 A 
HETATM    9  C22 UNL     1      21.604   5.316  51.553  1.00  0.00     0.151 A 
HETATM   10  N6  UNL     1      22.945   5.241  51.354  1.00  0.00    -0.241 NA
ENDROOT
BRANCH   1  11
HETATM   11  N2  UNL     1      24.993   4.325  50.994  1.00  0.00    -0.301 N 
HETATM   12  C1  UNL     1      25.166   4.589  49.584  1.00  0.00     0.302 C 
HETATM   13  O1  UNL     1      24.293   4.579  48.686  1.00  0.00    -0.258 OA
HETATM   14  H13 UNL     1      25.835   4.369  51.606  1.00  0.00     0.171 HD
BRANCH  12  15
HETATM   15  C2  UNL     1      26.495   4.913  49.081  1.00  0.00    -0.005 C 
HETATM   16  C3  UNL     1      27.609   5.203  48.661  1.00  0.00    -0.094 C 
BRANCH  16  17
HETATM   17  C4  UNL     1      28.935   5.571  48.171  1.00  0.00     0.130 C 
BRANCH  17  18
HETATM   18  C5  UNL     1      29.019   7.078  48.120  1.00  0.00     0.231 C 
HETATM   19  C6  UNL     1      29.429   7.498  46.748  1.00  0.00     0.036 C 
HETATM   20  C7  UNL     1      30.841   8.073  46.703  1.00  0.00     0.004 C 
HETATM   21  C8  UNL     1      30.902   9.231  47.668  1.00  0.00     0.030 C 
HETATM   22  C9  UNL     1      30.292   8.913  49.001  1.00  0.00     0.270 C 
HETATM   23  N1  UNL     1      29.944   7.509  49.143  1.00  0.00     0.088 N 
HETATM   24  H12 UNL     1      29.516   7.368  50.070  1.00  0.00     0.316 HD
ENDBRANCH  17  18
ENDBRANCH  16  17
ENDBRANCH  12  15
ENDBRANCH   1  11
BRANCH   4  25
HETATM   25  N3  UNL     1      21.662   0.478  51.216  1.00  0.00    -0.340 N 
HETATM   26  H15 UNL     1      21.926   0.139  50.283  1.00  0.00     0.167 HD
BRANCH  25  27
HETATM   27  C14 UNL     1      21.977  -0.100  52.494  1.00  0.00     0.035 A 
HETATM   28  C15 UNL     1      21.062  -0.609  53.411  1.00  0.00     0.032 A 
HETATM   29  C16 UNL     1      21.497  -1.112  54.595  1.00  0.00     0.046 A 
HETATM   30  C17 UNL     1      22.814  -1.158  54.973  1.00  0.00     0.138 A 
HETATM   31  F1  UNL     1      23.172  -1.690  56.184  1.00  0.00    -0.204 F 
HETATM   32  C18 UNL     1      23.735  -0.643  54.048  1.00  0.00     0.074 A 
HETATM   33 CL1  UNL     1      25.401  -0.726  54.597  1.00  0.00    -0.081 Cl
HETATM   34  C19 UNL     1      23.330  -0.132  52.851  1.00  0.00     0.056 A 
ENDBRANCH  25  27
ENDBRANCH   4  25
TORSDOF 6
ENDMDL
MODEL 5
REMARK VINA RESULT:      -8.9      3.494      9.419
REMARK  6 active torsions:
REMARK  status: ('A' for Active; 'I' for Inactive)
REMARK    1  A    between atoms: C1_2  and  C2_3 
REMARK       I    between atoms: C1_2  and  N2_12 
REMARK    2  A    between atoms: C3_4  and  C4_5 
REMARK    3  A    between atoms: C4_5  and  C5_6 
REMARK    4  A    between atoms: N2_12  and  C10_13 
REMARK    5  A    between atoms: C13_16  and  N3_17 
REMARK    6  A    between atoms: N3_17  and  C14_18 
ROOT
HETATM    1  C10 UNL     1      27.850   6.951  48.461  1.00  0.00     0.131 A 
HETATM    2  C11 UNL     1      29.213   7.032  48.622  1.00  0.00     0.068 A 
HETATM    3  C12 UNL     1      29.932   7.724  47.672  1.00  0.00     0.044 A 
HETATM    4  C13 UNL     1      31.305   7.798  47.852  1.00  0.00     0.142 A 
HETATM    5  N4  UNL     1      31.970   8.476  46.913  1.00  0.00    -0.224 NA
HETATM    6  C20 UNL     1      31.375   9.054  45.861  1.00  0.00     0.236 A 
HETATM    7  N5  UNL     1      30.026   8.968  45.705  1.00  0.00    -0.240 NA
HETATM    8  C21 UNL     1      29.283   8.304  46.604  1.00  0.00     0.089 A 
HETATM    9  C22 UNL     1      27.893   8.216  46.445  1.00  0.00     0.151 A 
HETATM   10  N6  UNL     1      27.216   7.529  47.401  1.00  0.00    -0.241 NA
ENDROOT
BRANCH   1  11
HETATM   11  N2  UNL     1      26.847   6.305  49.280  1.00  0.00    -0.301 N 
HETATM   12  C1  UNL     1      27.079   4.886  49.147  1.00  0.00     0.302 C 
HETATM   13  O1  UNL     1      27.957   4.310  48.463  1.00  0.00    -0.258 OA
HETATM   14  H13 UNL     1      26.061   6.617  49.890  1.00  0.00     0.171 HD
BRANCH  12  15
HETATM   15  C2  UNL     1      26.222   3.956  49.872  1.00  0.00    -0.005 C 
HETATM   16  C3  UNL     1      25.488   3.183  50.476  1.00  0.00    -0.094 C 
BRANCH  16  17
HETATM   17  C4  UNL     1      24.593   2.270  51.181  1.00  0.00     0.130 C 
BRANCH  17  18
HETATM   18  C5  UNL     1      25.337   1.696  52.363  1.00  0.00     0.231 C 
HETATM   19  C6  UNL     1      26.632   1.122  51.894  1.00  0.00     0.036 C 
HETATM   20  C7  UNL     1      26.665  -0.401  51.968  1.00  0.00     0.004 C 
HETATM   21  C8  UNL     1      26.377  -0.802  53.394  1.00  0.00     0.030 C 
HETATM   22  C9  UNL     1      25.203  -0.075  53.979  1.00  0.00     0.270 C 
HETATM   23  N1  UNL     1      24.482   0.718  52.997  1.00  0.00     0.088 N 
HETATM   24  H12 UNL     1      23.705   1.202  53.471  1.00  0.00     0.316 HD
ENDBRANCH  17  18
ENDBRANCH  16  17
ENDBRANCH  12  15
ENDBRANCH   1  11
BRANCH   4  25
HETATM   25  N3  UNL     1      31.865   7.130  49.007  1.00  0.00    -0.340 N 
HETATM   26  H15 UNL     1      31.585   7.376  49.965  1.00  0.00     0.167 HD
BRANCH  25  27
HETATM   27  C14 UNL     1      32.816   6.137  48.587  1.00  0.00     0.035 A 
HETATM   28  C15 UNL     1      34.201   6.259  48.631  1.00  0.00     0.032 A 
HETATM   29  C16 UNL     1      34.986   5.246  48.182  1.00  0.00     0.046 A 
HETATM   30  C17 UNL     1      34.504   4.069  47.670  1.00  0.00     0.138 A 
HETATM   31  F1  UNL     1      35.364   3.091  47.246  1.00  0.00    -0.204 F 
HETATM   32  C18 UNL     1      33.107   3.948  47.625  1.00  0.00     0.074 A 
HETATM   33 CL1  UNL     1      32.555   2.422  46.953  1.00  0.00    -0.081 Cl
HETATM   34  C19 UNL     1      32.292   4.947  48.068  1.00  0.00     0.056 A 
ENDBRANCH  25  27
ENDBRANCH   4  25
TORSDOF 6
ENDMDL
MODEL 6
REMARK VINA RESULT:      -8.9      1.651      2.010
REMARK  6 active torsions:
REMARK  status: ('A' for Active; 'I' for Inactive)
REMARK    1  A    between atoms: C1_2  and  C2_3 
REMARK       I    between atoms: C1_2  and  N2_12 
REMARK    2  A    between atoms: C3_4  and  C4_5 
REMARK    3  A    between atoms: C4_5  and  C5_6 
REMARK    4  A    between atoms: N2_12  and  C10_13 
REMARK    5  A    between atoms: C13_16  and  N3_17 
REMARK    6  A    between atoms: N3_17  and  C14_18 
ROOT
HETATM    1  C10 UNL     1      23.960   3.910  49.597  1.00  0.00     0.131 A 
HETATM    2  C11 UNL     1      23.957   3.263  50.811  1.00  0.00     0.068 A 
HETATM    3  C12 UNL     1      23.110   2.187  50.963  1.00  0.00     0.044 A 
HETATM    4  C13 UNL     1      23.123   1.545  52.191  1.00  0.00     0.142 A 
HETATM    5  N4  UNL     1      22.290   0.506  52.304  1.00  0.00    -0.224 NA
HETATM    6  C20 UNL     1      21.489   0.094  51.313  1.00  0.00     0.236 A 
HETATM    7  N5  UNL     1      21.493   0.740  50.115  1.00  0.00    -0.240 NA
HETATM    8  C21 UNL     1      22.300   1.795  49.919  1.00  0.00     0.089 A 
HETATM    9  C22 UNL     1      22.307   2.459  48.686  1.00  0.00     0.151 A 
HETATM   10  N6  UNL     1      23.155   3.514  48.570  1.00  0.00    -0.241 NA
ENDROOT
BRANCH   1  11
HETATM   11  N2  UNL     1      24.727   5.050  49.145  1.00  0.00    -0.301 N 
HETATM   12  C1  UNL     1      26.093   4.592  49.038  1.00  0.00     0.302 C 
HETATM   13  O1  UNL     1      26.545   3.451  49.288  1.00  0.00    -0.258 OA
HETATM   14  H13 UNL     1      24.524   6.043  48.903  1.00  0.00     0.171 HD
BRANCH  12  15
HETATM   15  C2  UNL     1      27.120   5.525  48.590  1.00  0.00    -0.005 C 
HETATM   16  C3  UNL     1      27.980   6.304  48.196  1.00  0.00    -0.094 C 
BRANCH  16  17
HETATM   17  C4  UNL     1      28.995   7.231  47.703  1.00  0.00     0.130 C 
BRANCH  17  18
HETATM   18  C5  UNL     1      30.096   7.319  48.733  1.00  0.00     0.231 C 
HETATM   19  C6  UNL     1      31.111   8.315  48.281  1.00  0.00     0.036 C 
HETATM   20  C7  UNL     1      32.434   7.670  47.880  1.00  0.00     0.004 C 
HETATM   21  C8  UNL     1      32.939   6.876  49.059  1.00  0.00     0.030 C 
HETATM   22  C9  UNL     1      31.877   6.021  49.685  1.00  0.00     0.270 C 
HETATM   23  N1  UNL     1      30.645   5.994  48.915  1.00  0.00     0.088 N 
HETATM   24  H12 UNL     1      29.960   5.406  49.411  1.00  0.00     0.316 HD
ENDBRANCH  17  18
ENDBRANCH  16  17
ENDBRANCH  12  15
ENDBRANCH   1  11
BRANCH   4  25
HETATM   25  N3  UNL     1      24.007   2.067  53.211  1.00  0.00    -0.340 N 
HETATM   26  H15 UNL     1      23.716   2.821  53.846  1.00  0.00     0.167 HD
BRANCH  25  27
HETATM   27  C14 UNL     1      25.270   1.382  53.164  1.00  0.00     0.035 A 
HETATM   28  C15 UNL     1      25.468   0.052  52.807  1.00  0.00     0.032 A 
HETATM   29  C16 UNL     1      26.718  -0.476  52.823  1.00  0.00     0.046 A 
HETATM   30  C17 UNL     1      27.843   0.223  53.177  1.00  0.00     0.138 A 
HETATM   31  F1  UNL     1      29.073  -0.382  53.160  1.00  0.00    -0.204 F 
HETATM   32  C18 UNL     1      27.643   1.564  53.538  1.00  0.00     0.074 A 
HETATM   33 CL1  UNL     1      29.121   2.399  53.986  1.00  0.00    -0.081 Cl
HETATM   34  C19 UNL     1      26.400   2.123  53.531  1.00  0.00     0.056 A 
ENDBRANCH  25  27
ENDBRANCH   4  25
TORSDOF 6
ENDMDL
MODEL 7
REMARK VINA RESULT:      -8.8      4.110      9.787
REMARK  6 active torsions:
REMARK  status: ('A' for Active; 'I' for Inactive)
REMARK    1  A    between atoms: C1_2  and  C2_3 
REMARK       I    between atoms: C1_2  and  N2_12 
REMARK    2  A    between atoms: C3_4  and  C4_5 
REMARK    3  A    between atoms: C4_5  and  C5_6 
REMARK    4  A    between atoms: N2_12  and  C10_13 
REMARK    5  A    between atoms: C13_16  and  N3_17 
REMARK    6  A    between atoms: N3_17  and  C14_18 
ROOT
HETATM    1  C10 UNL     1      24.327  -0.393  53.446  1.00  0.00     0.131 A 
HETATM    2  C11 UNL     1      24.965   0.398  52.519  1.00  0.00     0.068 A 
HETATM    3  C12 UNL     1      26.147   0.999  52.894  1.00  0.00     0.044 A 
HETATM    4  C13 UNL     1      26.778   1.790  51.946  1.00  0.00     0.142 A 
HETATM    5  N4  UNL     1      27.921   2.357  52.343  1.00  0.00    -0.224 NA
HETATM    6  C20 UNL     1      28.441   2.189  53.565  1.00  0.00     0.236 A 
HETATM    7  N5  UNL     1      27.803   1.409  54.480  1.00  0.00    -0.240 NA
HETATM    8  C21 UNL     1      26.649   0.802  54.162  1.00  0.00     0.089 A 
HETATM    9  C22 UNL     1      25.992  -0.004  55.102  1.00  0.00     0.151 A 
HETATM   10  N6  UNL     1      24.831  -0.582  54.698  1.00  0.00    -0.241 NA
ENDROOT
BRANCH   1  11
HETATM   11  N2  UNL     1      23.093  -1.143  53.346  1.00  0.00    -0.301 N 
HETATM   12  C1  UNL     1      22.029  -0.180  53.513  1.00  0.00     0.302 C 
HETATM   13  O1  UNL     1      22.129   1.052  53.712  1.00  0.00    -0.258 OA
HETATM   14  H13 UNL     1      22.832  -2.140  53.194  1.00  0.00     0.171 HD
BRANCH  12  15
HETATM   15  C2  UNL     1      20.645  -0.636  53.451  1.00  0.00    -0.005 C 
HETATM   16  C3  UNL     1      19.483  -1.017  53.382  1.00  0.00    -0.094 C 
BRANCH  16  17
HETATM   17  C4  UNL     1      18.101  -1.476  53.274  1.00  0.00     0.130 C 
BRANCH  17  18
HETATM   18  C5  UNL     1      17.332  -0.475  52.444  1.00  0.00     0.231 C 
HETATM   19  C6  UNL     1      15.910  -0.914  52.341  1.00  0.00     0.036 C 
HETATM   20  C7  UNL     1      15.536  -1.379  50.937  1.00  0.00     0.004 C 
HETATM   21  C8  UNL     1      15.828  -0.249  49.981  1.00  0.00     0.030 C 
HETATM   22  C9  UNL     1      17.176   0.371  50.203  1.00  0.00     0.270 C 
HETATM   23  N1  UNL     1      17.986  -0.364  51.160  1.00  0.00     0.088 N 
HETATM   24  H12 UNL     1      18.884   0.126  51.275  1.00  0.00     0.316 HD
ENDBRANCH  17  18
ENDBRANCH  16  17
ENDBRANCH  12  15
ENDBRANCH   1  11
BRANCH   4  25
HETATM   25  N3  UNL     1      26.137   1.930  50.656  1.00  0.00    -0.340 N 
HETATM   26  H15 UNL     1      25.906   1.114  50.074  1.00  0.00     0.167 HD
BRANCH  25  27
HETATM   27  C14 UNL     1      25.907   3.320  50.370  1.00  0.00     0.035 A 
HETATM   28  C15 UNL     1      24.865   4.096  50.867  1.00  0.00     0.032 A 
HETATM   29  C16 UNL     1      24.754   5.398  50.500  1.00  0.00     0.046 A 
HETATM   30  C17 UNL     1      25.620   6.032  49.646  1.00  0.00     0.138 A 
HETATM   31  F1  UNL     1      25.444   7.354  49.331  1.00  0.00    -0.204 F 
HETATM   32  C18 UNL     1      26.670   5.248  49.145  1.00  0.00     0.074 A 
HETATM   33 CL1  UNL     1      27.737   6.117  48.054  1.00  0.00    -0.081 Cl
HETATM   34  C19 UNL     1      26.808   3.938  49.496  1.00  0.00     0.056 A 
ENDBRANCH  25  27
ENDBRANCH   4  25
TORSDOF 6
ENDMDL
MODEL 8
REMARK VINA RESULT:      -8.8      3.720      9.309
REMARK  6 active torsions:
REMARK  status: ('A' for Active; 'I' for Inactive)
REMARK    1  A    between atoms: C1_2  and  C2_3 
REMARK       I    between atoms: C1_2  and  N2_12 
REMARK    2  A    between atoms: C3_4  and  C4_5 
REMARK    3  A    between atoms: C4_5  and  C5_6 
REMARK    4  A    between atoms: N2_12  and  C10_13 
REMARK    5  A    between atoms: C13_16  and  N3_17 
REMARK    6  A    between atoms: N3_17  and  C14_18 
ROOT
HETATM    1  C10 UNL     1      22.277   2.333  51.645  1.00  0.00     0.131 A 
HETATM    2  C11 UNL     1      23.545   2.301  52.176  1.00  0.00     0.068 A 
HETATM    3  C12 UNL     1      24.588   2.709  51.373  1.00  0.00     0.044 A 
HETATM    4  C13 UNL     1      25.859   2.674  51.927  1.00  0.00     0.142 A 
HETATM    5  N4  UNL     1      26.846   3.076  51.121  1.00  0.00    -0.224 NA
HETATM    6  C20 UNL     1      26.647   3.490  49.863  1.00  0.00     0.236 A 
HETATM    7  N5  UNL     1      25.391   3.515  49.341  1.00  0.00    -0.240 NA
HETATM    8  C21 UNL     1      24.342   3.127  50.083  1.00  0.00     0.089 A 
HETATM    9  C22 UNL     1      23.048   3.155  49.548  1.00  0.00     0.151 A 
HETATM   10  N6  UNL     1      22.044   2.748  50.367  1.00  0.00    -0.241 NA
ENDROOT
BRANCH   1  11
HETATM   11  N2  UNL     1      21.006   1.973  52.234  1.00  0.00    -0.301 N 
HETATM   12  C1  UNL     1      20.867   0.548  52.039  1.00  0.00     0.302 C 
HETATM   13  O1  UNL     1      21.665  -0.234  51.474  1.00  0.00    -0.258 OA
HETATM   14  H13 UNL     1      20.236   2.477  52.723  1.00  0.00     0.171 HD
BRANCH  12  15
HETATM   15  C2  UNL     1      19.674  -0.123  52.541  1.00  0.00    -0.005 C 
HETATM   16  C3  UNL     1      18.663  -0.683  52.947  1.00  0.00    -0.094 C 
BRANCH  16  17
HETATM   17  C4  UNL     1      17.450  -1.354  53.407  1.00  0.00     0.130 C 
BRANCH  17  18
HETATM   18  C5  UNL     1      16.379  -1.169  52.358  1.00  0.00     0.231 C 
HETATM   19  C6  UNL     1      16.044   0.281  52.251  1.00  0.00     0.036 C 
HETATM   20  C7  UNL     1      14.654   0.608  52.787  1.00  0.00     0.004 C 
HETATM   21  C8  UNL     1      13.656  -0.238  52.034  1.00  0.00     0.030 C 
HETATM   22  C9  UNL     1      14.072  -1.675  51.928  1.00  0.00     0.270 C 
HETATM   23  N1  UNL     1      15.245  -1.986  52.728  1.00  0.00     0.088 N 
HETATM   24  H12 UNL     1      15.482  -2.979  52.592  1.00  0.00     0.316 HD
ENDBRANCH  17  18
ENDBRANCH  16  17
ENDBRANCH  12  15
ENDBRANCH   1  11
BRANCH   4  25
HETATM   25  N3  UNL     1      25.984   2.197  53.287  1.00  0.00    -0.340 N 
HETATM   26  H15 UNL     1      25.337   2.497  54.028  1.00  0.00     0.167 HD
BRANCH  25  27
HETATM   27  C14 UNL     1      27.099   1.296  53.392  1.00  0.00     0.035 A 
HETATM   28  C15 UNL     1      28.389   1.633  53.789  1.00  0.00     0.032 A 
HETATM   29  C16 UNL     1      29.358   0.682  53.826  1.00  0.00     0.046 A 
HETATM   30  C17 UNL     1      29.158  -0.632  53.489  1.00  0.00     0.138 A 
HETATM   31  F1  UNL     1      30.187  -1.533  53.562  1.00  0.00    -0.204 F 
HETATM   32  C18 UNL     1      27.856  -0.970  53.088  1.00  0.00     0.074 A 
HETATM   33 CL1  UNL     1      27.670  -2.664  52.665  1.00  0.00    -0.081 Cl
HETATM   34  C19 UNL     1      26.863  -0.038  53.041  1.00  0.00     0.056 A 
ENDBRANCH  25  27
ENDBRANCH   4  25
TORSDOF 6
ENDMDL
MODEL 9
REMARK VINA RESULT:      -8.6      1.568      2.036
REMARK  6 active torsions:
REMARK  status: ('A' for Active; 'I' for Inactive)
REMARK    1  A    between atoms: C1_2  and  C2_3 
REMARK       I    between atoms: C1_2  and  N2_12 
REMARK    2  A    between atoms: C3_4  and  C4_5 
REMARK    3  A    between atoms: C4_5  and  C5_6 
REMARK    4  A    between atoms: N2_12  and  C10_13 
REMARK    5  A    between atoms: C13_16  and  N3_17 
REMARK    6  A    between atoms: N3_17  and  C14_18 
ROOT
HETATM    1  C10 UNL     1      24.995   4.417  49.917  1.00  0.00     0.131 A 
HETATM    2  C11 UNL     1      25.103   3.789  51.137  1.00  0.00     0.068 A 
HETATM    3  C12 UNL     1      24.223   2.765  51.411  1.00  0.00     0.044 A 
HETATM    4  C13 UNL     1      24.350   2.141  52.643  1.00  0.00     0.142 A 
HETATM    5  N4  UNL     1      23.481   1.153  52.876  1.00  0.00    -0.224 NA
HETATM    6  C20 UNL     1      22.545   0.772  51.997  1.00  0.00     0.236 A 
HETATM    7  N5  UNL     1      22.439   1.400  50.794  1.00  0.00    -0.240 NA
HETATM    8  C21 UNL     1      23.274   2.404  50.480  1.00  0.00     0.089 A 
HETATM    9  C22 UNL     1      23.168   3.049  49.241  1.00  0.00     0.151 A 
HETATM   10  N6  UNL     1      24.053   4.052  49.003  1.00  0.00    -0.241 NA
ENDROOT
BRANCH   1  11
HETATM   11  N2  UNL     1      25.764   5.505  49.353  1.00  0.00    -0.301 N 
HETATM   12  C1  UNL     1      27.023   4.929  48.940  1.00  0.00     0.302 C 
HETATM   13  O1  UNL     1      27.398   3.739  49.046  1.00  0.00    -0.258 OA
HETATM   14  H13 UNL     1      25.617   6.524  49.196  1.00  0.00     0.171 HD
BRANCH  12  15
HETATM   15  C2  UNL     1      28.024   5.787  48.316  1.00  0.00    -0.005 C 
HETATM   16  C3  UNL     1      28.870   6.493  47.781  1.00  0.00    -0.094 C 
BRANCH  16  17
HETATM   17  C4  UNL     1      29.880   7.318  47.126  1.00  0.00     0.130 C 
BRANCH  17  18
HETATM   18  C5  UNL     1      29.915   8.662  47.815  1.00  0.00     0.231 C 
HETATM   19  C6  UNL     1      28.843   9.530  47.247  1.00  0.00     0.036 C 
HETATM   20  C7  UNL     1      29.395  10.680  46.410  1.00  0.00     0.004 C 
HETATM   21  C8  UNL     1      30.337  11.476  47.280  1.00  0.00     0.030 C 
HETATM   22  C9  UNL     1      31.295  10.613  48.046  1.00  0.00     0.270 C 
HETATM   23  N1  UNL     1      31.239   9.216  47.649  1.00  0.00     0.088 N 
HETATM   24  H12 UNL     1      31.907   8.683  48.225  1.00  0.00     0.316 HD
ENDBRANCH  17  18
ENDBRANCH  16  17
ENDBRANCH  12  15
ENDBRANCH   1  11
BRANCH   4  25
HETATM   25  N3  UNL     1      25.377   2.627  53.538  1.00  0.00    -0.340 N 
HETATM   26  H15 UNL     1      25.238   3.463  54.120  1.00  0.00     0.167 HD
BRANCH  25  27
HETATM   27  C14 UNL     1      26.538   1.782  53.459  1.00  0.00     0.035 A 
HETATM   28  C15 UNL     1      27.859   2.188  53.621  1.00  0.00     0.032 A 
HETATM   29  C16 UNL     1      28.865   1.285  53.502  1.00  0.00     0.046 A 
HETATM   30  C17 UNL     1      28.676  -0.045  53.223  1.00  0.00     0.138 A 
HETATM   31  F1  UNL     1      29.746  -0.895  53.128  1.00  0.00    -0.204 F 
HETATM   32  C18 UNL     1      27.343  -0.452  53.059  1.00  0.00     0.074 A 
HETATM   33 CL1  UNL     1      27.171  -2.162  52.698  1.00  0.00    -0.081 Cl
HETATM   34  C19 UNL     1      26.311   0.431  53.173  1.00  0.00     0.056 A 
ENDBRANCH  25  27
ENDBRANCH   4  25
TORSDOF 6
ENDMDL
