MODEL 1
REMARK VINA RESULT:      -9.3      0.000      0.000
REMARK  4 active torsions:
REMARK  status: ('A' for Active; 'I' for Inactive)
REMARK    1  A    between atoms: C1_2  and  O1_5 
REMARK    2  A    between atoms: O1_5  and  C2_6 
REMARK    3  A    between atoms: C10_15  and  N2_16 
REMARK    4  A    between atoms: N2_16  and  C11_17 
ROOT
HETATM    1  C2  UNL     1      27.308  -0.181  53.776  1.00  0.00     0.079 A 
HETATM    2  C3  UNL     1      26.177  -0.921  54.028  1.00  0.00     0.040 A 
HETATM    3  C4  UNL     1      24.942  -0.561  53.481  1.00  0.00     0.040 A 
HETATM    4  C5  UNL     1      24.899   0.567  52.678  1.00  0.00     0.086 A 
HETATM    5  C6  UNL     1      26.060   1.316  52.425  1.00  0.00    -0.004 A 
HETATM    6  C7  UNL     1      27.266   0.941  52.976  1.00  0.00     0.048 A 
HETATM    7  C8  UNL     1      26.174   2.521  51.585  1.00  0.00     0.161 C 
HETATM    8  N1  UNL     1      25.264   3.566  51.985  1.00  0.00    -0.379 N 
HETATM    9  C9  UNL     1      23.846   3.410  52.072  1.00  0.00     0.129 A 
HETATM   10  C10 UNL     1      23.230   4.642  52.088  1.00  0.00     0.160 A 
HETATM   11  N3  UNL     1      21.879   4.664  52.167  1.00  0.00    -0.222 NA
HETATM   12  C17 UNL     1      21.158   3.520  52.228  1.00  0.00     0.238 A 
HETATM   13  N4  UNL     1      21.746   2.301  52.213  1.00  0.00    -0.215 NA
HETATM   14  C18 UNL     1      23.100   2.249  52.134  1.00  0.00     0.202 A 
HETATM   15  O2  UNL     1      23.649   0.940  52.125  1.00  0.00    -0.289 OA
HETATM   16  H6  UNL     1      25.669   4.495  52.222  1.00  0.00     0.160 HD
ENDROOT
BRANCH  10  17
HETATM   17  N2  UNL     1      23.988   5.868  52.013  1.00  0.00    -0.339 N 
HETATM   18  H7  UNL     1      24.435   6.068  52.948  1.00  0.00     0.167 HD
BRANCH  17  19
HETATM   19  C11 UNL     1      24.182   6.757  50.927  1.00  0.00     0.035 A 
HETATM   20  C12 UNL     1      23.241   7.709  50.594  1.00  0.00     0.029 A 
HETATM   21  C13 UNL     1      23.507   8.509  49.512  1.00  0.00     0.004 A 
HETATM   22  C14 UNL     1      24.655   8.405  48.755  1.00  0.00     0.019 A 
HETATM   23  C15 UNL     1      25.608   7.449  49.085  1.00  0.00     0.013 A 
HETATM   24 BR1  UNL     1      27.207   7.304  48.023  1.00  0.00    -0.051 Br
HETATM   25  C16 UNL     1      25.349   6.640  50.172  1.00  0.00     0.048 A 
ENDBRANCH  17  19
ENDBRANCH  10  17
BRANCH   1  26
HETATM   26  O1  UNL     1      28.462  -0.693  54.413  1.00  0.00    -0.255 OA
BRANCH  26  27
HETATM   27  C1  UNL     1      29.552  -1.072  53.563  1.00  0.00     0.530 C 
HETATM   28  F1  UNL     1      29.096  -1.977  52.607  1.00  0.00    -0.144 F 
HETATM   29  F2  UNL     1      30.206   0.005  53.035  1.00  0.00    -0.144 F 
HETATM   30  F3  UNL     1      30.477  -1.776  54.343  1.00  0.00    -0.144 F 
ENDBRANCH  26  27
ENDBRANCH   1  26
TORSDOF 4
ENDMDL
MODEL 2
REMARK VINA RESULT:      -8.9      3.943      6.288
REMARK  4 active torsions:
REMARK  status: ('A' for Active; 'I' for Inactive)
REMARK    1  A    between atoms: C1_2  and  O1_5 
REMARK    2  A    between atoms: O1_5  and  C2_6 
REMARK    3  A    between atoms: C10_15  and  N2_16 
REMARK    4  A    between atoms: N2_16  and  C11_17 
ROOT
HETATM    1  C2  UNL     1      27.232  -0.113  52.919  1.00  0.00     0.079 A 
HETATM    2  C3  UNL     1      27.499   1.230  52.792  1.00  0.00     0.040 A 
HETATM    3  C4  UNL     1      26.480   2.181  52.893  1.00  0.00     0.040 A 
HETATM    4  C5  UNL     1      25.194   1.723  53.127  1.00  0.00     0.086 A 
HETATM    5  C6  UNL     1      24.931   0.350  53.257  1.00  0.00    -0.004 A 
HETATM    6  C7  UNL     1      25.952  -0.569  53.152  1.00  0.00     0.048 A 
HETATM    7  C8  UNL     1      23.627  -0.283  53.521  1.00  0.00     0.161 C 
HETATM    8  N1  UNL     1      22.621   0.090  52.557  1.00  0.00    -0.379 N 
HETATM    9  C9  UNL     1      22.235   1.437  52.277  1.00  0.00     0.129 A 
HETATM   10  C10 UNL     1      21.018   1.461  51.631  1.00  0.00     0.160 A 
HETATM   11  N3  UNL     1      20.512   2.671  51.296  1.00  0.00    -0.222 NA
HETATM   12  C17 UNL     1      21.174   3.816  51.585  1.00  0.00     0.238 A 
HETATM   13  N4  UNL     1      22.369   3.812  52.219  1.00  0.00    -0.215 NA
HETATM   14  C18 UNL     1      22.900   2.613  52.567  1.00  0.00     0.202 A 
HETATM   15  O2  UNL     1      24.156   2.683  53.227  1.00  0.00    -0.289 OA
HETATM   16  H6  UNL     1      22.145  -0.673  52.034  1.00  0.00     0.160 HD
ENDROOT
BRANCH  10  17
HETATM   17  N2  UNL     1      20.299   0.247  51.328  1.00  0.00    -0.339 N 
HETATM   18  H7  UNL     1      20.859  -0.339  50.653  1.00  0.00     0.167 HD
BRANCH  17  19
HETATM   19  C11 UNL     1      19.038  -0.206  51.788  1.00  0.00     0.035 A 
HETATM   20  C12 UNL     1      18.889  -0.792  53.029  1.00  0.00     0.029 A 
HETATM   21  C13 UNL     1      17.634  -1.221  53.378  1.00  0.00     0.004 A 
HETATM   22  C14 UNL     1      16.532  -1.095  52.557  1.00  0.00     0.019 A 
HETATM   23  C15 UNL     1      16.676  -0.505  51.307  1.00  0.00     0.013 A 
HETATM   24 BR1  UNL     1      15.136  -0.335  50.163  1.00  0.00    -0.051 Br
HETATM   25  C16 UNL     1      17.934  -0.070  50.947  1.00  0.00     0.048 A 
ENDBRANCH  17  19
ENDBRANCH  10  17
BRANCH   1  26
HETATM   26  O1  UNL     1      28.381  -0.926  52.785  1.00  0.00    -0.255 OA
BRANCH  26  27
HETATM   27  C1  UNL     1      29.397  -0.774  53.785  1.00  0.00     0.530 C 
HETATM   28  F1  UNL     1      30.408   0.049  53.292  1.00  0.00    -0.144 F 
HETATM   29  F2  UNL     1      28.894  -0.368  54.988  1.00  0.00    -0.144 F 
HETATM   30  F3  UNL     1      29.990  -2.027  53.985  1.00  0.00    -0.144 F 
ENDBRANCH  26  27
ENDBRANCH   1  26
TORSDOF 4
ENDMDL
MODEL 3
REMARK VINA RESULT:      -8.7      2.571      3.714
REMARK  4 active torsions:
REMARK  status: ('A' for Active; 'I' for Inactive)
REMARK    1  A    between atoms: C1_2  and  O1_5 
REMARK    2  A    between atoms: O1_5  and  C2_6 
REMARK    3  A    between atoms: C10_15  and  N2_16 
REMARK    4  A    between atoms: N2_16  and  C11_17 
ROOT
HETATM    1  C2  UNL     1      25.880   0.962  52.396  1.00  0.00     0.079 A 
HETATM    2  C3  UNL     1      24.619   1.197  52.890  1.00  0.00     0.040 A 
HETATM    3  C4  UNL     1      23.830   2.237  52.391  1.00  0.00     0.040 A 
HETATM    4  C5  UNL     1      24.364   3.021  51.381  1.00  0.00     0.086 A 
HETATM    5  C6  UNL     1      25.653   2.772  50.882  1.00  0.00    -0.004 A 
HETATM    6  C7  UNL     1      26.412   1.741  51.391  1.00  0.00     0.048 A 
HETATM    7  C8  UNL     1      26.345   3.505  49.807  1.00  0.00     0.161 C 
HETATM    8  N1  UNL     1      26.427   4.922  50.062  1.00  0.00    -0.379 N 
HETATM    9  C9  UNL     1      25.297   5.764  50.302  1.00  0.00     0.129 A 
HETATM   10  C10 UNL     1      25.640   7.086  50.120  1.00  0.00     0.160 A 
HETATM   11  N3  UNL     1      24.672   8.014  50.310  1.00  0.00    -0.222 NA
HETATM   12  C17 UNL     1      23.415   7.658  50.665  1.00  0.00     0.238 A 
HETATM   13  N4  UNL     1      23.061   6.365  50.848  1.00  0.00    -0.215 NA
HETATM   14  C18 UNL     1      24.011   5.414  50.663  1.00  0.00     0.202 A 
HETATM   15  O2  UNL     1      23.571   4.080  50.874  1.00  0.00    -0.289 OA
HETATM   16  H6  UNL     1      27.372   5.359  50.069  1.00  0.00     0.160 HD
ENDROOT
BRANCH  10  17
HETATM   17  N2  UNL     1      26.974   7.476  49.731  1.00  0.00    -0.339 N 
HETATM   18  H7  UNL     1      27.576   7.589  50.591  1.00  0.00     0.167 HD
BRANCH  17  19
HETATM   19  C11 UNL     1      27.520   7.706  48.444  1.00  0.00     0.035 A 
HETATM   20  C12 UNL     1      26.757   8.219  47.416  1.00  0.00     0.029 A 
HETATM   21  C13 UNL     1      27.368   8.385  46.199  1.00  0.00     0.004 A 
HETATM   22  C14 UNL     1      28.689   8.067  45.962  1.00  0.00     0.019 A 
HETATM   23  C15 UNL     1      29.463   7.551  46.994  1.00  0.00     0.013 A 
HETATM   24 BR1  UNL     1      31.305   7.104  46.658  1.00  0.00    -0.051 Br
HETATM   25  C16 UNL     1      28.858   7.380  48.222  1.00  0.00     0.048 A 
ENDBRANCH  17  19
ENDBRANCH  10  17
BRANCH   1  26
HETATM   26  O1  UNL     1      26.530  -0.127  53.022  1.00  0.00    -0.255 OA
BRANCH  26  27
HETATM   27  C1  UNL     1      27.239   0.156  54.235  1.00  0.00     0.530 C 
HETATM   28  F1  UNL     1      27.688   1.475  54.208  1.00  0.00    -0.144 F 
HETATM   29  F2  UNL     1      26.516  -0.157  55.351  1.00  0.00    -0.144 F 
HETATM   30  F3  UNL     1      28.392  -0.638  54.251  1.00  0.00    -0.144 F 
ENDBRANCH  26  27
ENDBRANCH   1  26
TORSDOF 4
ENDMDL
MODEL 4
REMARK VINA RESULT:      -8.6      2.801      3.981
REMARK  4 active torsions:
REMARK  status: ('A' for Active; 'I' for Inactive)
REMARK    1  A    between atoms: C1_2  and  O1_5 
REMARK    2  A    between atoms: O1_5  and  C2_6 
REMARK    3  A    between atoms: C10_15  and  N2_16 
REMARK    4  A    between atoms: N2_16  and  C11_17 
ROOT
HETATM    1  C2  UNL     1      26.624   1.103  52.794  1.00  0.00     0.079 A 
HETATM    2  C3  UNL     1      25.748   1.674  53.687  1.00  0.00     0.040 A 
HETATM    3  C4  UNL     1      24.898   2.714  53.300  1.00  0.00     0.040 A 
HETATM    4  C5  UNL     1      24.969   3.146  51.986  1.00  0.00     0.086 A 
HETATM    5  C6  UNL     1      25.865   2.556  51.081  1.00  0.00    -0.004 A 
HETATM    6  C7  UNL     1      26.695   1.533  51.486  1.00  0.00     0.048 A 
HETATM    7  C8  UNL     1      26.043   2.895  49.658  1.00  0.00     0.161 C 
HETATM    8  N1  UNL     1      26.337   4.292  49.451  1.00  0.00    -0.379 N 
HETATM    9  C9  UNL     1      25.506   5.364  49.901  1.00  0.00     0.129 A 
HETATM   10  C10 UNL     1      25.824   6.527  49.233  1.00  0.00     0.160 A 
HETATM   11  N3  UNL     1      25.122   7.641  49.547  1.00  0.00    -0.222 NA
HETATM   12  C17 UNL     1      24.143   7.615  50.482  1.00  0.00     0.238 A 
HETATM   13  N4  UNL     1      23.817   6.483  51.147  1.00  0.00    -0.215 NA
HETATM   14  C18 UNL     1      24.505   5.351  50.852  1.00  0.00     0.202 A 
HETATM   15  O2  UNL     1      24.112   4.202  51.589  1.00  0.00    -0.289 OA
HETATM   16  H6  UNL     1      27.210   4.532  48.938  1.00  0.00     0.160 HD
ENDROOT
BRANCH  10  17
HETATM   17  N2  UNL     1      26.859   6.563  48.227  1.00  0.00    -0.339 N 
HETATM   18  H7  UNL     1      26.442   6.356  47.280  1.00  0.00     0.167 HD
BRANCH  17  19
HETATM   19  C11 UNL     1      28.246   6.819  48.353  1.00  0.00     0.035 A 
HETATM   20  C12 UNL     1      29.183   5.817  48.209  1.00  0.00     0.029 A 
HETATM   21  C13 UNL     1      30.502   6.157  48.372  1.00  0.00     0.004 A 
HETATM   22  C14 UNL     1      30.926   7.436  48.668  1.00  0.00     0.019 A 
HETATM   23  C15 UNL     1      29.988   8.450  48.814  1.00  0.00     0.013 A 
HETATM   24 BR1  UNL     1      30.583  10.233  49.231  1.00  0.00    -0.051 Br
HETATM   25  C16 UNL     1      28.659   8.119  48.651  1.00  0.00     0.048 A 
ENDBRANCH  17  19
ENDBRANCH  10  17
BRANCH   1  26
HETATM   26  O1  UNL     1      27.406   0.070  53.362  1.00  0.00    -0.255 OA
BRANCH  26  27
HETATM   27  C1  UNL     1      28.704   0.436  53.846  1.00  0.00     0.530 C 
HETATM   28  F1  UNL     1      29.675  -0.272  53.140  1.00  0.00    -0.144 F 
HETATM   29  F2  UNL     1      28.902   1.788  53.849  1.00  0.00    -0.144 F 
HETATM   30  F3  UNL     1      28.805  -0.000  55.173  1.00  0.00    -0.144 F 
ENDBRANCH  26  27
ENDBRANCH   1  26
TORSDOF 4
ENDMDL
MODEL 5
REMARK VINA RESULT:      -8.4      3.305      4.556
REMARK  4 active torsions:
REMARK  status: ('A' for Active; 'I' for Inactive)
REMARK    1  A    between atoms: C1_2  and  O1_5 
REMARK    2  A    between atoms: O1_5  and  C2_6 
REMARK    3  A    between atoms: C10_15  and  N2_16 
REMARK    4  A    between atoms: N2_16  and  C11_17 
ROOT
HETATM    1  C2  UNL     1      24.691   1.422  52.918  1.00  0.00     0.079 A 
HETATM    2  C3  UNL     1      23.382   1.585  52.532  1.00  0.00     0.040 A 
HETATM    3  C4  UNL     1      23.055   2.266  51.356  1.00  0.00     0.040 A 
HETATM    4  C5  UNL     1      24.097   2.768  50.594  1.00  0.00     0.086 A 
HETATM    5  C6  UNL     1      25.431   2.595  50.995  1.00  0.00    -0.004 A 
HETATM    6  C7  UNL     1      25.729   1.921  52.160  1.00  0.00     0.048 A 
HETATM    7  C8  UNL     1      26.639   3.056  50.287  1.00  0.00     0.161 C 
HETATM    8  N1  UNL     1      26.622   4.474  50.022  1.00  0.00    -0.379 N 
HETATM    9  C9  UNL     1      25.589   5.145  49.297  1.00  0.00     0.129 A 
HETATM   10  C10 UNL     1      26.030   6.379  48.872  1.00  0.00     0.160 A 
HETATM   11  N3  UNL     1      25.163   7.143  48.166  1.00  0.00    -0.222 NA
HETATM   12  C17 UNL     1      23.911   6.711  47.886  1.00  0.00     0.238 A 
HETATM   13  N4  UNL     1      23.462   5.502  48.295  1.00  0.00    -0.215 NA
HETATM   14  C18 UNL     1      24.310   4.716  49.005  1.00  0.00     0.202 A 
HETATM   15  O2  UNL     1      23.772   3.462  49.403  1.00  0.00    -0.289 OA
HETATM   16  H6  UNL     1      27.416   5.043  50.381  1.00  0.00     0.160 HD
ENDROOT
BRANCH  10  17
HETATM   17  N2  UNL     1      27.366   6.845  49.155  1.00  0.00    -0.339 N 
HETATM   18  H7  UNL     1      27.436   7.129  50.169  1.00  0.00     0.167 HD
BRANCH  17  19
HETATM   19  C11 UNL     1      28.494   6.957  48.305  1.00  0.00     0.035 A 
HETATM   20  C12 UNL     1      28.616   7.989  47.398  1.00  0.00     0.029 A 
HETATM   21  C13 UNL     1      29.733   8.000  46.601  1.00  0.00     0.004 A 
HETATM   22  C14 UNL     1      30.722   7.042  46.666  1.00  0.00     0.019 A 
HETATM   23  C15 UNL     1      30.605   6.000  47.579  1.00  0.00     0.013 A 
HETATM   24 BR1  UNL     1      31.987   4.661  47.663  1.00  0.00    -0.051 Br
HETATM   25  C16 UNL     1      29.486   5.979  48.385  1.00  0.00     0.048 A 
ENDBRANCH  17  19
ENDBRANCH  10  17
BRANCH   1  26
HETATM   26  O1  UNL     1      24.830   0.712  54.134  1.00  0.00    -0.255 OA
BRANCH  26  27
HETATM   27  C1  UNL     1      25.505  -0.551  54.069  1.00  0.00     0.530 C 
HETATM   28  F1  UNL     1      25.167  -1.192  52.879  1.00  0.00    -0.144 F 
HETATM   29  F2  UNL     1      26.852  -0.438  54.269  1.00  0.00    -0.144 F 
HETATM   30  F3  UNL     1      25.000  -1.359  55.094  1.00  0.00    -0.144 F 
ENDBRANCH  26  27
ENDBRANCH   1  26
TORSDOF 4
ENDMDL
MODEL 6
REMARK VINA RESULT:      -8.3      4.235      6.435
REMARK  4 active torsions:
REMARK  status: ('A' for Active; 'I' for Inactive)
REMARK    1  A    between atoms: C1_2  and  O1_5 
REMARK    2  A    between atoms: O1_5  and  C2_6 
REMARK    3  A    between atoms: C10_15  and  N2_16 
REMARK    4  A    between atoms: N2_16  and  C11_17 
ROOT
HETATM    1  C2  UNL     1      26.612   1.992  53.268  1.00  0.00     0.079 A 
HETATM    2  C3  UNL     1      27.105   1.811  51.997  1.00  0.00     0.040 A 
HETATM    3  C4  UNL     1      26.329   2.109  50.874  1.00  0.00     0.040 A 
HETATM    4  C5  UNL     1      25.048   2.593  51.087  1.00  0.00     0.086 A 
HETATM    5  C6  UNL     1      24.555   2.776  52.388  1.00  0.00    -0.004 A 
HETATM    6  C7  UNL     1      25.338   2.474  53.481  1.00  0.00     0.048 A 
HETATM    7  C8  UNL     1      23.229   3.294  52.771  1.00  0.00     0.161 C 
HETATM    8  N1  UNL     1      22.148   2.546  52.179  1.00  0.00    -0.379 N 
HETATM    9  C9  UNL     1      21.983   2.345  50.773  1.00  0.00     0.129 A 
HETATM   10  C10 UNL     1      20.692   1.952  50.496  1.00  0.00     0.160 A 
HETATM   11  N3  UNL     1      20.374   1.721  49.200  1.00  0.00    -0.222 NA
HETATM   12  C17 UNL     1      21.289   1.870  48.213  1.00  0.00     0.238 A 
HETATM   13  N4  UNL     1      22.560   2.256  48.467  1.00  0.00    -0.215 NA
HETATM   14  C18 UNL     1      22.906   2.495  49.758  1.00  0.00     0.202 A 
HETATM   15  O2  UNL     1      24.256   2.894  49.951  1.00  0.00    -0.289 OA
HETATM   16  H6  UNL     1      21.440   2.129  52.818  1.00  0.00     0.160 HD
ENDROOT
BRANCH  10  17
HETATM   17  N2  UNL     1      19.706   1.799  51.539  1.00  0.00    -0.339 N 
HETATM   18  H7  UNL     1      19.345   2.748  51.829  1.00  0.00     0.167 HD
BRANCH  17  19
HETATM   19  C11 UNL     1      19.212   0.628  52.164  1.00  0.00     0.035 A 
HETATM   20  C12 UNL     1      19.973  -0.089  53.063  1.00  0.00     0.029 A 
HETATM   21  C13 UNL     1      19.418  -1.223  53.599  1.00  0.00     0.004 A 
HETATM   22  C14 UNL     1      18.151  -1.670  53.284  1.00  0.00     0.019 A 
HETATM   23  C15 UNL     1      17.378  -0.952  52.380  1.00  0.00     0.013 A 
HETATM   24 BR1  UNL     1      15.613  -1.582  51.940  1.00  0.00    -0.051 Br
HETATM   25  C16 UNL     1      17.928   0.190  51.835  1.00  0.00     0.048 A 
ENDBRANCH  17  19
ENDBRANCH  10  17
BRANCH   1  26
HETATM   26  O1  UNL     1      27.535   1.635  54.280  1.00  0.00    -0.255 OA
BRANCH  26  27
HETATM   27  C1  UNL     1      27.503   0.275  54.730  1.00  0.00     0.530 C 
HETATM   28  F1  UNL     1      27.161  -0.554  53.664  1.00  0.00    -0.144 F 
HETATM   29  F2  UNL     1      28.653  -0.094  55.368  1.00  0.00    -0.144 F 
HETATM   30  F3  UNL     1      26.459   0.156  55.655  1.00  0.00    -0.144 F 
ENDBRANCH  26  27
ENDBRANCH   1  26
TORSDOF 4
ENDMDL
MODEL 7
REMARK VINA RESULT:      -8.3      5.183      8.284
REMARK  4 active torsions:
REMARK  status: ('A' for Active; 'I' for Inactive)
REMARK    1  A    between atoms: C1_2  and  O1_5 
REMARK    2  A    between atoms: O1_5  and  C2_6 
REMARK    3  A    between atoms: C10_15  and  N2_16 
REMARK    4  A    between atoms: N2_16  and  C11_17 
ROOT
HETATM    1  C2  UNL     1      25.528   6.605  48.513  1.00  0.00     0.079 A 
HETATM    2  C3  UNL     1      26.868   6.302  48.577  1.00  0.00     0.040 A 
HETATM    3  C4  UNL     1      27.304   5.049  49.017  1.00  0.00     0.040 A 
HETATM    4  C5  UNL     1      26.339   4.124  49.383  1.00  0.00     0.086 A 
HETATM    5  C6  UNL     1      24.974   4.443  49.312  1.00  0.00    -0.004 A 
HETATM    6  C7  UNL     1      24.568   5.686  48.877  1.00  0.00     0.048 A 
HETATM    7  C8  UNL     1      23.839   3.565  49.650  1.00  0.00     0.161 C 
HETATM    8  N1  UNL     1      23.921   3.041  50.992  1.00  0.00    -0.379 N 
HETATM    9  C9  UNL     1      25.026   2.288  51.495  1.00  0.00     0.129 A 
HETATM   10  C10 UNL     1      24.659   1.604  52.634  1.00  0.00     0.160 A 
HETATM   11  N3  UNL     1      25.601   0.839  53.234  1.00  0.00    -0.222 NA
HETATM   12  C17 UNL     1      26.856   0.747  52.736  1.00  0.00     0.238 A 
HETATM   13  N4  UNL     1      27.234   1.411  51.619  1.00  0.00    -0.215 NA
HETATM   14  C18 UNL     1      26.310   2.185  50.996  1.00  0.00     0.202 A 
HETATM   15  O2  UNL     1      26.776   2.854  49.833  1.00  0.00    -0.289 OA
HETATM   16  H6  UNL     1      23.121   3.222  51.632  1.00  0.00     0.160 HD
ENDROOT
BRANCH  10  17
HETATM   17  N2  UNL     1      23.321   1.687  53.167  1.00  0.00    -0.339 N 
HETATM   18  H7  UNL     1      23.076   2.695  53.358  1.00  0.00     0.167 HD
BRANCH  17  19
HETATM   19  C11 UNL     1      22.382   0.662  53.442  1.00  0.00     0.035 A 
HETATM   20  C12 UNL     1      22.678  -0.381  54.296  1.00  0.00     0.029 A 
HETATM   21  C13 UNL     1      21.714  -1.338  54.482  1.00  0.00     0.004 A 
HETATM   22  C14 UNL     1      20.482  -1.306  53.863  1.00  0.00     0.019 A 
HETATM   23  C15 UNL     1      20.177  -0.258  53.003  1.00  0.00     0.013 A 
HETATM   24 BR1  UNL     1      18.457  -0.219  52.138  1.00  0.00    -0.051 Br
HETATM   25  C16 UNL     1      21.139   0.710  52.809  1.00  0.00     0.048 A 
ENDBRANCH  17  19
ENDBRANCH  10  17
BRANCH   1  26
HETATM   26  O1  UNL     1      25.275   7.917  48.050  1.00  0.00    -0.255 OA
BRANCH  26  27
HETATM   27  C1  UNL     1      24.805   8.863  49.019  1.00  0.00     0.530 C 
HETATM   28  F1  UNL     1      25.113  10.153  48.589  1.00  0.00    -0.144 F 
HETATM   29  F2  UNL     1      23.486   8.687  49.328  1.00  0.00    -0.144 F 
HETATM   30  F3  UNL     1      25.537   8.669  50.196  1.00  0.00    -0.144 F 
ENDBRANCH  26  27
ENDBRANCH   1  26
TORSDOF 4
ENDMDL
MODEL 8
REMARK VINA RESULT:      -8.1      6.149      8.492
REMARK  4 active torsions:
REMARK  status: ('A' for Active; 'I' for Inactive)
REMARK    1  A    between atoms: C1_2  and  O1_5 
REMARK    2  A    between atoms: O1_5  and  C2_6 
REMARK    3  A    between atoms: C10_15  and  N2_16 
REMARK    4  A    between atoms: N2_16  and  C11_17 
ROOT
HETATM    1  C2  UNL     1      24.654   4.748  49.836  1.00  0.00     0.079 A 
HETATM    2  C3  UNL     1      24.003   5.865  49.368  1.00  0.00     0.040 A 
HETATM    3  C4  UNL     1      24.670   6.816  48.589  1.00  0.00     0.040 A 
HETATM    4  C5  UNL     1      26.008   6.591  48.307  1.00  0.00     0.086 A 
HETATM    5  C6  UNL     1      26.663   5.446  48.788  1.00  0.00    -0.004 A 
HETATM    6  C7  UNL     1      25.985   4.524  49.555  1.00  0.00     0.048 A 
HETATM    7  C8  UNL     1      28.068   5.065  48.559  1.00  0.00     0.161 C 
HETATM    8  N1  UNL     1      28.996   6.093  48.962  1.00  0.00    -0.379 N 
HETATM    9  C9  UNL     1      28.978   7.433  48.467  1.00  0.00     0.129 A 
HETATM   10  C10 UNL     1      30.184   8.051  48.718  1.00  0.00     0.160 A 
HETATM   11  N3  UNL     1      30.327   9.333  48.306  1.00  0.00    -0.222 NA
HETATM   12  C17 UNL     1      29.324   9.985  47.673  1.00  0.00     0.238 A 
HETATM   13  N4  UNL     1      28.134   9.394  47.418  1.00  0.00    -0.215 NA
HETATM   14  C18 UNL     1      27.963   8.109  47.819  1.00  0.00     0.202 A 
HETATM   15  O2  UNL     1      26.690   7.553  47.522  1.00  0.00    -0.289 OA
HETATM   16  H6  UNL     1      29.728   5.838  49.657  1.00  0.00     0.160 HD
ENDROOT
BRANCH  10  17
HETATM   17  N2  UNL     1      31.264   7.362  49.383  1.00  0.00    -0.339 N 
HETATM   18  H7  UNL     1      31.066   7.307  50.419  1.00  0.00     0.167 HD
BRANCH  17  19
HETATM   19  C11 UNL     1      32.453   6.803  48.855  1.00  0.00     0.035 A 
HETATM   20  C12 UNL     1      33.582   7.567  48.648  1.00  0.00     0.029 A 
HETATM   21  C13 UNL     1      34.679   6.942  48.111  1.00  0.00     0.004 A 
HETATM   22  C14 UNL     1      34.702   5.604  47.775  1.00  0.00     0.019 A 
HETATM   23  C15 UNL     1      33.568   4.828  47.982  1.00  0.00     0.013 A 
HETATM   24 BR1  UNL     1      33.603   2.962  47.508  1.00  0.00    -0.051 Br
HETATM   25  C16 UNL     1      32.460   5.447  48.522  1.00  0.00     0.048 A 
ENDBRANCH  17  19
ENDBRANCH  10  17
BRANCH   1  26
HETATM   26  O1  UNL     1      23.823   3.901  50.607  1.00  0.00    -0.255 OA
BRANCH  26  27
HETATM   27  C1  UNL     1      23.140   2.855  49.904  1.00  0.00     0.530 C 
HETATM   28  F1  UNL     1      21.766   3.074  49.978  1.00  0.00    -0.144 F 
HETATM   29  F2  UNL     1      23.603   2.689  48.630  1.00  0.00    -0.144 F 
HETATM   30  F3  UNL     1      23.373   1.657  50.590  1.00  0.00    -0.144 F 
ENDBRANCH  26  27
ENDBRANCH   1  26
TORSDOF 4
ENDMDL
MODEL 9
REMARK VINA RESULT:      -8.1      4.664      6.491
REMARK  4 active torsions:
REMARK  status: ('A' for Active; 'I' for Inactive)
REMARK    1  A    between atoms: C1_2  and  O1_5 
REMARK    2  A    between atoms: O1_5  and  C2_6 
REMARK    3  A    between atoms: C10_15  and  N2_16 
REMARK    4  A    between atoms: N2_16  and  C11_17 
ROOT
HETATM    1  C2  UNL     1      24.164   2.928  51.995  1.00  0.00     0.079 A 
HETATM    2  C3  UNL     1      23.097   3.726  51.655  1.00  0.00     0.040 A 
HETATM    3  C4  UNL     1      23.167   4.598  50.564  1.00  0.00     0.040 A 
HETATM    4  C5  UNL     1      24.346   4.627  49.839  1.00  0.00     0.086 A 
HETATM    5  C6  UNL     1      25.430   3.807  50.192  1.00  0.00    -0.004 A 
HETATM    6  C7  UNL     1      25.339   2.957  51.273  1.00  0.00     0.048 A 
HETATM    7  C8  UNL     1      26.734   3.717  49.513  1.00  0.00     0.161 C 
HETATM    8  N1  UNL     1      27.393   4.995  49.400  1.00  0.00    -0.379 N 
HETATM    9  C9  UNL     1      26.820   6.143  48.772  1.00  0.00     0.129 A 
HETATM   10  C10 UNL     1      27.802   7.063  48.471  1.00  0.00     0.160 A 
HETATM   11  N3  UNL     1      27.418   8.212  47.868  1.00  0.00    -0.222 NA
HETATM   12  C17 UNL     1      26.119   8.451  47.570  1.00  0.00     0.238 A 
HETATM   13  N4  UNL     1      25.142   7.561  47.857  1.00  0.00    -0.215 NA
HETATM   14  C18 UNL     1      25.499   6.399  48.462  1.00  0.00     0.202 A 
HETATM   15  O2  UNL     1      24.424   5.512  48.735  1.00  0.00    -0.289 OA
HETATM   16  H6  UNL     1      28.349   5.084  49.802  1.00  0.00     0.160 HD
ENDROOT
BRANCH  10  17
HETATM   17  N2  UNL     1      29.190   6.814  48.775  1.00  0.00    -0.339 N 
HETATM   18  H7  UNL     1      29.342   6.872  49.818  1.00  0.00     0.167 HD
BRANCH  17  19
HETATM   19  C11 UNL     1      30.277   6.528  47.913  1.00  0.00     0.035 A 
HETATM   20  C12 UNL     1      30.801   7.483  47.067  1.00  0.00     0.029 A 
HETATM   21  C13 UNL     1      31.838   7.105  46.252  1.00  0.00     0.004 A 
HETATM   22  C14 UNL     1      32.371   5.833  46.241  1.00  0.00     0.019 A 
HETATM   23  C15 UNL     1      31.849   4.866  47.092  1.00  0.00     0.013 A 
HETATM   24 BR1  UNL     1      32.593   3.091  47.070  1.00  0.00    -0.051 Br
HETATM   25  C16 UNL     1      30.806   5.236  47.915  1.00  0.00     0.048 A 
ENDBRANCH  17  19
ENDBRANCH  10  17
BRANCH   1  26
HETATM   26  O1  UNL     1      23.915   2.115  53.125  1.00  0.00    -0.255 OA
BRANCH  26  27
HETATM   27  C1  UNL     1      23.065   0.978  52.925  1.00  0.00     0.530 C 
HETATM   28  F1  UNL     1      21.851   1.193  53.575  1.00  0.00    -0.144 F 
HETATM   29  F2  UNL     1      22.933   0.645  51.607  1.00  0.00    -0.144 F 
HETATM   30  F3  UNL     1      23.654  -0.115  53.572  1.00  0.00    -0.144 F 
ENDBRANCH  26  27
ENDBRANCH   1  26
TORSDOF 4
ENDMDL
