MODEL 1
REMARK VINA RESULT:     -10.0      0.000      0.000
REMARK  2 active torsions:
REMARK  status: ('A' for Active; 'I' for Inactive)
REMARK    1  A    between atoms: C3_3  and  C4_4 
REMARK    2  A    between atoms: C4_4  and  C5_5 
ROOT
HETATM    1  C5  UNL     1      22.770  -0.152  53.381  1.00  0.00     0.033 A 
HETATM    2  C6  UNL     1      22.537  -0.955  54.625  1.00  0.00     0.190 A 
HETATM    3  O1  UNL     1      23.043  -1.484  55.708  1.00  0.00    -0.171 OA
HETATM    4  N1  UNL     1      21.173  -1.375  54.777  1.00  0.00    -0.333 N 
HETATM    5  C7  UNL     1      20.634  -0.802  53.615  1.00  0.00     0.046 A 
HETATM    6  C8  UNL     1      19.354  -0.734  53.032  1.00  0.00     0.042 A 
HETATM    7  C9  UNL     1      19.053  -0.064  51.852  1.00  0.00    -0.024 A 
HETATM    8  C10 UNL     1      17.675  -0.166  51.449  1.00  0.00    -0.026 A 
HETATM    9  C11 UNL     1      17.255  -0.143  50.082  1.00  0.00     0.012 A 
HETATM   10  C12 UNL     1      15.927  -0.236  49.968  1.00  0.00     0.001 A 
HETATM   11  C13 UNL     1      14.853  -0.347  50.783  1.00  0.00     0.000 A 
HETATM   12  C14 UNL     1      15.306  -0.366  52.167  1.00  0.00     0.001 A 
HETATM   13  C15 UNL     1      16.651  -0.272  52.336  1.00  0.00     0.012 A 
HETATM   14  C16 UNL     1      20.011   0.606  51.131  1.00  0.00     0.013 A 
HETATM   15  C17 UNL     1      21.340   0.587  51.645  1.00  0.00     0.015 A 
HETATM   16  C18 UNL     1      21.477  -0.092  52.785  1.00  0.00     0.005 A 
HETATM   17  H5  UNL     1      20.524  -1.893  55.373  1.00  0.00     0.168 HD
ENDROOT
BRANCH   1  18
HETATM   18  C4  UNL     1      24.073   0.034  53.399  1.00  0.00     0.049 C 
BRANCH  18  19
HETATM   19  C3  UNL     1      25.423   0.272  53.464  1.00  0.00     0.062 C 
HETATM   20  C2  UNL     1      25.996   1.440  53.666  1.00  0.00     0.069 C 
HETATM   21  C1  UNL     1      24.953   2.526  53.832  1.00  0.00     0.078 C 
HETATM   22  O2  UNL     1      27.269   2.032  53.774  1.00  0.00    -0.353 OA
HETATM   23  C22 UNL     1      28.527   1.570  53.256  1.00  0.00     0.179 C 
HETATM   24  C21 UNL     1      29.042   0.407  54.082  1.00  0.00     0.055 C 
HETATM   25  C20 UNL     1      28.612  -0.874  53.457  1.00  0.00    -0.008 C 
HETATM   26  C19 UNL     1      27.502  -1.554  53.106  1.00  0.00     0.084 C 
HETATM   27  N2  UNL     1      26.203  -0.941  53.373  1.00  0.00    -0.364 N 
HETATM   28  H14 UNL     1      25.567  -1.771  53.597  1.00  0.00     0.165 HD
ENDBRANCH  18  19
ENDBRANCH   1  18
TORSDOF 2
ENDMDL
MODEL 2
REMARK VINA RESULT:      -9.6      2.609      8.813
REMARK  2 active torsions:
REMARK  status: ('A' for Active; 'I' for Inactive)
REMARK    1  A    between atoms: C3_3  and  C4_4 
REMARK    2  A    between atoms: C4_4  and  C5_5 
ROOT
HETATM    1  C5  UNL     1      21.807   0.629  52.548  1.00  0.00     0.033 A 
HETATM    2  C6  UNL     1      21.393  -0.584  53.323  1.00  0.00     0.190 A 
HETATM    3  O1  UNL     1      20.414  -1.328  53.769  1.00  0.00    -0.171 OA
HETATM    4  N1  UNL     1      22.504  -1.323  53.853  1.00  0.00    -0.333 N 
HETATM    5  C7  UNL     1      23.551  -0.523  53.369  1.00  0.00     0.046 A 
HETATM    6  C8  UNL     1      24.957  -0.568  53.432  1.00  0.00     0.042 A 
HETATM    7  C9  UNL     1      25.808   0.353  52.832  1.00  0.00    -0.024 A 
HETATM    8  C10 UNL     1      27.207   0.104  53.065  1.00  0.00    -0.026 A 
HETATM    9  C11 UNL     1      28.188   1.143  53.126  1.00  0.00     0.012 A 
HETATM   10  C12 UNL     1      29.415   0.658  53.336  1.00  0.00     0.001 A 
HETATM   11  C13 UNL     1      30.003  -0.548  53.510  1.00  0.00     0.000 A 
HETATM   12  C14 UNL     1      28.985  -1.587  53.441  1.00  0.00     0.001 A 
HETATM   13  C15 UNL     1      27.719  -1.144  53.227  1.00  0.00     0.012 A 
HETATM   14  C16 UNL     1      25.334   1.419  52.108  1.00  0.00     0.013 A 
HETATM   15  C17 UNL     1      23.919   1.547  51.995  1.00  0.00     0.015 A 
HETATM   16  C18 UNL     1      23.230   0.590  52.620  1.00  0.00     0.005 A 
HETATM   17  H5  UNL     1      22.772  -2.141  54.403  1.00  0.00     0.168 HD
ENDROOT
BRANCH   1  18
HETATM   18  C4  UNL     1      20.654   1.189  52.250  1.00  0.00     0.049 C 
BRANCH  18  19
HETATM   19  C3  UNL     1      19.429   1.752  51.996  1.00  0.00     0.062 C 
HETATM   20  C2  UNL     1      19.181   3.037  51.850  1.00  0.00     0.069 C 
HETATM   21  C1  UNL     1      20.453   3.847  51.990  1.00  0.00     0.078 C 
HETATM   22  O2  UNL     1      18.116   3.927  51.610  1.00  0.00    -0.353 OA
HETATM   23  C22 UNL     1      16.713   3.744  51.857  1.00  0.00     0.179 C 
HETATM   24  C21 UNL     1      16.113   2.812  50.820  1.00  0.00     0.055 C 
HETATM   25  C20 UNL     1      16.121   1.418  51.344  1.00  0.00    -0.008 C 
HETATM   26  C19 UNL     1      16.964   0.463  51.783  1.00  0.00     0.084 C 
HETATM   27  N2  UNL     1      18.394   0.762  51.809  1.00  0.00    -0.364 N 
HETATM   28  H14 UNL     1      18.857  -0.177  51.591  1.00  0.00     0.165 HD
ENDBRANCH  18  19
ENDBRANCH   1  18
TORSDOF 2
ENDMDL
MODEL 3
REMARK VINA RESULT:      -9.5      4.382      8.911
REMARK  2 active torsions:
REMARK  status: ('A' for Active; 'I' for Inactive)
REMARK    1  A    between atoms: C3_3  and  C4_4 
REMARK    2  A    between atoms: C4_4  and  C5_5 
ROOT
HETATM    1  C5  UNL     1      24.137   1.831  51.222  1.00  0.00     0.033 A 
HETATM    2  C6  UNL     1      25.236   1.127  51.959  1.00  0.00     0.190 A 
HETATM    3  O1  UNL     1      25.575   0.171  52.784  1.00  0.00    -0.171 OA
HETATM    4  N1  UNL     1      26.533   1.688  51.707  1.00  0.00    -0.333 N 
HETATM    5  C7  UNL     1      26.163   2.710  50.821  1.00  0.00     0.046 A 
HETATM    6  C8  UNL     1      26.849   3.704  50.096  1.00  0.00     0.042 A 
HETATM    7  C9  UNL     1      26.249   4.614  49.233  1.00  0.00    -0.024 A 
HETATM    8  C10 UNL     1      27.163   5.549  48.632  1.00  0.00    -0.026 A 
HETATM    9  C11 UNL     1      26.790   6.879  48.259  1.00  0.00     0.012 A 
HETATM   10  C12 UNL     1      27.808   7.546  47.707  1.00  0.00     0.001 A 
HETATM   11  C13 UNL     1      29.106   7.321  47.396  1.00  0.00     0.000 A 
HETATM   12  C14 UNL     1      29.459   5.963  47.783  1.00  0.00     0.001 A 
HETATM   13  C15 UNL     1      28.456   5.242  48.348  1.00  0.00     0.012 A 
HETATM   14  C16 UNL     1      24.894   4.622  49.011  1.00  0.00     0.013 A 
HETATM   15  C17 UNL     1      24.118   3.651  49.708  1.00  0.00     0.015 A 
HETATM   16  C18 UNL     1      24.829   2.844  50.498  1.00  0.00     0.005 A 
HETATM   17  H5  UNL     1      27.528   1.611  51.927  1.00  0.00     0.168 HD
ENDROOT
BRANCH   1  18
HETATM   18  C4  UNL     1      23.057   1.227  51.670  1.00  0.00     0.049 C 
BRANCH  18  19
HETATM   19  C3  UNL     1      21.966   0.544  52.146  1.00  0.00     0.062 C 
HETATM   20  C2  UNL     1      20.777   0.491  51.581  1.00  0.00     0.069 C 
HETATM   21  C1  UNL     1      20.759   1.293  50.296  1.00  0.00     0.078 C 
HETATM   22  O2  UNL     1      19.496  -0.061  51.774  1.00  0.00    -0.353 OA
HETATM   23  C22 UNL     1      18.870  -0.487  52.995  1.00  0.00     0.179 C 
HETATM   24  C21 UNL     1      19.463  -1.804  53.459  1.00  0.00     0.055 C 
HETATM   25  C20 UNL     1      20.566  -1.539  54.423  1.00  0.00    -0.008 C 
HETATM   26  C19 UNL     1      21.758  -0.916  54.514  1.00  0.00     0.084 C 
HETATM   27  N2  UNL     1      22.267  -0.220  53.333  1.00  0.00    -0.364 N 
HETATM   28  H14 UNL     1      23.326  -0.346  53.397  1.00  0.00     0.165 HD
ENDBRANCH  18  19
ENDBRANCH   1  18
TORSDOF 2
ENDMDL
MODEL 4
REMARK VINA RESULT:      -9.4      3.043      9.230
REMARK  2 active torsions:
REMARK  status: ('A' for Active; 'I' for Inactive)
REMARK    1  A    between atoms: C3_3  and  C4_4 
REMARK    2  A    between atoms: C4_4  and  C5_5 
ROOT
HETATM    1  C5  UNL     1      22.285   2.108  52.427  1.00  0.00     0.033 A 
HETATM    2  C6  UNL     1      22.689   3.535  52.212  1.00  0.00     0.190 A 
HETATM    3  O1  UNL     1      22.314   4.763  51.962  1.00  0.00    -0.171 OA
HETATM    4  N1  UNL     1      24.107   3.740  52.300  1.00  0.00    -0.333 N 
HETATM    5  C7  UNL     1      24.503   2.422  52.570  1.00  0.00     0.046 A 
HETATM    6  C8  UNL     1      25.730   1.775  52.814  1.00  0.00     0.042 A 
HETATM    7  C9  UNL     1      25.872   0.420  53.093  1.00  0.00    -0.024 A 
HETATM    8  C10 UNL     1      27.234  -0.006  53.277  1.00  0.00    -0.026 A 
HETATM    9  C11 UNL     1      27.695  -1.321  52.953  1.00  0.00     0.012 A 
HETATM   10  C12 UNL     1      28.992  -1.477  53.229  1.00  0.00     0.001 A 
HETATM   11  C13 UNL     1      30.009  -0.739  53.734  1.00  0.00     0.000 A 
HETATM   12  C14 UNL     1      29.515   0.592  54.057  1.00  0.00     0.001 A 
HETATM   13  C15 UNL     1      28.198   0.800  53.796  1.00  0.00     0.012 A 
HETATM   14  C16 UNL     1      24.793  -0.428  53.153  1.00  0.00     0.013 A 
HETATM   15  C17 UNL     1      23.509   0.141  52.915  1.00  0.00     0.015 A 
HETATM   16  C18 UNL     1      23.527   1.451  52.662  1.00  0.00     0.005 A 
HETATM   17  H5  UNL     1      24.851   4.437  52.239  1.00  0.00     0.168 HD
ENDROOT
BRANCH   1  18
HETATM   18  C4  UNL     1      20.987   2.140  52.207  1.00  0.00     0.049 C 
BRANCH  18  19
HETATM   19  C3  UNL     1      19.645   2.219  51.935  1.00  0.00     0.062 C 
HETATM   20  C2  UNL     1      18.781   1.227  52.000  1.00  0.00     0.069 C 
HETATM   21  C1  UNL     1      19.466  -0.053  52.435  1.00  0.00     0.078 C 
HETATM   22  O2  UNL     1      17.417   0.947  51.792  1.00  0.00    -0.353 OA
HETATM   23  C22 UNL     1      16.467   1.643  50.969  1.00  0.00     0.179 C 
HETATM   24  C21 UNL     1      16.057   2.948  51.627  1.00  0.00     0.055 C 
HETATM   25  C20 UNL     1      16.915   4.052  51.116  1.00  0.00    -0.008 C 
HETATM   26  C19 UNL     1      18.205   4.437  51.047  1.00  0.00     0.084 C 
HETATM   27  N2  UNL     1      19.219   3.566  51.638  1.00  0.00    -0.364 N 
HETATM   28  H14 UNL     1      19.959   4.245  52.004  1.00  0.00     0.165 HD
ENDBRANCH  18  19
ENDBRANCH   1  18
TORSDOF 2
ENDMDL
MODEL 5
REMARK VINA RESULT:      -9.2      5.864      7.839
REMARK  2 active torsions:
REMARK  status: ('A' for Active; 'I' for Inactive)
REMARK    1  A    between atoms: C3_3  and  C4_4 
REMARK    2  A    between atoms: C4_4  and  C5_5 
ROOT
HETATM    1  C5  UNL     1      24.871   5.289  50.397  1.00  0.00     0.033 A 
HETATM    2  C6  UNL     1      23.983   6.353  50.969  1.00  0.00     0.190 A 
HETATM    3  O1  UNL     1      23.657   7.619  51.001  1.00  0.00    -0.171 OA
HETATM    4  N1  UNL     1      23.034   5.845  51.918  1.00  0.00    -0.333 N 
HETATM    5  C7  UNL     1      23.386   4.488  51.878  1.00  0.00     0.046 A 
HETATM    6  C8  UNL     1      22.922   3.314  52.502  1.00  0.00     0.042 A 
HETATM    7  C9  UNL     1      23.429   2.039  52.274  1.00  0.00    -0.024 A 
HETATM    8  C10 UNL     1      22.803   1.006  53.056  1.00  0.00    -0.026 A 
HETATM    9  C11 UNL     1      23.487  -0.176  53.481  1.00  0.00     0.012 A 
HETATM   10  C12 UNL     1      22.689  -0.990  54.179  1.00  0.00     0.001 A 
HETATM   11  C13 UNL     1      21.404  -1.017  54.603  1.00  0.00     0.000 A 
HETATM   12  C14 UNL     1      20.731   0.194  54.156  1.00  0.00     0.001 A 
HETATM   13  C15 UNL     1      21.501   1.054  53.440  1.00  0.00     0.012 A 
HETATM   14  C16 UNL     1      24.460   1.812  51.395  1.00  0.00     0.013 A 
HETATM   15  C17 UNL     1      24.996   2.947  50.720  1.00  0.00     0.015 A 
HETATM   16  C18 UNL     1      24.409   4.103  51.037  1.00  0.00     0.005 A 
HETATM   17  H5  UNL     1      22.272   6.100  52.549  1.00  0.00     0.168 HD
ENDROOT
BRANCH   1  18
HETATM   18  C4  UNL     1      25.703   5.981  49.648  1.00  0.00     0.049 C 
BRANCH  18  19
HETATM   19  C3  UNL     1      26.528   6.750  48.866  1.00  0.00     0.062 C 
HETATM   20  C2  UNL     1      27.637   6.348  48.279  1.00  0.00     0.069 C 
HETATM   21  C1  UNL     1      27.897   4.884  48.571  1.00  0.00     0.078 C 
HETATM   22  O2  UNL     1      28.681   6.827  47.465  1.00  0.00    -0.353 OA
HETATM   23  C22 UNL     1      29.150   8.174  47.297  1.00  0.00     0.179 C 
HETATM   24  C21 UNL     1      28.177   8.968  46.445  1.00  0.00     0.055 C 
HETATM   25  C20 UNL     1      27.219   9.689  47.328  1.00  0.00    -0.008 C 
HETATM   26  C19 UNL     1      26.283   9.465  48.272  1.00  0.00     0.084 C 
HETATM   27  N2  UNL     1      26.011   8.082  48.660  1.00  0.00    -0.364 N 
HETATM   28  H14 UNL     1      24.965   8.079  48.884  1.00  0.00     0.165 HD
ENDBRANCH  18  19
ENDBRANCH   1  18
TORSDOF 2
ENDMDL
MODEL 6
REMARK VINA RESULT:      -9.2      5.731      7.580
REMARK  2 active torsions:
REMARK  status: ('A' for Active; 'I' for Inactive)
REMARK    1  A    between atoms: C3_3  and  C4_4 
REMARK    2  A    between atoms: C4_4  and  C5_5 
ROOT
HETATM    1  C5  UNL     1      24.955   5.202  50.311  1.00  0.00     0.033 A 
HETATM    2  C6  UNL     1      24.216   6.307  51.003  1.00  0.00     0.190 A 
HETATM    3  O1  UNL     1      24.006   7.592  51.115  1.00  0.00    -0.171 OA
HETATM    4  N1  UNL     1      23.312   5.835  52.013  1.00  0.00    -0.333 N 
HETATM    5  C7  UNL     1      23.539   4.457  51.886  1.00  0.00     0.046 A 
HETATM    6  C8  UNL     1      23.031   3.297  52.502  1.00  0.00     0.042 A 
HETATM    7  C9  UNL     1      23.403   1.997  52.178  1.00  0.00    -0.024 A 
HETATM    8  C10 UNL     1      22.760   0.983  52.971  1.00  0.00    -0.026 A 
HETATM    9  C11 UNL     1      23.372  -0.271  53.286  1.00  0.00     0.012 A 
HETATM   10  C12 UNL     1      22.570  -1.047  54.019  1.00  0.00     0.001 A 
HETATM   11  C13 UNL     1      21.329  -0.987  54.557  1.00  0.00     0.000 A 
HETATM   12  C14 UNL     1      20.728   0.295  54.221  1.00  0.00     0.001 A 
HETATM   13  C15 UNL     1      21.505   1.121  53.473  1.00  0.00     0.012 A 
HETATM   14  C16 UNL     1      24.330   1.727  51.202  1.00  0.00     0.013 A 
HETATM   15  C17 UNL     1      24.902   2.845  50.526  1.00  0.00     0.015 A 
HETATM   16  C18 UNL     1      24.448   4.028  50.941  1.00  0.00     0.005 A 
HETATM   17  H5  UNL     1      22.632   6.123  52.720  1.00  0.00     0.168 HD
ENDROOT
BRANCH   1  18
HETATM   18  C4  UNL     1      25.776   5.856  49.518  1.00  0.00     0.049 C 
BRANCH  18  19
HETATM   19  C3  UNL     1      26.645   6.483  48.660  1.00  0.00     0.062 C 
HETATM   20  C2  UNL     1      26.333   7.421  47.789  1.00  0.00     0.069 C 
HETATM   21  C1  UNL     1      24.855   7.743  47.855  1.00  0.00     0.078 C 
HETATM   22  O2  UNL     1      26.917   8.233  46.799  1.00  0.00    -0.353 OA
HETATM   23  C22 UNL     1      28.121   8.014  46.045  1.00  0.00     0.179 C 
HETATM   24  C21 UNL     1      29.339   8.268  46.913  1.00  0.00     0.055 C 
HETATM   25  C20 UNL     1      29.794   6.985  47.515  1.00  0.00    -0.008 C 
HETATM   26  C19 UNL     1      29.370   5.990  48.320  1.00  0.00     0.084 C 
HETATM   27  N2  UNL     1      28.014   6.070  48.860  1.00  0.00    -0.364 N 
HETATM   28  H14 UNL     1      28.095   5.619  49.827  1.00  0.00     0.165 HD
ENDBRANCH  18  19
ENDBRANCH   1  18
TORSDOF 2
ENDMDL
MODEL 7
REMARK VINA RESULT:      -9.0      7.279      9.619
REMARK  2 active torsions:
REMARK  status: ('A' for Active; 'I' for Inactive)
REMARK    1  A    between atoms: C3_3  and  C4_4 
REMARK    2  A    between atoms: C4_4  and  C5_5 
ROOT
HETATM    1  C5  UNL     1      28.788   5.752  48.120  1.00  0.00     0.033 A 
HETATM    2  C6  UNL     1      28.711   7.145  47.572  1.00  0.00     0.190 A 
HETATM    3  O1  UNL     1      29.336   8.144  47.006  1.00  0.00    -0.171 OA
HETATM    4  N1  UNL     1      27.400   7.719  47.674  1.00  0.00    -0.333 N 
HETATM    5  C7  UNL     1      26.733   6.643  48.278  1.00  0.00     0.046 A 
HETATM    6  C8  UNL     1      25.413   6.389  48.695  1.00  0.00     0.042 A 
HETATM    7  C9  UNL     1      24.974   5.197  49.261  1.00  0.00    -0.024 A 
HETATM    8  C10 UNL     1      23.582   5.195  49.629  1.00  0.00    -0.026 A 
HETATM    9  C11 UNL     1      23.062   4.433  50.721  1.00  0.00     0.012 A 
HETATM   10  C12 UNL     1      21.741   4.584  50.851  1.00  0.00     0.001 A 
HETATM   11  C13 UNL     1      20.742   5.260  50.237  1.00  0.00     0.000 A 
HETATM   12  C14 UNL     1      21.296   6.026  49.130  1.00  0.00     0.001 A 
HETATM   13  C15 UNL     1      22.637   5.903  48.955  1.00  0.00     0.012 A 
HETATM   14  C16 UNL     1      25.819   4.136  49.471  1.00  0.00     0.013 A 
HETATM   15  C17 UNL     1      27.180   4.305  49.082  1.00  0.00     0.015 A 
HETATM   16  C18 UNL     1      27.454   5.499  48.552  1.00  0.00     0.005 A 
HETATM   17  H5  UNL     1      26.840   8.552  47.482  1.00  0.00     0.168 HD
ENDROOT
BRANCH   1  18
HETATM   18  C4  UNL     1      30.070   5.471  48.015  1.00  0.00     0.049 C 
BRANCH  18  19
HETATM   19  C3  UNL     1      31.400   5.140  47.957  1.00  0.00     0.062 C 
HETATM   20  C2  UNL     1      32.371   5.706  48.643  1.00  0.00     0.069 C 
HETATM   21  C1  UNL     1      31.826   6.796  49.542  1.00  0.00     0.078 C 
HETATM   22  O2  UNL     1      33.766   5.644  48.822  1.00  0.00    -0.353 OA
HETATM   23  C22 UNL     1      34.771   5.144  47.925  1.00  0.00     0.179 C 
HETATM   24  C21 UNL     1      34.748   3.627  47.901  1.00  0.00     0.055 C 
HETATM   25  C20 UNL     1      33.887   3.162  46.779  1.00  0.00    -0.008 C 
HETATM   26  C19 UNL     1      32.620   3.235  46.323  1.00  0.00     0.084 C 
HETATM   27  N2  UNL     1      31.650   4.004  47.100  1.00  0.00    -0.364 N 
HETATM   28  H14 UNL     1      30.731   3.477  46.957  1.00  0.00     0.165 HD
ENDBRANCH  18  19
ENDBRANCH   1  18
TORSDOF 2
ENDMDL
MODEL 8
REMARK VINA RESULT:      -8.9      5.891      8.014
REMARK  2 active torsions:
REMARK  status: ('A' for Active; 'I' for Inactive)
REMARK    1  A    between atoms: C3_3  and  C4_4 
REMARK    2  A    between atoms: C4_4  and  C5_5 
ROOT
HETATM    1  C5  UNL     1      25.366   4.983  50.215  1.00  0.00     0.033 A 
HETATM    2  C6  UNL     1      26.456   4.105  49.680  1.00  0.00     0.190 A 
HETATM    3  O1  UNL     1      27.549   4.012  48.969  1.00  0.00    -0.171 OA
HETATM    4  N1  UNL     1      26.319   2.731  50.074  1.00  0.00    -0.333 N 
HETATM    5  C7  UNL     1      25.148   2.837  50.839  1.00  0.00     0.046 A 
HETATM    6  C8  UNL     1      24.358   1.946  51.591  1.00  0.00     0.042 A 
HETATM    7  C9  UNL     1      23.221   2.302  52.307  1.00  0.00    -0.024 A 
HETATM    8  C10 UNL     1      22.573   1.203  52.972  1.00  0.00    -0.026 A 
HETATM    9  C11 UNL     1      21.163   1.153  53.210  1.00  0.00     0.012 A 
HETATM   10  C12 UNL     1      20.806   0.040  53.856  1.00  0.00     0.001 A 
HETATM   11  C13 UNL     1      21.402  -1.068  54.357  1.00  0.00     0.000 A 
HETATM   12  C14 UNL     1      22.834  -0.992  54.103  1.00  0.00     0.001 A 
HETATM   13  C15 UNL     1      23.248   0.124  53.449  1.00  0.00     0.012 A 
HETATM   14  C16 UNL     1      22.756   3.594  52.340  1.00  0.00     0.013 A 
HETATM   15  C17 UNL     1      23.493   4.566  51.602  1.00  0.00     0.015 A 
HETATM   16  C18 UNL     1      24.561   4.079  50.967  1.00  0.00     0.005 A 
HETATM   17  H5  UNL     1      26.733   1.800  49.999  1.00  0.00     0.168 HD
ENDROOT
BRANCH   1  18
HETATM   18  C4  UNL     1      25.634   6.146  49.660  1.00  0.00     0.049 C 
BRANCH  18  19
HETATM   19  C3  UNL     1      25.907   7.385  49.139  1.00  0.00     0.062 C 
HETATM   20  C2  UNL     1      25.247   7.982  48.167  1.00  0.00     0.069 C 
HETATM   21  C1  UNL     1      24.105   7.111  47.684  1.00  0.00     0.078 C 
HETATM   22  O2  UNL     1      25.247   9.169  47.411  1.00  0.00    -0.353 OA
HETATM   23  C22 UNL     1      26.332  10.073  47.149  1.00  0.00     0.179 C 
HETATM   24  C21 UNL     1      26.632  10.907  48.381  1.00  0.00     0.055 C 
HETATM   25  C20 UNL     1      27.711  10.254  49.171  1.00  0.00    -0.008 C 
HETATM   26  C19 UNL     1      27.994   9.107  49.820  1.00  0.00     0.084 C 
HETATM   27  N2  UNL     1      26.982   8.053  49.836  1.00  0.00    -0.364 N 
HETATM   28  H14 UNL     1      27.111   7.587  50.789  1.00  0.00     0.165 HD
ENDBRANCH  18  19
ENDBRANCH   1  18
TORSDOF 2
ENDMDL
MODEL 9
REMARK VINA RESULT:      -8.9      6.585      8.826
REMARK  2 active torsions:
REMARK  status: ('A' for Active; 'I' for Inactive)
REMARK    1  A    between atoms: C3_3  and  C4_4 
REMARK    2  A    between atoms: C4_4  and  C5_5 
ROOT
HETATM    1  C5  UNL     1      26.085   5.374  49.024  1.00  0.00     0.033 A 
HETATM    2  C6  UNL     1      24.800   6.100  48.764  1.00  0.00     0.190 A 
HETATM    3  O1  UNL     1      24.201   7.113  48.195  1.00  0.00    -0.171 OA
HETATM    4  N1  UNL     1      23.664   5.474  49.379  1.00  0.00    -0.333 N 
HETATM    5  C7  UNL     1      24.311   4.387  49.985  1.00  0.00     0.046 A 
HETATM    6  C8  UNL     1      23.905   3.286  50.762  1.00  0.00     0.042 A 
HETATM    7  C9  UNL     1      24.755   2.294  51.240  1.00  0.00    -0.024 A 
HETATM    8  C10 UNL     1      24.101   1.288  52.035  1.00  0.00    -0.026 A 
HETATM    9  C11 UNL     1      24.750   0.587  53.099  1.00  0.00     0.012 A 
HETATM   10  C12 UNL     1      23.940  -0.306  53.674  1.00  0.00     0.001 A 
HETATM   11  C13 UNL     1      22.667  -0.744  53.537  1.00  0.00     0.000 A 
HETATM   12  C14 UNL     1      22.030  -0.017  52.449  1.00  0.00     0.001 A 
HETATM   13  C15 UNL     1      22.814   0.903  51.830  1.00  0.00     0.012 A 
HETATM   14  C16 UNL     1      26.105   2.309  50.989  1.00  0.00     0.013 A 
HETATM   15  C17 UNL     1      26.606   3.393  50.211  1.00  0.00     0.015 A 
HETATM   16  C18 UNL     1      25.676   4.265  49.820  1.00  0.00     0.005 A 
HETATM   17  H5  UNL     1      22.653   5.537  49.516  1.00  0.00     0.168 HD
ENDROOT
BRANCH   1  18
HETATM   18  C4  UNL     1      26.979   6.160  48.464  1.00  0.00     0.049 C 
BRANCH  18  19
HETATM   19  C3  UNL     1      27.884   7.030  47.911  1.00  0.00     0.062 C 
HETATM   20  C2  UNL     1      29.163   6.790  47.701  1.00  0.00     0.069 C 
HETATM   21  C1  UNL     1      29.525   5.390  48.150  1.00  0.00     0.078 C 
HETATM   22  O2  UNL     1      30.325   7.407  47.200  1.00  0.00    -0.353 OA
HETATM   23  C22 UNL     1      30.630   8.806  47.091  1.00  0.00     0.179 C 
HETATM   24  C21 UNL     1      29.856   9.426  45.942  1.00  0.00     0.055 C 
HETATM   25  C20 UNL     1      28.587  10.010  46.457  1.00  0.00    -0.008 C 
HETATM   26  C19 UNL     1      27.452   9.664  47.097  1.00  0.00     0.084 C 
HETATM   27  N2  UNL     1      27.272   8.264  47.476  1.00  0.00    -0.364 N 
HETATM   28  H14 UNL     1      26.218   8.106  47.384  1.00  0.00     0.165 HD
ENDBRANCH  18  19
ENDBRANCH   1  18
TORSDOF 2
ENDMDL
