MODEL 1
REMARK VINA RESULT:      -8.5      0.000      0.000
REMARK  5 active torsions:
REMARK  status: ('A' for Active; 'I' for Inactive)
REMARK    1  A    between atoms: C4_6  and  C5_7 
REMARK    2  A    between atoms: C5_7  and  O1_8 
REMARK    3  A    between atoms: O1_8  and  C6_9 
REMARK    4  A    between atoms: C8_11  and  N3_12 
REMARK    5  A    between atoms: N3_12  and  C9_13 
ROOT
HETATM    1  C6  UNL     1      27.049   1.934  51.757  1.00  0.00     0.094 C 
HETATM    2  C7  UNL     1      26.749   0.631  52.060  1.00  0.00     0.067 C 
HETATM    3  C8  UNL     1      27.071   0.238  53.514  1.00  0.00     0.153 C 
HETATM    4  C15 UNL     1      26.605   1.625  54.090  1.00  0.00     0.122 C 
HETATM    5  C16 UNL     1      27.651   2.198  53.116  1.00  0.00     0.073 C 
HETATM    6  N4  UNL     1      28.627   2.594  53.960  1.00  0.00    -0.244 NA
HETATM    7  C17 UNL     1      29.166   1.234  54.431  1.00  0.00     0.230 C 
HETATM    8  N5  UNL     1      28.472   0.261  53.830  1.00  0.00    -0.246 NA
ENDROOT
BRANCH   3   9
HETATM    9  N3  UNL     1      26.294  -0.830  53.937  1.00  0.00    -0.358 N 
HETATM   10  H9  UNL     1      26.826  -1.738  54.101  1.00  0.00     0.162 HD
BRANCH   9  11
HETATM   11  C9  UNL     1      24.912  -0.901  54.184  1.00  0.00     0.032 A 
HETATM   12  C10 UNL     1      24.306  -1.326  55.345  1.00  0.00     0.032 A 
HETATM   13  C11 UNL     1      22.965  -1.396  55.582  1.00  0.00     0.046 A 
HETATM   14  C12 UNL     1      22.142  -1.001  54.550  1.00  0.00     0.138 A 
HETATM   15  F1  UNL     1      20.800  -1.044  54.713  1.00  0.00    -0.204 F 
HETATM   16  C13 UNL     1      22.628  -0.558  53.344  1.00  0.00     0.074 A 
HETATM   17 CL1  UNL     1      21.563  -0.069  52.068  1.00  0.00    -0.081 Cl
HETATM   18  C14 UNL     1      23.993  -0.522  53.197  1.00  0.00     0.056 A 
ENDBRANCH   9  11
ENDBRANCH   3   9
BRANCH   1  19
HETATM   19  O1  UNL     1      27.094   3.030  50.950  1.00  0.00    -0.347 OA
BRANCH  19  20
HETATM   20  C5  UNL     1      26.238   3.243  49.842  1.00  0.00     0.209 C 
BRANCH  20  21
HETATM   21  C4  UNL     1      25.326   4.399  50.276  1.00  0.00     0.180 A 
HETATM   22  C2  UNL     1      23.932   3.946  50.436  1.00  0.00     0.036 A 
HETATM   23  C1  UNL     1      23.546   2.968  51.500  1.00  0.00     0.068 C 
HETATM   24  N1  UNL     1      23.225   4.537  49.536  1.00  0.00    -0.249 NA
HETATM   25  C3  UNL     1      24.067   5.384  48.755  1.00  0.00     0.227 A 
HETATM   26  N2  UNL     1      25.275   5.313  49.171  1.00  0.00    -0.270 NA
ENDBRANCH  20  21
ENDBRANCH  19  20
ENDBRANCH   1  19
TORSDOF 5
ENDMDL
MODEL 2
REMARK VINA RESULT:      -8.3      3.184      6.049
REMARK  5 active torsions:
REMARK  status: ('A' for Active; 'I' for Inactive)
REMARK    1  A    between atoms: C4_6  and  C5_7 
REMARK    2  A    between atoms: C5_7  and  O1_8 
REMARK    3  A    between atoms: O1_8  and  C6_9 
REMARK    4  A    between atoms: C8_11  and  N3_12 
REMARK    5  A    between atoms: N3_12  and  C9_13 
ROOT
HETATM    1  C6  UNL     1      22.767   2.085  51.235  1.00  0.00     0.094 C 
HETATM    2  C7  UNL     1      24.070   2.134  50.811  1.00  0.00     0.067 C 
HETATM    3  C8  UNL     1      24.892   3.271  51.446  1.00  0.00     0.153 C 
HETATM    4  C15 UNL     1      24.210   3.102  52.854  1.00  0.00     0.122 C 
HETATM    5  C16 UNL     1      22.906   3.335  52.069  1.00  0.00     0.073 C 
HETATM    6  N4  UNL     1      22.563   4.579  52.466  1.00  0.00    -0.244 NA
HETATM    7  C17 UNL     1      23.650   5.411  51.767  1.00  0.00     0.230 C 
HETATM    8  N5  UNL     1      24.451   4.588  51.079  1.00  0.00    -0.246 NA
ENDROOT
BRANCH   3   9
HETATM    9  N3  UNL     1      26.248   2.981  51.446  1.00  0.00    -0.358 N 
HETATM   10  H9  UNL     1      26.830   3.549  50.759  1.00  0.00     0.162 HD
BRANCH   9  11
HETATM   11  C9  UNL     1      26.975   2.054  52.213  1.00  0.00     0.032 A 
HETATM   12  C10 UNL     1      27.955   2.341  53.136  1.00  0.00     0.032 A 
HETATM   13  C11 UNL     1      28.660   1.440  53.878  1.00  0.00     0.046 A 
HETATM   14  C12 UNL     1      28.356   0.112  53.674  1.00  0.00     0.138 A 
HETATM   15  F1  UNL     1      29.016  -0.839  54.375  1.00  0.00    -0.204 F 
HETATM   16  C13 UNL     1      27.398  -0.300  52.780  1.00  0.00     0.074 A 
HETATM   17 CL1  UNL     1      27.041  -1.979  52.550  1.00  0.00    -0.081 Cl
HETATM   18  C14 UNL     1      26.738   0.680  52.078  1.00  0.00     0.056 A 
ENDBRANCH   9  11
ENDBRANCH   3   9
BRANCH   1  19
HETATM   19  O1  UNL     1      21.514   1.556  51.299  1.00  0.00    -0.347 OA
BRANCH  19  20
HETATM   20  C5  UNL     1      21.231   0.202  51.598  1.00  0.00     0.209 C 
BRANCH  20  21
HETATM   21  C4  UNL     1      21.178   0.148  53.131  1.00  0.00     0.180 A 
HETATM   22  C2  UNL     1      22.161  -0.814  53.664  1.00  0.00     0.036 A 
HETATM   23  C1  UNL     1      23.633  -0.589  53.516  1.00  0.00     0.068 C 
HETATM   24  N1  UNL     1      21.506  -1.774  54.219  1.00  0.00    -0.249 NA
HETATM   25  C3  UNL     1      20.107  -1.523  54.096  1.00  0.00     0.227 A 
HETATM   26  N2  UNL     1      19.907  -0.423  53.474  1.00  0.00    -0.270 NA
ENDBRANCH  20  21
ENDBRANCH  19  20
ENDBRANCH   1  19
TORSDOF 5
ENDMDL
MODEL 3
REMARK VINA RESULT:      -8.1      2.148      5.085
REMARK  5 active torsions:
REMARK  status: ('A' for Active; 'I' for Inactive)
REMARK    1  A    between atoms: C4_6  and  C5_7 
REMARK    2  A    between atoms: C5_7  and  O1_8 
REMARK    3  A    between atoms: O1_8  and  C6_9 
REMARK    4  A    between atoms: C8_11  and  N3_12 
REMARK    5  A    between atoms: N3_12  and  C9_13 
ROOT
HETATM    1  C6  UNL     1      26.237   2.197  53.517  1.00  0.00     0.094 C 
HETATM    2  C7  UNL     1      24.902   2.506  53.541  1.00  0.00     0.067 C 
HETATM    3  C8  UNL     1      24.259   2.608  52.145  1.00  0.00     0.153 C 
HETATM    4  C15 UNL     1      25.087   1.398  51.574  1.00  0.00     0.122 C 
HETATM    5  C16 UNL     1      26.303   2.236  52.010  1.00  0.00     0.073 C 
HETATM    6  N4  UNL     1      26.793   2.651  50.822  1.00  0.00    -0.244 NA
HETATM    7  C17 UNL     1      25.703   3.648  50.398  1.00  0.00     0.230 C 
HETATM    8  N5  UNL     1      24.761   3.691  51.347  1.00  0.00    -0.246 NA
ENDROOT
BRANCH   3   9
HETATM    9  N3  UNL     1      22.893   2.373  52.195  1.00  0.00    -0.358 N 
HETATM   10  H9  UNL     1      22.288   3.144  51.777  1.00  0.00     0.162 HD
BRANCH   9  11
HETATM   11  C9  UNL     1      22.182   1.276  52.711  1.00  0.00     0.032 A 
HETATM   12  C10 UNL     1      22.622   0.387  53.665  1.00  0.00     0.032 A 
HETATM   13  C11 UNL     1      21.932  -0.678  54.163  1.00  0.00     0.046 A 
HETATM   14  C12 UNL     1      20.667  -0.876  53.654  1.00  0.00     0.138 A 
HETATM   15  F1  UNL     1      19.923  -1.914  54.101  1.00  0.00    -0.204 F 
HETATM   16  C13 UNL     1      20.117  -0.057  52.698  1.00  0.00     0.074 A 
HETATM   17 CL1  UNL     1      18.524  -0.337  52.080  1.00  0.00    -0.081 Cl
HETATM   18  C14 UNL     1      20.888   0.991  52.256  1.00  0.00     0.056 A 
ENDBRANCH   9  11
ENDBRANCH   3   9
BRANCH   1  19
HETATM   19  O1  UNL     1      27.441   1.899  54.081  1.00  0.00    -0.347 OA
BRANCH  19  20
HETATM   20  C5  UNL     1      27.811   0.614  54.546  1.00  0.00     0.209 C 
BRANCH  20  21
HETATM   21  C4  UNL     1      28.532  -0.034  53.357  1.00  0.00     0.180 A 
HETATM   22  C2  UNL     1      28.016  -1.391  53.098  1.00  0.00     0.036 A 
HETATM   23  C1  UNL     1      26.610  -1.618  52.636  1.00  0.00     0.068 C 
HETATM   24  N1  UNL     1      28.968  -2.224  53.341  1.00  0.00    -0.249 NA
HETATM   25  C3  UNL     1      30.127  -1.505  53.759  1.00  0.00     0.227 A 
HETATM   26  N2  UNL     1      29.889  -0.248  53.772  1.00  0.00    -0.270 NA
ENDBRANCH  20  21
ENDBRANCH  19  20
ENDBRANCH   1  19
TORSDOF 5
ENDMDL
MODEL 4
REMARK VINA RESULT:      -7.9      3.893      7.373
REMARK  5 active torsions:
REMARK  status: ('A' for Active; 'I' for Inactive)
REMARK    1  A    between atoms: C4_6  and  C5_7 
REMARK    2  A    between atoms: C5_7  and  O1_8 
REMARK    3  A    between atoms: O1_8  and  C6_9 
REMARK    4  A    between atoms: C8_11  and  N3_12 
REMARK    5  A    between atoms: N3_12  and  C9_13 
ROOT
HETATM    1  C6  UNL     1      26.015   2.151  52.932  1.00  0.00     0.094 C 
HETATM    2  C7  UNL     1      26.049   2.420  51.588  1.00  0.00     0.067 C 
HETATM    3  C8  UNL     1      24.661   2.650  50.962  1.00  0.00     0.153 C 
HETATM    4  C15 UNL     1      24.122   3.432  52.216  1.00  0.00     0.122 C 
HETATM    5  C16 UNL     1      24.506   2.149  52.977  1.00  0.00     0.073 C 
HETATM    6  N4  UNL     1      23.296   1.619  53.252  1.00  0.00    -0.244 NA
HETATM    7  C17 UNL     1      22.852   1.178  51.848  1.00  0.00     0.230 C 
HETATM    8  N5  UNL     1      23.814   1.490  50.972  1.00  0.00    -0.246 NA
ENDROOT
BRANCH   3   9
HETATM    9  N3  UNL     1      24.742   3.425  49.815  1.00  0.00    -0.358 N 
HETATM   10  H9  UNL     1      24.054   3.164  49.044  1.00  0.00     0.162 HD
BRANCH   9  11
HETATM   11  C9  UNL     1      25.591   4.503  49.509  1.00  0.00     0.032 A 
HETATM   12  C10 UNL     1      26.828   4.430  48.909  1.00  0.00     0.032 A 
HETATM   13  C11 UNL     1      27.651   5.477  48.616  1.00  0.00     0.046 A 
HETATM   14  C12 UNL     1      27.190   6.729  48.959  1.00  0.00     0.138 A 
HETATM   15  F1  UNL     1      27.954   7.815  48.698  1.00  0.00    -0.204 F 
HETATM   16  C13 UNL     1      25.973   6.931  49.563  1.00  0.00     0.074 A 
HETATM   17 CL1  UNL     1      25.426   8.519  49.981  1.00  0.00    -0.081 Cl
HETATM   18  C14 UNL     1      25.212   5.815  49.820  1.00  0.00     0.056 A 
ENDBRANCH   9  11
ENDBRANCH   3   9
BRANCH   1  19
HETATM   19  O1  UNL     1      26.569   1.901  54.150  1.00  0.00    -0.347 OA
BRANCH  19  20
HETATM   20  C5  UNL     1      27.098   0.648  54.547  1.00  0.00     0.209 C 
BRANCH  20  21
HETATM   21  C4  UNL     1      28.034   0.243  53.401  1.00  0.00     0.180 A 
HETATM   22  C2  UNL     1      27.842  -1.171  53.032  1.00  0.00     0.036 A 
HETATM   23  C1  UNL     1      26.559  -1.655  52.432  1.00  0.00     0.068 C 
HETATM   24  N1  UNL     1      28.927  -1.802  53.324  1.00  0.00    -0.249 NA
HETATM   25  C3  UNL     1      29.868  -0.886  53.881  1.00  0.00     0.227 A 
HETATM   26  N2  UNL     1      29.368   0.290  53.930  1.00  0.00    -0.270 NA
ENDBRANCH  20  21
ENDBRANCH  19  20
ENDBRANCH   1  19
TORSDOF 5
ENDMDL
MODEL 5
REMARK VINA RESULT:      -7.7      3.750      6.352
REMARK  5 active torsions:
REMARK  status: ('A' for Active; 'I' for Inactive)
REMARK    1  A    between atoms: C4_6  and  C5_7 
REMARK    2  A    between atoms: C5_7  and  O1_8 
REMARK    3  A    between atoms: O1_8  and  C6_9 
REMARK    4  A    between atoms: C8_11  and  N3_12 
REMARK    5  A    between atoms: N3_12  and  C9_13 
ROOT
HETATM    1  C6  UNL     1      22.371   2.167  51.475  1.00  0.00     0.094 C 
HETATM    2  C7  UNL     1      23.586   1.997  50.863  1.00  0.00     0.067 C 
HETATM    3  C8  UNL     1      24.647   3.031  51.282  1.00  0.00     0.153 C 
HETATM    4  C15 UNL     1      24.175   3.043  52.783  1.00  0.00     0.122 C 
HETATM    5  C16 UNL     1      22.811   3.426  52.182  1.00  0.00     0.073 C 
HETATM    6  N4  UNL     1      22.711   4.727  52.528  1.00  0.00    -0.244 NA
HETATM    7  C17 UNL     1      23.781   5.347  51.615  1.00  0.00     0.230 C 
HETATM    8  N5  UNL     1      24.342   4.377  50.884  1.00  0.00    -0.246 NA
ENDROOT
BRANCH   3   9
HETATM    9  N3  UNL     1      25.932   2.542  51.107  1.00  0.00    -0.358 N 
HETATM   10  H9  UNL     1      26.428   2.882  50.227  1.00  0.00     0.162 HD
BRANCH   9  11
HETATM   11  C9  UNL     1      26.685   1.667  51.909  1.00  0.00     0.032 A 
HETATM   12  C10 UNL     1      26.582   0.295  51.948  1.00  0.00     0.032 A 
HETATM   13  C11 UNL     1      27.310  -0.553  52.728  1.00  0.00     0.046 A 
HETATM   14  C12 UNL     1      28.241   0.032  53.558  1.00  0.00     0.138 A 
HETATM   15  F1  UNL     1      29.002  -0.747  54.362  1.00  0.00    -0.204 F 
HETATM   16  C13 UNL     1      28.438   1.391  53.610  1.00  0.00     0.074 A 
HETATM   17 CL1  UNL     1      29.617   2.092  54.666  1.00  0.00    -0.081 Cl
HETATM   18  C14 UNL     1      27.656   2.165  52.786  1.00  0.00     0.056 A 
ENDBRANCH   9  11
ENDBRANCH   3   9
BRANCH   1  19
HETATM   19  O1  UNL     1      21.081   1.835  51.762  1.00  0.00    -0.347 OA
BRANCH  19  20
HETATM   20  C5  UNL     1      20.559   0.521  51.696  1.00  0.00     0.209 C 
BRANCH  20  21
HETATM   21  C4  UNL     1      19.942   0.280  53.080  1.00  0.00     0.180 A 
HETATM   22  C2  UNL     1      20.702  -0.736  53.831  1.00  0.00     0.036 A 
HETATM   23  C1  UNL     1      22.110  -0.491  54.273  1.00  0.00     0.068 C 
HETATM   24  N1  UNL     1      19.935  -1.760  53.988  1.00  0.00    -0.249 NA
HETATM   25  C3  UNL     1      18.672  -1.499  53.378  1.00  0.00     0.227 A 
HETATM   26  N2  UNL     1      18.664  -0.332  52.854  1.00  0.00    -0.270 NA
ENDBRANCH  20  21
ENDBRANCH  19  20
ENDBRANCH   1  19
TORSDOF 5
ENDMDL
MODEL 6
REMARK VINA RESULT:      -7.7      3.103      5.777
REMARK  5 active torsions:
REMARK  status: ('A' for Active; 'I' for Inactive)
REMARK    1  A    between atoms: C4_6  and  C5_7 
REMARK    2  A    between atoms: C5_7  and  O1_8 
REMARK    3  A    between atoms: O1_8  and  C6_9 
REMARK    4  A    between atoms: C8_11  and  N3_12 
REMARK    5  A    between atoms: N3_12  and  C9_13 
ROOT
HETATM    1  C6  UNL     1      24.471   0.249  52.906  1.00  0.00     0.094 C 
HETATM    2  C7  UNL     1      23.307   0.784  53.394  1.00  0.00     0.067 C 
HETATM    3  C8  UNL     1      22.785   1.987  52.586  1.00  0.00     0.153 C 
HETATM    4  C15 UNL     1      23.200   1.358  51.205  1.00  0.00     0.122 C 
HETATM    5  C16 UNL     1      24.604   1.306  51.836  1.00  0.00     0.073 C 
HETATM    6  N4  UNL     1      25.246   2.284  51.162  1.00  0.00    -0.244 NA
HETATM    7  C17 UNL     1      24.553   3.529  51.739  1.00  0.00     0.230 C 
HETATM    8  N5  UNL     1      23.639   3.140  52.636  1.00  0.00    -0.246 NA
ENDROOT
BRANCH   3   9
HETATM    9  N3  UNL     1      21.415   2.145  52.736  1.00  0.00    -0.358 N 
HETATM   10  H9  UNL     1      21.122   2.928  53.396  1.00  0.00     0.162 HD
BRANCH   9  11
HETATM   11  C9  UNL     1      20.353   1.434  52.152  1.00  0.00     0.032 A 
HETATM   12  C10 UNL     1      19.786   1.669  50.920  1.00  0.00     0.032 A 
HETATM   13  C11 UNL     1      18.754   0.980  50.356  1.00  0.00     0.046 A 
HETATM   14  C12 UNL     1      18.232  -0.054  51.102  1.00  0.00     0.138 A 
HETATM   15  F1  UNL     1      17.206  -0.784  50.606  1.00  0.00    -0.204 F 
HETATM   16  C13 UNL     1      18.713  -0.387  52.345  1.00  0.00     0.074 A 
HETATM   17 CL1  UNL     1      18.033  -1.693  53.255  1.00  0.00    -0.081 Cl
HETATM   18  C14 UNL     1      19.755   0.365  52.832  1.00  0.00     0.056 A 
ENDBRANCH   9  11
ENDBRANCH   3   9
BRANCH   1  19
HETATM   19  O1  UNL     1      25.493  -0.651  52.874  1.00  0.00    -0.347 OA
BRANCH  19  20
HETATM   20  C5  UNL     1      26.795  -0.367  52.397  1.00  0.00     0.209 C 
BRANCH  20  21
HETATM   21  C4  UNL     1      27.654  -0.250  53.663  1.00  0.00     0.180 A 
HETATM   22  C2  UNL     1      28.623   0.855  53.549  1.00  0.00     0.036 A 
HETATM   23  C1  UNL     1      28.176   2.281  53.470  1.00  0.00     0.068 C 
HETATM   24  N1  UNL     1      29.803   0.339  53.536  1.00  0.00    -0.249 NA
HETATM   25  C3  UNL     1      29.698  -1.080  53.637  1.00  0.00     0.227 A 
HETATM   26  N2  UNL     1      28.470  -1.430  53.711  1.00  0.00    -0.270 NA
ENDBRANCH  20  21
ENDBRANCH  19  20
ENDBRANCH   1  19
TORSDOF 5
ENDMDL
MODEL 7
REMARK VINA RESULT:      -7.7      3.738      7.382
REMARK  5 active torsions:
REMARK  status: ('A' for Active; 'I' for Inactive)
REMARK    1  A    between atoms: C4_6  and  C5_7 
REMARK    2  A    between atoms: C5_7  and  O1_8 
REMARK    3  A    between atoms: O1_8  and  C6_9 
REMARK    4  A    between atoms: C8_11  and  N3_12 
REMARK    5  A    between atoms: N3_12  and  C9_13 
ROOT
HETATM    1  C6  UNL     1      24.951   1.407  51.906  1.00  0.00     0.094 C 
HETATM    2  C7  UNL     1      24.775   2.313  50.891  1.00  0.00     0.067 C 
HETATM    3  C8  UNL     1      23.301   2.670  50.622  1.00  0.00     0.153 C 
HETATM    4  C15 UNL     1      22.923   2.657  52.148  1.00  0.00     0.122 C 
HETATM    5  C16 UNL     1      23.467   1.218  52.105  1.00  0.00     0.073 C 
HETATM    6  N4  UNL     1      22.334   0.491  52.199  1.00  0.00    -0.244 NA
HETATM    7  C17 UNL     1      21.706   0.763  50.823  1.00  0.00     0.230 C 
HETATM    8  N5  UNL     1      22.514   1.573  50.130  1.00  0.00    -0.246 NA
ENDROOT
BRANCH   3   9
HETATM    9  N3  UNL     1      23.179   3.917  50.028  1.00  0.00    -0.358 N 
HETATM   10  H9  UNL     1      22.323   4.039  49.407  1.00  0.00     0.162 HD
BRANCH   9  11
HETATM   11  C9  UNL     1      24.011   5.047  50.118  1.00  0.00     0.032 A 
HETATM   12  C10 UNL     1      23.839   6.128  50.953  1.00  0.00     0.032 A 
HETATM   13  C11 UNL     1      24.645   7.224  51.037  1.00  0.00     0.046 A 
HETATM   14  C12 UNL     1      25.738   7.243  50.198  1.00  0.00     0.138 A 
HETATM   15  F1  UNL     1      26.583   8.300  50.227  1.00  0.00    -0.204 F 
HETATM   16  C13 UNL     1      26.016   6.224  49.321  1.00  0.00     0.074 A 
HETATM   17 CL1  UNL     1      27.399   6.281  48.281  1.00  0.00    -0.081 Cl
HETATM   18  C14 UNL     1      25.146   5.160  49.307  1.00  0.00     0.056 A 
ENDBRANCH   9  11
ENDBRANCH   3   9
BRANCH   1  19
HETATM   19  O1  UNL     1      25.690   0.647  52.760  1.00  0.00    -0.347 OA
BRANCH  19  20
HETATM   20  C5  UNL     1      26.847  -0.080  52.388  1.00  0.00     0.209 C 
BRANCH  20  21
HETATM   21  C4  UNL     1      27.704  -0.120  53.660  1.00  0.00     0.180 A 
HETATM   22  C2  UNL     1      28.803   0.860  53.592  1.00  0.00     0.036 A 
HETATM   23  C1  UNL     1      28.537   2.332  53.569  1.00  0.00     0.068 C 
HETATM   24  N1  UNL     1      29.911   0.203  53.562  1.00  0.00    -0.249 NA
HETATM   25  C3  UNL     1      29.630  -1.195  53.606  1.00  0.00     0.227 A 
HETATM   26  N2  UNL     1      28.367  -1.393  53.663  1.00  0.00    -0.270 NA
ENDBRANCH  20  21
ENDBRANCH  19  20
ENDBRANCH   1  19
TORSDOF 5
ENDMDL
MODEL 8
REMARK VINA RESULT:      -7.7      4.157      6.843
REMARK  5 active torsions:
REMARK  status: ('A' for Active; 'I' for Inactive)
REMARK    1  A    between atoms: C4_6  and  C5_7 
REMARK    2  A    between atoms: C5_7  and  O1_8 
REMARK    3  A    between atoms: O1_8  and  C6_9 
REMARK    4  A    between atoms: C8_11  and  N3_12 
REMARK    5  A    between atoms: N3_12  and  C9_13 
ROOT
HETATM    1  C6  UNL     1      23.108   0.049  53.802  1.00  0.00     0.094 C 
HETATM    2  C7  UNL     1      22.024  -0.502  54.438  1.00  0.00     0.067 C 
HETATM    3  C8  UNL     1      20.687  -0.265  53.712  1.00  0.00     0.153 C 
HETATM    4  C15 UNL     1      21.323  -0.449  52.285  1.00  0.00     0.122 C 
HETATM    5  C16 UNL     1      22.257   0.690  52.733  1.00  0.00     0.073 C 
HETATM    6  N4  UNL     1      21.807   1.724  51.990  1.00  0.00    -0.244 NA
HETATM    7  C17 UNL     1      20.448   1.984  52.659  1.00  0.00     0.230 C 
HETATM    8  N5  UNL     1      20.284   1.113  53.661  1.00  0.00    -0.246 NA
ENDROOT
BRANCH   3   9
HETATM    9  N3  UNL     1      19.753  -1.238  54.035  1.00  0.00    -0.358 N 
HETATM   10  H9  UNL     1      20.019  -1.865  54.853  1.00  0.00     0.162 HD
BRANCH   9  11
HETATM   11  C9  UNL     1      18.508  -1.525  53.449  1.00  0.00     0.032 A 
HETATM   12  C10 UNL     1      17.791  -0.712  52.600  1.00  0.00     0.032 A 
HETATM   13  C11 UNL     1      16.583  -0.991  52.035  1.00  0.00     0.046 A 
HETATM   14  C12 UNL     1      16.030  -2.213  52.352  1.00  0.00     0.138 A 
HETATM   15  F1  UNL     1      14.831  -2.559  51.828  1.00  0.00    -0.204 F 
HETATM   16  C13 UNL     1      16.648  -3.111  53.188  1.00  0.00     0.074 A 
HETATM   17 CL1  UNL     1      15.923  -4.637  53.565  1.00  0.00    -0.081 Cl
HETATM   18  C14 UNL     1      17.864  -2.741  53.711  1.00  0.00     0.056 A 
ENDBRANCH   9  11
ENDBRANCH   3   9
BRANCH   1  19
HETATM   19  O1  UNL     1      24.433   0.309  53.635  1.00  0.00    -0.347 OA
BRANCH  19  20
HETATM   20  C5  UNL     1      25.472  -0.333  54.352  1.00  0.00     0.209 C 
BRANCH  20  21
HETATM   21  C4  UNL     1      26.756   0.068  53.615  1.00  0.00     0.180 A 
HETATM   22  C2  UNL     1      27.580  -1.114  53.299  1.00  0.00     0.036 A 
HETATM   23  C1  UNL     1      27.108  -2.161  52.340  1.00  0.00     0.068 C 
HETATM   24  N1  UNL     1      28.671  -1.022  53.979  1.00  0.00    -0.249 NA
HETATM   25  C3  UNL     1      28.642   0.175  54.754  1.00  0.00     0.227 A 
HETATM   26  N2  UNL     1      27.549   0.809  54.554  1.00  0.00    -0.270 NA
ENDBRANCH  20  21
ENDBRANCH  19  20
ENDBRANCH   1  19
TORSDOF 5
ENDMDL
MODEL 9
REMARK VINA RESULT:      -7.7      2.910      5.649
REMARK  5 active torsions:
REMARK  status: ('A' for Active; 'I' for Inactive)
REMARK    1  A    between atoms: C4_6  and  C5_7 
REMARK    2  A    between atoms: C5_7  and  O1_8 
REMARK    3  A    between atoms: O1_8  and  C6_9 
REMARK    4  A    between atoms: C8_11  and  N3_12 
REMARK    5  A    between atoms: N3_12  and  C9_13 
ROOT
HETATM    1  C6  UNL     1      24.847   1.603  53.189  1.00  0.00     0.094 C 
HETATM    2  C7  UNL     1      23.688   0.895  52.996  1.00  0.00     0.067 C 
HETATM    3  C8  UNL     1      22.712   1.552  52.004  1.00  0.00     0.153 C 
HETATM    4  C15 UNL     1      23.864   2.037  51.048  1.00  0.00     0.122 C 
HETATM    5  C16 UNL     1      24.392   2.743  52.310  1.00  0.00     0.073 C 
HETATM    6  N4  UNL     1      24.125   4.037  52.034  1.00  0.00    -0.244 NA
HETATM    7  C17 UNL     1      22.592   4.040  52.140  1.00  0.00     0.230 C 
HETATM    8  N5  UNL     1      22.176   2.807  52.453  1.00  0.00    -0.246 NA
ENDROOT
BRANCH   3   9
HETATM    9  N3  UNL     1      21.866   0.617  51.426  1.00  0.00    -0.358 N 
HETATM   10  H9  UNL     1      22.234   0.167  50.533  1.00  0.00     0.162 HD
BRANCH   9  11
HETATM   11  C9  UNL     1      20.598   0.170  51.835  1.00  0.00     0.032 A 
HETATM   12  C10 UNL     1      20.288  -0.440  53.030  1.00  0.00     0.032 A 
HETATM   13  C11 UNL     1      19.058  -0.875  53.425  1.00  0.00     0.046 A 
HETATM   14  C12 UNL     1      18.028  -0.682  52.531  1.00  0.00     0.138 A 
HETATM   15  F1  UNL     1      16.778  -1.089  52.855  1.00  0.00    -0.204 F 
HETATM   16  C13 UNL     1      18.211  -0.086  51.307  1.00  0.00     0.074 A 
HETATM   17 CL1  UNL     1      16.892   0.141  50.208  1.00  0.00    -0.081 Cl
HETATM   18  C14 UNL     1      19.487   0.320  50.997  1.00  0.00     0.056 A 
ENDBRANCH   9  11
ENDBRANCH   3   9
BRANCH   1  19
HETATM   19  O1  UNL     1      26.087   1.813  53.709  1.00  0.00    -0.347 OA
BRANCH  19  20
HETATM   20  C5  UNL     1      26.864   0.819  54.352  1.00  0.00     0.209 C 
BRANCH  20  21
HETATM   21  C4  UNL     1      27.886   0.382  53.294  1.00  0.00     0.180 A 
HETATM   22  C2  UNL     1      27.788  -1.064  53.025  1.00  0.00     0.036 A 
HETATM   23  C1  UNL     1      26.569  -1.661  52.394  1.00  0.00     0.068 C 
HETATM   24  N1  UNL     1      28.884  -1.611  53.424  1.00  0.00    -0.249 NA
HETATM   25  C3  UNL     1      29.743  -0.605  53.960  1.00  0.00     0.227 A 
HETATM   26  N2  UNL     1      29.182   0.542  53.890  1.00  0.00    -0.270 NA
ENDBRANCH  20  21
ENDBRANCH  19  20
ENDBRANCH   1  19
TORSDOF 5
ENDMDL
