MODEL 1
REMARK VINA RESULT:      -7.8      0.000      0.000
REMARK  4 active torsions:
REMARK  status: ('A' for Active; 'I' for Inactive)
REMARK    1  A    between atoms: C2_3  and  C10_12 
REMARK    2  A    between atoms: C3_4  and  C4_5 
REMARK    3  A    between atoms: C7_8  and  O1_9 
REMARK       I    between atoms: C10_12  and  N2_14 
REMARK    4  A    between atoms: N2_14  and  C11_15 
ROOT
HETATM    1  N1  UNL     1      21.554  -1.695  55.027  1.00  0.00    -0.191 NA
HETATM    2  C1  UNL     1      22.362  -1.103  54.456  1.00  0.00     0.105 C 
HETATM    3  C2  UNL     1      23.394  -0.371  53.735  1.00  0.00     0.113 C 
HETATM    4  C3  UNL     1      23.096   0.493  52.785  1.00  0.00     0.039 C 
ENDROOT
BRANCH   3   5
HETATM    5  C10 UNL     1      24.798  -0.576  54.051  1.00  0.00     0.262 C 
HETATM    6  O2  UNL     1      25.017  -1.250  55.113  1.00  0.00    -0.267 OA
HETATM    7  N2  UNL     1      25.852  -0.078  53.260  1.00  0.00    -0.352 N 
HETATM    8  H7  UNL     1      25.584   0.472  52.394  1.00  0.00     0.163 HD
BRANCH   7   9
HETATM    9  C11 UNL     1      27.238  -0.275  53.561  1.00  0.00     0.084 C 
HETATM   10  C12 UNL     1      28.092   0.934  53.355  1.00  0.00     0.025 C 
HETATM   11  C13 UNL     1      29.486   0.678  53.811  1.00  0.00     0.002 C 
HETATM   12  C14 UNL     1      30.072  -0.637  53.432  1.00  0.00     0.000 C 
HETATM   13  C15 UNL     1      29.107  -1.790  53.475  1.00  0.00     0.002 C 
HETATM   14  C16 UNL     1      27.859  -1.389  52.708  1.00  0.00     0.025 C 
ENDBRANCH   7   9
ENDBRANCH   3   5
BRANCH   4  15
HETATM   15  C4  UNL     1      21.803   0.884  52.279  1.00  0.00    -0.034 A 
HETATM   16  C5  UNL     1      21.192   2.009  52.779  1.00  0.00     0.014 A 
HETATM   17  C6  UNL     1      19.945   2.437  52.335  1.00  0.00     0.037 A 
HETATM   18  C7  UNL     1      19.292   1.705  51.353  1.00  0.00     0.065 A 
HETATM   19  C8  UNL     1      19.864   0.567  50.818  1.00  0.00     0.037 A 
HETATM   20  C9  UNL     1      21.099   0.222  51.319  1.00  0.00     0.014 A 
BRANCH  18  21
HETATM   21  O1  UNL     1      18.039   2.145  50.914  1.00  0.00    -0.361 OA
HETATM   22  H4  UNL     1      18.005   2.986  50.373  1.00  0.00     0.217 HD
ENDBRANCH  18  21
ENDBRANCH   4  15
TORSDOF 4
ENDMDL
MODEL 2
REMARK VINA RESULT:      -7.4      4.457      7.562
REMARK  4 active torsions:
REMARK  status: ('A' for Active; 'I' for Inactive)
REMARK    1  A    between atoms: C2_3  and  C10_12 
REMARK    2  A    between atoms: C3_4  and  C4_5 
REMARK    3  A    between atoms: C7_8  and  O1_9 
REMARK       I    between atoms: C10_12  and  N2_14 
REMARK    4  A    between atoms: N2_14  and  C11_15 
ROOT
HETATM    1  N1  UNL     1      23.600   0.565  53.512  1.00  0.00    -0.191 NA
HETATM    2  C1  UNL     1      24.379   1.127  52.873  1.00  0.00     0.105 C 
HETATM    3  C2  UNL     1      25.355   1.852  52.073  1.00  0.00     0.113 C 
HETATM    4  C3  UNL     1      26.561   1.370  51.846  1.00  0.00     0.039 C 
ENDROOT
BRANCH   3   5
HETATM    5  C10 UNL     1      25.019   3.143  51.495  1.00  0.00     0.262 C 
HETATM    6  O2  UNL     1      24.125   3.798  52.128  1.00  0.00    -0.267 OA
HETATM    7  N2  UNL     1      25.620   3.650  50.326  1.00  0.00    -0.352 N 
HETATM    8  H7  UNL     1      26.354   3.041  49.861  1.00  0.00     0.163 HD
BRANCH   7   9
HETATM    9  C11 UNL     1      25.298   4.920  49.748  1.00  0.00     0.084 C 
HETATM   10  C12 UNL     1      24.120   4.897  48.828  1.00  0.00     0.025 C 
HETATM   11  C13 UNL     1      23.780   6.274  48.376  1.00  0.00     0.002 C 
HETATM   12  C14 UNL     1      24.925   7.143  47.989  1.00  0.00     0.000 C 
HETATM   13  C15 UNL     1      26.153   6.978  48.841  1.00  0.00     0.002 C 
HETATM   14  C16 UNL     1      26.465   5.495  48.937  1.00  0.00     0.025 C 
ENDBRANCH   7   9
ENDBRANCH   3   5
BRANCH   4  15
HETATM   15  C4  UNL     1      27.148   0.130  52.292  1.00  0.00    -0.034 A 
HETATM   16  C5  UNL     1      26.547  -1.060  51.963  1.00  0.00     0.014 A 
HETATM   17  C6  UNL     1      27.061  -2.289  52.364  1.00  0.00     0.037 A 
HETATM   18  C7  UNL     1      28.223  -2.317  53.124  1.00  0.00     0.065 A 
HETATM   19  C8  UNL     1      28.866  -1.147  53.481  1.00  0.00     0.037 A 
HETATM   20  C9  UNL     1      28.283   0.019  53.038  1.00  0.00     0.014 A 
BRANCH  18  21
HETATM   21  O1  UNL     1      28.731  -3.557  53.522  1.00  0.00    -0.361 OA
HETATM   22  H4  UNL     1      29.064  -4.174  52.807  1.00  0.00     0.217 HD
ENDBRANCH  18  21
ENDBRANCH   4  15
TORSDOF 4
ENDMDL
MODEL 3
REMARK VINA RESULT:      -7.4      2.035      2.681
REMARK  4 active torsions:
REMARK  status: ('A' for Active; 'I' for Inactive)
REMARK    1  A    between atoms: C2_3  and  C10_12 
REMARK    2  A    between atoms: C3_4  and  C4_5 
REMARK    3  A    between atoms: C7_8  and  O1_9 
REMARK       I    between atoms: C10_12  and  N2_14 
REMARK    4  A    between atoms: N2_14  and  C11_15 
ROOT
HETATM    1  N1  UNL     1      22.809   3.662  52.357  1.00  0.00    -0.191 NA
HETATM    2  C1  UNL     1      23.247   2.596  52.387  1.00  0.00     0.105 C 
HETATM    3  C2  UNL     1      23.815   1.256  52.436  1.00  0.00     0.113 C 
HETATM    4  C3  UNL     1      23.054   0.179  52.423  1.00  0.00     0.039 C 
ENDROOT
BRANCH   3   5
HETATM    5  C10 UNL     1      25.255   1.069  52.499  1.00  0.00     0.262 C 
HETATM    6  O2  UNL     1      25.944   2.077  52.127  1.00  0.00    -0.267 OA
HETATM    7  N2  UNL     1      25.864  -0.124  52.933  1.00  0.00    -0.352 N 
HETATM    8  H7  UNL     1      25.220  -0.914  53.224  1.00  0.00     0.163 HD
BRANCH   7   9
HETATM    9  C11 UNL     1      27.282  -0.319  53.001  1.00  0.00     0.084 C 
HETATM   10  C12 UNL     1      27.704  -1.750  53.084  1.00  0.00     0.025 C 
HETATM   11  C13 UNL     1      29.187  -1.865  53.022  1.00  0.00     0.002 C 
HETATM   12  C14 UNL     1      29.959  -0.882  53.831  1.00  0.00     0.000 C 
HETATM   13  C15 UNL     1      29.373   0.502  53.863  1.00  0.00     0.002 C 
HETATM   14  C16 UNL     1      27.901   0.383  54.216  1.00  0.00     0.025 C 
ENDBRANCH   7   9
ENDBRANCH   3   5
BRANCH   4  15
HETATM   15  C4  UNL     1      21.616   0.078  52.363  1.00  0.00    -0.034 A 
HETATM   16  C5  UNL     1      20.925  -0.392  53.454  1.00  0.00     0.014 A 
HETATM   17  C6  UNL     1      19.540  -0.517  53.458  1.00  0.00     0.037 A 
HETATM   18  C7  UNL     1      18.827  -0.155  52.324  1.00  0.00     0.065 A 
HETATM   19  C8  UNL     1      19.475   0.324  51.201  1.00  0.00     0.037 A 
HETATM   20  C9  UNL     1      20.846   0.413  51.290  1.00  0.00     0.014 A 
BRANCH  18  21
HETATM   21  O1  UNL     1      17.434  -0.284  52.339  1.00  0.00    -0.361 OA
HETATM   22  H4  UNL     1      17.053  -1.169  52.607  1.00  0.00     0.217 HD
ENDBRANCH  18  21
ENDBRANCH   4  15
TORSDOF 4
ENDMDL
MODEL 4
REMARK VINA RESULT:      -7.4      2.506      7.973
REMARK  4 active torsions:
REMARK  status: ('A' for Active; 'I' for Inactive)
REMARK    1  A    between atoms: C2_3  and  C10_12 
REMARK    2  A    between atoms: C3_4  and  C4_5 
REMARK    3  A    between atoms: C7_8  and  O1_9 
REMARK       I    between atoms: C10_12  and  N2_14 
REMARK    4  A    between atoms: N2_14  and  C11_15 
ROOT
HETATM    1  N1  UNL     1      24.130   2.120  51.479  1.00  0.00    -0.191 NA
HETATM    2  C1  UNL     1      23.765   1.335  52.240  1.00  0.00     0.105 C 
HETATM    3  C2  UNL     1      23.289   0.340  53.190  1.00  0.00     0.113 C 
HETATM    4  C3  UNL     1      24.121  -0.431  53.862  1.00  0.00     0.039 C 
ENDROOT
BRANCH   3   5
HETATM    5  C10 UNL     1      21.864   0.172  53.428  1.00  0.00     0.262 C 
HETATM    6  O2  UNL     1      21.527   0.131  54.658  1.00  0.00    -0.267 OA
HETATM    7  N2  UNL     1      20.913   0.061  52.395  1.00  0.00    -0.352 N 
HETATM    8  H7  UNL     1      21.278   0.105  51.400  1.00  0.00     0.163 HD
BRANCH   7   9
HETATM    9  C11 UNL     1      19.508  -0.104  52.618  1.00  0.00     0.084 C 
HETATM   10  C12 UNL     1      19.127  -1.429  53.195  1.00  0.00     0.025 C 
HETATM   11  C13 UNL     1      17.672  -1.466  53.510  1.00  0.00     0.002 C 
HETATM   12  C14 UNL     1      16.761  -0.885  52.486  1.00  0.00     0.000 C 
HETATM   13  C15 UNL     1      17.289   0.345  51.801  1.00  0.00     0.002 C 
HETATM   14  C16 UNL     1      18.699   0.049  51.323  1.00  0.00     0.025 C 
ENDBRANCH   7   9
ENDBRANCH   3   5
BRANCH   4  15
HETATM   15  C4  UNL     1      25.562  -0.474  53.821  1.00  0.00    -0.034 A 
HETATM   16  C5  UNL     1      26.286   0.224  54.758  1.00  0.00     0.014 A 
HETATM   17  C6  UNL     1      27.677   0.226  54.771  1.00  0.00     0.037 A 
HETATM   18  C7  UNL     1      28.361  -0.500  53.806  1.00  0.00     0.065 A 
HETATM   19  C8  UNL     1      27.679  -1.218  52.842  1.00  0.00     0.037 A 
HETATM   20  C9  UNL     1      26.305  -1.161  52.909  1.00  0.00     0.014 A 
BRANCH  18  21
HETATM   21  O1  UNL     1      29.760  -0.491  53.828  1.00  0.00    -0.361 OA
HETATM   22  H4  UNL     1      30.234  -0.035  53.074  1.00  0.00     0.217 HD
ENDBRANCH  18  21
ENDBRANCH   4  15
TORSDOF 4
ENDMDL
MODEL 5
REMARK VINA RESULT:      -7.3      2.221      7.947
REMARK  4 active torsions:
REMARK  status: ('A' for Active; 'I' for Inactive)
REMARK    1  A    between atoms: C2_3  and  C10_12 
REMARK    2  A    between atoms: C3_4  and  C4_5 
REMARK    3  A    between atoms: C7_8  and  O1_9 
REMARK       I    between atoms: C10_12  and  N2_14 
REMARK    4  A    between atoms: N2_14  and  C11_15 
ROOT
HETATM    1  N1  UNL     1      23.041  -1.742  55.734  1.00  0.00    -0.191 NA
HETATM    2  C1  UNL     1      22.965  -1.018  54.840  1.00  0.00     0.105 C 
HETATM    3  C2  UNL     1      22.855  -0.096  53.719  1.00  0.00     0.113 C 
HETATM    4  C3  UNL     1      23.920   0.381  53.105  1.00  0.00     0.039 C 
ENDROOT
BRANCH   3   5
HETATM    5  C10 UNL     1      21.549   0.327  53.239  1.00  0.00     0.262 C 
HETATM    6  O2  UNL     1      21.473   1.554  52.899  1.00  0.00    -0.267 OA
HETATM    7  N2  UNL     1      20.439  -0.536  53.150  1.00  0.00    -0.352 N 
HETATM    8  H7  UNL     1      20.586  -1.541  53.454  1.00  0.00     0.163 HD
BRANCH   7   9
HETATM    9  C11 UNL     1      19.148  -0.131  52.679  1.00  0.00     0.084 C 
HETATM   10  C12 UNL     1      18.061  -1.126  52.927  1.00  0.00     0.025 C 
HETATM   11  C13 UNL     1      16.740  -0.572  52.522  1.00  0.00     0.002 C 
HETATM   12  C14 UNL     1      16.701   0.164  51.230  1.00  0.00     0.000 C 
HETATM   13  C15 UNL     1      17.918   1.003  50.949  1.00  0.00     0.002 C 
HETATM   14  C16 UNL     1      19.147   0.138  51.169  1.00  0.00     0.025 C 
ENDBRANCH   7   9
ENDBRANCH   3   5
BRANCH   4  15
HETATM   15  C4  UNL     1      25.316   0.130  53.370  1.00  0.00    -0.034 A 
HETATM   16  C5  UNL     1      25.962  -0.876  52.693  1.00  0.00     0.014 A 
HETATM   17  C6  UNL     1      27.306  -1.170  52.905  1.00  0.00     0.037 A 
HETATM   18  C7  UNL     1      28.021  -0.423  53.832  1.00  0.00     0.065 A 
HETATM   19  C8  UNL     1      27.416   0.599  54.538  1.00  0.00     0.037 A 
HETATM   20  C9  UNL     1      26.085   0.816  54.261  1.00  0.00     0.014 A 
BRANCH  18  21
HETATM   21  O1  UNL     1      29.370  -0.727  54.037  1.00  0.00    -0.361 OA
HETATM   22  H4  UNL     1      29.772  -1.456  53.481  1.00  0.00     0.217 HD
ENDBRANCH  18  21
ENDBRANCH   4  15
TORSDOF 4
ENDMDL
MODEL 6
REMARK VINA RESULT:      -7.3      4.702      6.082
REMARK  4 active torsions:
REMARK  status: ('A' for Active; 'I' for Inactive)
REMARK    1  A    between atoms: C2_3  and  C10_12 
REMARK    2  A    between atoms: C3_4  and  C4_5 
REMARK    3  A    between atoms: C7_8  and  O1_9 
REMARK       I    between atoms: C10_12  and  N2_14 
REMARK    4  A    between atoms: N2_14  and  C11_15 
ROOT
HETATM    1  N1  UNL     1      21.304   0.903  48.905  1.00  0.00    -0.191 NA
HETATM    2  C1  UNL     1      22.071   1.536  49.488  1.00  0.00     0.105 C 
HETATM    3  C2  UNL     1      23.035   2.351  50.214  1.00  0.00     0.113 C 
HETATM    4  C3  UNL     1      23.259   2.178  51.502  1.00  0.00     0.039 C 
ENDROOT
BRANCH   3   5
HETATM    5  C10 UNL     1      23.787   3.388  49.527  1.00  0.00     0.262 C 
HETATM    6  O2  UNL     1      23.140   4.007  48.618  1.00  0.00    -0.267 OA
HETATM    7  N2  UNL     1      25.127   3.702  49.826  1.00  0.00    -0.352 N 
HETATM    8  H7  UNL     1      25.592   3.139  50.596  1.00  0.00     0.163 HD
BRANCH   7   9
HETATM    9  C11 UNL     1      25.877   4.722  49.157  1.00  0.00     0.084 C 
HETATM   10  C12 UNL     1      27.347   4.461  49.087  1.00  0.00     0.025 C 
HETATM   11  C13 UNL     1      28.028   5.502  48.269  1.00  0.00     0.002 C 
HETATM   12  C14 UNL     1      27.600   6.908  48.503  1.00  0.00     0.000 C 
HETATM   13  C15 UNL     1      26.128   7.082  48.759  1.00  0.00     0.002 C 
HETATM   14  C16 UNL     1      25.716   6.090  49.832  1.00  0.00     0.025 C 
ENDBRANCH   7   9
ENDBRANCH   3   5
BRANCH   4  15
HETATM   15  C4  UNL     1      22.661   1.234  52.414  1.00  0.00    -0.034 A 
HETATM   16  C5  UNL     1      23.386   0.143  52.830  1.00  0.00     0.014 A 
HETATM   17  C6  UNL     1      22.866  -0.805  53.706  1.00  0.00     0.037 A 
HETATM   18  C7  UNL     1      21.570  -0.647  54.178  1.00  0.00     0.065 A 
HETATM   19  C8  UNL     1      20.800   0.433  53.790  1.00  0.00     0.037 A 
HETATM   20  C9  UNL     1      21.400   1.318  52.922  1.00  0.00     0.014 A 
BRANCH  18  21
HETATM   21  O1  UNL     1      21.058  -1.605  55.058  1.00  0.00    -0.361 OA
HETATM   22  H4  UNL     1      20.087  -1.547  55.295  1.00  0.00     0.217 HD
ENDBRANCH  18  21
ENDBRANCH   4  15
TORSDOF 4
ENDMDL
MODEL 7
REMARK VINA RESULT:      -7.1      5.081      7.212
REMARK  4 active torsions:
REMARK  status: ('A' for Active; 'I' for Inactive)
REMARK    1  A    between atoms: C2_3  and  C10_12 
REMARK    2  A    between atoms: C3_4  and  C4_5 
REMARK    3  A    between atoms: C7_8  and  O1_9 
REMARK       I    between atoms: C10_12  and  N2_14 
REMARK    4  A    between atoms: N2_14  and  C11_15 
ROOT
HETATM    1  N1  UNL     1      22.735   3.363  48.158  1.00  0.00    -0.191 NA
HETATM    2  C1  UNL     1      23.188   3.320  49.217  1.00  0.00     0.105 C 
HETATM    3  C2  UNL     1      23.753   3.248  50.557  1.00  0.00     0.113 C 
HETATM    4  C3  UNL     1      24.902   3.820  50.857  1.00  0.00     0.039 C 
ENDROOT
BRANCH   3   5
HETATM    5  C10 UNL     1      23.052   2.535  51.614  1.00  0.00     0.262 C 
HETATM    6  O2  UNL     1      22.155   3.215  52.216  1.00  0.00    -0.267 OA
HETATM    7  N2  UNL     1      23.327   1.199  51.962  1.00  0.00    -0.352 N 
HETATM    8  H7  UNL     1      24.088   0.706  51.413  1.00  0.00     0.163 HD
BRANCH   7   9
HETATM    9  C11 UNL     1      22.643   0.487  53.000  1.00  0.00     0.084 C 
HETATM   10  C12 UNL     1      23.473  -0.547  53.689  1.00  0.00     0.025 C 
HETATM   11  C13 UNL     1      22.727  -1.145  54.831  1.00  0.00     0.002 C 
HETATM   12  C14 UNL     1      21.298  -1.479  54.582  1.00  0.00     0.000 C 
HETATM   13  C15 UNL     1      20.565  -0.491  53.717  1.00  0.00     0.002 C 
HETATM   14  C16 UNL     1      21.400  -0.241  52.474  1.00  0.00     0.025 C 
ENDBRANCH   7   9
ENDBRANCH   3   5
BRANCH   4  15
HETATM   15  C4  UNL     1      25.792   4.580  50.013  1.00  0.00    -0.034 A 
HETATM   16  C5  UNL     1      25.551   5.917  49.808  1.00  0.00     0.014 A 
HETATM   17  C6  UNL     1      26.369   6.704  49.003  1.00  0.00     0.037 A 
HETATM   18  C7  UNL     1      27.468   6.122  48.385  1.00  0.00     0.065 A 
HETATM   19  C8  UNL     1      27.753   4.781  48.560  1.00  0.00     0.037 A 
HETATM   20  C9  UNL     1      26.887   4.084  49.374  1.00  0.00     0.014 A 
BRANCH  18  21
HETATM   21  O1  UNL     1      28.283   6.922  47.579  1.00  0.00    -0.361 OA
HETATM   22  H4  UNL     1      28.195   7.915  47.669  1.00  0.00     0.217 HD
ENDBRANCH  18  21
ENDBRANCH   4  15
TORSDOF 4
ENDMDL
MODEL 8
REMARK VINA RESULT:      -7.0      2.485      8.068
REMARK  4 active torsions:
REMARK  status: ('A' for Active; 'I' for Inactive)
REMARK    1  A    between atoms: C2_3  and  C10_12 
REMARK    2  A    between atoms: C3_4  and  C4_5 
REMARK    3  A    between atoms: C7_8  and  O1_9 
REMARK       I    between atoms: C10_12  and  N2_14 
REMARK    4  A    between atoms: N2_14  and  C11_15 
ROOT
HETATM    1  N1  UNL     1      26.790   2.810  50.742  1.00  0.00    -0.191 NA
HETATM    2  C1  UNL     1      26.042   2.185  51.358  1.00  0.00     0.105 C 
HETATM    3  C2  UNL     1      25.087   1.395  52.122  1.00  0.00     0.113 C 
HETATM    4  C3  UNL     1      25.477   0.462  52.968  1.00  0.00     0.039 C 
ENDROOT
BRANCH   3   5
HETATM    5  C10 UNL     1      23.658   1.621  51.971  1.00  0.00     0.262 C 
HETATM    6  O2  UNL     1      23.301   2.845  52.015  1.00  0.00    -0.267 OA
HETATM    7  N2  UNL     1      22.724   0.582  51.789  1.00  0.00    -0.352 N 
HETATM    8  H7  UNL     1      23.105  -0.407  51.764  1.00  0.00     0.163 HD
BRANCH   7   9
HETATM    9  C11 UNL     1      21.316   0.793  51.638  1.00  0.00     0.084 C 
HETATM   10  C12 UNL     1      20.464  -0.135  52.442  1.00  0.00     0.025 C 
HETATM   11  C13 UNL     1      19.027   0.235  52.323  1.00  0.00     0.002 C 
HETATM   12  C14 UNL     1      18.546   0.585  50.959  1.00  0.00     0.000 C 
HETATM   13  C15 UNL     1      19.531   1.359  50.126  1.00  0.00     0.002 C 
HETATM   14  C16 UNL     1      20.864   0.636  50.180  1.00  0.00     0.025 C 
ENDBRANCH   7   9
ENDBRANCH   3   5
BRANCH   4  15
HETATM   15  C4  UNL     1      26.814   0.039  53.308  1.00  0.00    -0.034 A 
HETATM   16  C5  UNL     1      27.316  -1.118  52.763  1.00  0.00     0.014 A 
HETATM   17  C6  UNL     1      28.595  -1.582  53.053  1.00  0.00     0.037 A 
HETATM   18  C7  UNL     1      29.395  -0.853  53.923  1.00  0.00     0.065 A 
HETATM   19  C8  UNL     1      28.936   0.317  54.498  1.00  0.00     0.037 A 
HETATM   20  C9  UNL     1      27.658   0.696  54.151  1.00  0.00     0.014 A 
BRANCH  18  21
HETATM   21  O1  UNL     1      30.679  -1.329  54.208  1.00  0.00    -0.361 OA
HETATM   22  H4  UNL     1      31.381  -1.219  53.503  1.00  0.00     0.217 HD
ENDBRANCH  18  21
ENDBRANCH   4  15
TORSDOF 4
ENDMDL
MODEL 9
REMARK VINA RESULT:      -6.9      3.060      7.963
REMARK  4 active torsions:
REMARK  status: ('A' for Active; 'I' for Inactive)
REMARK    1  A    between atoms: C2_3  and  C10_12 
REMARK    2  A    between atoms: C3_4  and  C4_5 
REMARK    3  A    between atoms: C7_8  and  O1_9 
REMARK       I    between atoms: C10_12  and  N2_14 
REMARK    4  A    between atoms: N2_14  and  C11_15 
ROOT
HETATM    1  N1  UNL     1      22.843   5.070  51.974  1.00  0.00    -0.191 NA
HETATM    2  C1  UNL     1      22.607   3.961  52.185  1.00  0.00     0.105 C 
HETATM    3  C2  UNL     1      22.293   2.563  52.439  1.00  0.00     0.113 C 
HETATM    4  C3  UNL     1      23.239   1.663  52.626  1.00  0.00     0.039 C 
ENDROOT
BRANCH   3   5
HETATM    5  C10 UNL     1      20.910   2.117  52.498  1.00  0.00     0.262 C 
HETATM    6  O2  UNL     1      20.058   3.041  52.723  1.00  0.00    -0.267 OA
HETATM    7  N2  UNL     1      20.519   0.776  52.323  1.00  0.00    -0.352 N 
HETATM    8  H7  UNL     1      21.290   0.071  52.140  1.00  0.00     0.163 HD
BRANCH   7   9
HETATM    9  C11 UNL     1      19.160   0.326  52.377  1.00  0.00     0.084 C 
HETATM   10  C12 UNL     1      18.957  -0.929  53.163  1.00  0.00     0.025 C 
HETATM   11  C13 UNL     1      17.508  -1.251  53.273  1.00  0.00     0.002 C 
HETATM   12  C14 UNL     1      16.700  -1.090  52.033  1.00  0.00     0.000 C 
HETATM   13  C15 UNL     1      17.085   0.090  51.183  1.00  0.00     0.002 C 
HETATM   14  C16 UNL     1      18.589   0.055  50.980  1.00  0.00     0.025 C 
ENDBRANCH   7   9
ENDBRANCH   3   5
BRANCH   4  15
HETATM   15  C4  UNL     1      24.672   1.829  52.622  1.00  0.00    -0.034 A 
HETATM   16  C5  UNL     1      25.341   1.955  53.816  1.00  0.00     0.014 A 
HETATM   17  C6  UNL     1      26.721   2.122  53.880  1.00  0.00     0.037 A 
HETATM   18  C7  UNL     1      27.450   2.161  52.699  1.00  0.00     0.065 A 
HETATM   19  C8  UNL     1      26.824   2.039  51.473  1.00  0.00     0.037 A 
HETATM   20  C9  UNL     1      25.457   1.878  51.510  1.00  0.00     0.014 A 
BRANCH  18  21
HETATM   21  O1  UNL     1      28.837   2.329  52.775  1.00  0.00    -0.361 OA
HETATM   22  H4  UNL     1      29.240   3.098  52.279  1.00  0.00     0.217 HD
ENDBRANCH  18  21
ENDBRANCH   4  15
TORSDOF 4
ENDMDL
