MODEL 1
REMARK VINA RESULT:      -8.6      0.000      0.000
REMARK  4 active torsions:
REMARK  status: ('A' for Active; 'I' for Inactive)
REMARK    1  A    between atoms: N1_2  and  C3_4 
REMARK    2  A    between atoms: C6_7  and  C7_8 
REMARK    3  A    between atoms: C19_22  and  C20_23 
REMARK    4  A    between atoms: C20_23  and  O1_24 
ROOT
HETATM    1  C3  UNL     1      23.911   3.425  50.129  1.00  0.00     0.084 C 
HETATM    2  C4  UNL     1      23.449   2.453  50.855  1.00  0.00     0.052 C 
HETATM    3  C5  UNL     1      22.010   2.028  50.680  1.00  0.00     0.036 C 
HETATM    4  C6  UNL     1      21.170   1.581  51.860  1.00  0.00     0.010 A 
HETATM    5  C11 UNL     1      20.224   2.632  52.290  1.00  0.00     0.035 C 
HETATM    6  C12 UNL     1      20.083   3.897  51.575  1.00  0.00     0.148 C 
HETATM    7  N3  UNL     1      21.348   4.661  51.456  1.00  0.00    -0.306 N 
HETATM    8  C13 UNL     1      22.359   4.237  52.419  1.00  0.00     0.090 C 
HETATM    9  C14 UNL     1      23.076   3.067  52.361  1.00  0.00     0.061 C 
HETATM   10  C15 UNL     1      22.897   1.348  52.243  1.00  0.00     0.018 A 
HETATM   11  C16 UNL     1      21.826   0.806  52.900  1.00  0.00     0.013 A 
HETATM   12  C17 UNL     1      22.695   0.101  53.807  1.00  0.00    -0.013 A 
HETATM   13  C18 UNL     1      24.103   0.200  53.717  1.00  0.00     0.010 A 
HETATM   14  C19 UNL     1      24.788   0.969  52.758  1.00  0.00     0.010 A 
HETATM   15  C22 UNL     1      24.120   1.699  51.822  1.00  0.00    -0.040 A 
HETATM   16  N4  UNL     1      21.508   5.677  50.506  1.00  0.00    -0.292 N 
HETATM   17  C23 UNL     1      22.248   5.007  49.503  1.00  0.00     0.396 C 
HETATM   18  N5  UNL     1      23.160   4.157  49.172  1.00  0.00    -0.361 NA
HETATM   19  H28 UNL     1      21.309   6.667  50.268  1.00  0.00     0.188 HD
ENDROOT
BRANCH   4  20
HETATM   20  C7  UNL     1      20.154   0.660  51.086  1.00  0.00     0.234 C 
HETATM   21  C8  UNL     1      19.943   1.011  49.686  1.00  0.00     0.067 C 
HETATM   22  C9  UNL     1      18.474   0.901  50.042  1.00  0.00     0.274 C 
HETATM   23  N2  UNL     1      18.808   0.716  51.446  1.00  0.00     0.089 N 
HETATM   24  C10 UNL     1      18.183  -0.498  51.933  1.00  0.00     0.310 C 
ENDBRANCH   4  20
BRANCH   1  25
HETATM   25  N1  UNL     1      25.127   4.116  49.964  1.00  0.00    -0.379 N 
HETATM   26  C1  UNL     1      26.351   3.515  49.422  1.00  0.00     0.150 C 
HETATM   27  C2  UNL     1      25.313   5.519  50.320  1.00  0.00     0.150 C 
ENDBRANCH   1  25
BRANCH  14  28
HETATM   28  C20 UNL     1      26.163   1.220  52.332  1.00  0.00     0.213 A 
HETATM   29  C21 UNL     1      27.068  -0.015  52.550  1.00  0.00     0.245 A 
HETATM   30  O2  UNL     1      26.728   0.486  51.325  1.00  0.00    -0.344 OA
BRANCH  28  31
HETATM   31  O1  UNL     1      26.806   2.439  52.601  1.00  0.00    -0.360 OA
HETATM   32  H25 UNL     1      26.707   2.979  51.776  1.00  0.00     0.213 HD
ENDBRANCH  28  31
ENDBRANCH  14  28
TORSDOF 4
ENDMDL
MODEL 2
REMARK VINA RESULT:      -8.4      1.923      3.018
REMARK  4 active torsions:
REMARK  status: ('A' for Active; 'I' for Inactive)
REMARK    1  A    between atoms: N1_2  and  C3_4 
REMARK    2  A    between atoms: C6_7  and  C7_8 
REMARK    3  A    between atoms: C19_22  and  C20_23 
REMARK    4  A    between atoms: C20_23  and  O1_24 
ROOT
HETATM    1  C3  UNL     1      25.777   1.531  51.818  1.00  0.00     0.084 C 
HETATM    2  C4  UNL     1      24.577   1.097  52.059  1.00  0.00     0.052 C 
HETATM    3  C5  UNL     1      23.469   1.430  51.087  1.00  0.00     0.036 C 
HETATM    4  C6  UNL     1      22.060   1.719  51.565  1.00  0.00     0.010 A 
HETATM    5  C11 UNL     1      21.759   3.166  51.539  1.00  0.00     0.035 C 
HETATM    6  C12 UNL     1      22.702   4.152  51.018  1.00  0.00     0.148 C 
HETATM    7  N3  UNL     1      24.022   4.132  51.692  1.00  0.00    -0.306 N 
HETATM    8  C13 UNL     1      23.986   3.464  52.989  1.00  0.00     0.090 C 
HETATM    9  C14 UNL     1      23.880   2.109  53.187  1.00  0.00     0.061 C 
HETATM   10  C15 UNL     1      22.907   0.733  52.787  1.00  0.00     0.018 A 
HETATM   11  C16 UNL     1      21.559   0.952  52.693  1.00  0.00     0.013 A 
HETATM   12  C17 UNL     1      21.308   0.109  53.834  1.00  0.00    -0.013 A 
HETATM   13  C18 UNL     1      22.357  -0.536  54.529  1.00  0.00     0.010 A 
HETATM   14  C19 UNL     1      23.720  -0.432  54.190  1.00  0.00     0.010 A 
HETATM   15  C22 UNL     1      24.135   0.325  53.136  1.00  0.00    -0.040 A 
HETATM   16  N4  UNL     1      25.156   4.708  51.107  1.00  0.00    -0.292 N 
HETATM   17  C23 UNL     1      25.814   3.568  50.589  1.00  0.00     0.396 C 
HETATM   18  N5  UNL     1      26.148   2.328  50.702  1.00  0.00    -0.361 NA
HETATM   19  H28 UNL     1      25.669   5.591  50.919  1.00  0.00     0.188 HD
ENDROOT
BRANCH   4  20
HETATM   20  C7  UNL     1      21.281   1.300  50.263  1.00  0.00     0.234 C 
HETATM   21  C8  UNL     1      22.019   1.478  49.016  1.00  0.00     0.067 C 
HETATM   22  C9  UNL     1      20.749   2.157  48.544  1.00  0.00     0.274 C 
HETATM   23  N2  UNL     1      20.179   2.062  49.879  1.00  0.00     0.089 N 
HETATM   24  C10 UNL     1      18.889   1.404  49.806  1.00  0.00     0.310 C 
ENDBRANCH   4  20
BRANCH   1  25
HETATM   25  N1  UNL     1      27.049   1.464  52.418  1.00  0.00    -0.379 N 
HETATM   26  C1  UNL     1      27.631   2.531  53.240  1.00  0.00     0.150 C 
HETATM   27  C2  UNL     1      27.944   0.319  52.288  1.00  0.00     0.150 C 
ENDBRANCH   1  25
BRANCH  14  28
HETATM   28  C20 UNL     1      24.999  -1.001  54.605  1.00  0.00     0.213 A 
HETATM   29  C21 UNL     1      25.766  -0.059  55.562  1.00  0.00     0.245 A 
HETATM   30  O2  UNL     1      25.251  -1.272  55.922  1.00  0.00    -0.344 OA
BRANCH  28  31
HETATM   31  O1  UNL     1      25.832  -1.676  53.698  1.00  0.00    -0.360 OA
HETATM   32  H25 UNL     1      26.088  -2.520  54.150  1.00  0.00     0.213 HD
ENDBRANCH  28  31
ENDBRANCH  14  28
TORSDOF 4
ENDMDL
MODEL 3
REMARK VINA RESULT:      -8.2      1.815      4.861
REMARK  4 active torsions:
REMARK  status: ('A' for Active; 'I' for Inactive)
REMARK    1  A    between atoms: N1_2  and  C3_4 
REMARK    2  A    between atoms: C6_7  and  C7_8 
REMARK    3  A    between atoms: C19_22  and  C20_23 
REMARK    4  A    between atoms: C20_23  and  O1_24 
ROOT
HETATM    1  C3  UNL     1      22.204   1.297  53.055  1.00  0.00     0.084 C 
HETATM    2  C4  UNL     1      23.189   1.981  52.559  1.00  0.00     0.052 C 
HETATM    3  C5  UNL     1      22.934   3.392  52.081  1.00  0.00     0.036 C 
HETATM    4  C6  UNL     1      23.636   3.951  50.859  1.00  0.00     0.010 A 
HETATM    5  C11 UNL     1      22.742   3.986  49.683  1.00  0.00     0.035 C 
HETATM    6  C12 UNL     1      21.333   3.609  49.759  1.00  0.00     0.148 C 
HETATM    7  N3  UNL     1      21.109   2.233  50.266  1.00  0.00    -0.306 N 
HETATM    8  C13 UNL     1      22.300   1.395  50.175  1.00  0.00     0.090 C 
HETATM    9  C14 UNL     1      23.410   1.495  50.979  1.00  0.00     0.061 C 
HETATM   10  C15 UNL     1      24.606   2.615  51.537  1.00  0.00     0.018 A 
HETATM   11  C16 UNL     1      25.018   3.560  50.636  1.00  0.00     0.013 A 
HETATM   12  C17 UNL     1      26.346   3.003  50.608  1.00  0.00    -0.013 A 
HETATM   13  C18 UNL     1      26.697   1.874  51.384  1.00  0.00     0.010 A 
HETATM   14  C19 UNL     1      25.816   1.194  52.246  1.00  0.00     0.010 A 
HETATM   15  C22 UNL     1      24.521   1.589  52.395  1.00  0.00    -0.040 A 
HETATM   16  N4  UNL     1      19.867   1.827  50.766  1.00  0.00    -0.292 N 
HETATM   17  C23 UNL     1      20.086   1.910  52.161  1.00  0.00     0.396 C 
HETATM   18  N5  UNL     1      20.867   1.762  53.176  1.00  0.00    -0.361 NA
HETATM   19  H28 UNL     1      18.908   1.507  50.526  1.00  0.00     0.188 HD
ENDROOT
BRANCH   4  20
HETATM   20  C7  UNL     1      23.580   5.478  51.236  1.00  0.00     0.234 C 
HETATM   21  C8  UNL     1      22.253   5.984  51.572  1.00  0.00     0.067 C 
HETATM   22  C9  UNL     1      22.606   7.099  50.606  1.00  0.00     0.274 C 
HETATM   23  N2  UNL     1      23.834   6.414  50.234  1.00  0.00     0.089 N 
HETATM   24  C10 UNL     1      24.958   7.312  50.412  1.00  0.00     0.310 C 
ENDBRANCH   4  20
BRANCH   1  25
HETATM   25  N1  UNL     1      21.995   0.014  53.596  1.00  0.00    -0.379 N 
HETATM   26  C1  UNL     1      22.367  -1.236  52.924  1.00  0.00     0.150 C 
HETATM   27  C2  UNL     1      21.375  -0.222  54.896  1.00  0.00     0.150 C 
ENDBRANCH   1  25
BRANCH  14  28
HETATM   28  C20 UNL     1      25.856   0.106  53.220  1.00  0.00     0.213 A 
HETATM   29  C21 UNL     1      26.817   0.417  54.392  1.00  0.00     0.245 A 
HETATM   30  O2  UNL     1      25.460   0.310  54.513  1.00  0.00    -0.344 OA
BRANCH  28  31
HETATM   31  O1  UNL     1      25.882  -1.239  52.818  1.00  0.00    -0.360 OA
HETATM   32  H25 UNL     1      25.344  -1.277  51.986  1.00  0.00     0.213 HD
ENDBRANCH  28  31
ENDBRANCH  14  28
TORSDOF 4
ENDMDL
MODEL 4
REMARK VINA RESULT:      -8.0      3.152      7.162
REMARK  4 active torsions:
REMARK  status: ('A' for Active; 'I' for Inactive)
REMARK    1  A    between atoms: N1_2  and  C3_4 
REMARK    2  A    between atoms: C6_7  and  C7_8 
REMARK    3  A    between atoms: C19_22  and  C20_23 
REMARK    4  A    between atoms: C20_23  and  O1_24 
ROOT
HETATM    1  C3  UNL     1      23.263   6.399  50.618  1.00  0.00     0.084 C 
HETATM    2  C4  UNL     1      24.484   6.136  50.263  1.00  0.00     0.052 C 
HETATM    3  C5  UNL     1      25.406   7.279  49.909  1.00  0.00     0.036 C 
HETATM    4  C6  UNL     1      26.433   7.152  48.800  1.00  0.00     0.010 A 
HETATM    5  C11 UNL     1      26.003   7.853  47.573  1.00  0.00     0.035 C 
HETATM    6  C12 UNL     1      24.775   8.642  47.511  1.00  0.00     0.148 C 
HETATM    7  N3  UNL     1      23.555   7.876  47.863  1.00  0.00    -0.306 N 
HETATM    8  C13 UNL     1      23.746   6.433  47.776  1.00  0.00     0.090 C 
HETATM    9  C14 UNL     1      24.465   5.667  48.662  1.00  0.00     0.061 C 
HETATM   10  C15 UNL     1      26.019   5.527  49.412  1.00  0.00     0.018 A 
HETATM   11  C16 UNL     1      27.097   5.869  48.640  1.00  0.00     0.013 A 
HETATM   12  C17 UNL     1      27.579   4.511  48.651  1.00  0.00    -0.013 A 
HETATM   13  C18 UNL     1      26.891   3.482  49.335  1.00  0.00     0.010 A 
HETATM   14  C19 UNL     1      25.700   3.666  50.062  1.00  0.00     0.010 A 
HETATM   15  C22 UNL     1      25.106   4.889  50.155  1.00  0.00    -0.040 A 
HETATM   16  N4  UNL     1      22.366   8.516  48.232  1.00  0.00    -0.292 N 
HETATM   17  C23 UNL     1      22.405   8.391  49.640  1.00  0.00     0.396 C 
HETATM   18  N5  UNL     1      22.696   7.699  50.689  1.00  0.00    -0.361 NA
HETATM   19  H28 UNL     1      21.520   9.014  47.894  1.00  0.00     0.188 HD
ENDROOT
BRANCH   4  20
HETATM   20  C7  UNL     1      27.471   8.214  49.321  1.00  0.00     0.234 C 
HETATM   21  C8  UNL     1      26.918   9.243  50.196  1.00  0.00     0.067 C 
HETATM   22  C9  UNL     1      27.667  10.197  49.287  1.00  0.00     0.274 C 
HETATM   23  N2  UNL     1      28.025   9.101  48.399  1.00  0.00     0.089 N 
HETATM   24  C10 UNL     1      29.462   9.082  48.215  1.00  0.00     0.310 C 
ENDBRANCH   4  20
BRANCH   1  25
HETATM   25  N1  UNL     1      22.116   5.684  51.014  1.00  0.00    -0.379 N 
HETATM   26  C1  UNL     1      20.903   5.555  50.200  1.00  0.00     0.150 C 
HETATM   27  C2  UNL     1      22.000   4.988  52.291  1.00  0.00     0.150 C 
ENDBRANCH   1  25
BRANCH  14  28
HETATM   28  C20 UNL     1      24.811   2.892  50.924  1.00  0.00     0.213 A 
HETATM   29  C21 UNL     1      25.589   1.870  51.786  1.00  0.00     0.245 A 
HETATM   30  O2  UNL     1      24.926   2.955  52.285  1.00  0.00    -0.344 OA
BRANCH  28  31
HETATM   31  O1  UNL     1      23.576   2.408  50.461  1.00  0.00    -0.360 OA
HETATM   32  H25 UNL     1      22.912   2.681  51.145  1.00  0.00     0.213 HD
ENDBRANCH  28  31
ENDBRANCH  14  28
TORSDOF 4
ENDMDL
MODEL 5
REMARK VINA RESULT:      -7.9      2.534      5.326
REMARK  4 active torsions:
REMARK  status: ('A' for Active; 'I' for Inactive)
REMARK    1  A    between atoms: N1_2  and  C3_4 
REMARK    2  A    between atoms: C6_7  and  C7_8 
REMARK    3  A    between atoms: C19_22  and  C20_23 
REMARK    4  A    between atoms: C20_23  and  O1_24 
ROOT
HETATM    1  C3  UNL     1      23.044   4.573  51.338  1.00  0.00     0.084 C 
HETATM    2  C4  UNL     1      23.170   3.420  51.921  1.00  0.00     0.052 C 
HETATM    3  C5  UNL     1      24.512   3.035  52.500  1.00  0.00     0.036 C 
HETATM    4  C6  UNL     1      25.014   1.605  52.446  1.00  0.00     0.010 A 
HETATM    5  C11 UNL     1      26.040   1.424  51.398  1.00  0.00     0.035 C 
HETATM    6  C12 UNL     1      26.548   2.537  50.599  1.00  0.00     0.148 C 
HETATM    7  N3  UNL     1      25.493   3.275  49.864  1.00  0.00    -0.306 N 
HETATM    8  C13 UNL     1      24.257   2.511  49.728  1.00  0.00     0.090 C 
HETATM    9  C14 UNL     1      23.358   2.261  50.736  1.00  0.00     0.061 C 
HETATM   10  C15 UNL     1      23.233   1.609  52.336  1.00  0.00     0.018 A 
HETATM   11  C16 UNL     1      24.040   0.541  52.619  1.00  0.00     0.013 A 
HETATM   12  C17 UNL     1      22.898  -0.325  52.770  1.00  0.00    -0.013 A 
HETATM   13  C18 UNL     1      21.576   0.150  52.603  1.00  0.00     0.010 A 
HETATM   14  C19 UNL     1      21.241   1.479  52.284  1.00  0.00     0.010 A 
HETATM   15  C22 UNL     1      22.200   2.431  52.106  1.00  0.00    -0.040 A 
HETATM   16  N4  UNL     1      25.708   4.565  49.367  1.00  0.00    -0.292 N 
HETATM   17  C23 UNL     1      25.061   5.354  50.347  1.00  0.00     0.396 C 
HETATM   18  N5  UNL     1      24.086   5.523  51.175  1.00  0.00    -0.361 NA
HETATM   19  H28 UNL     1      26.130   5.133  48.607  1.00  0.00     0.188 HD
ENDROOT
BRANCH   4  20
HETATM   20  C7  UNL     1      25.968   1.646  53.697  1.00  0.00     0.234 C 
HETATM   21  C8  UNL     1      27.213   2.382  53.502  1.00  0.00     0.067 C 
HETATM   22  C9  UNL     1      27.854   1.149  54.107  1.00  0.00     0.274 C 
HETATM   23  N2  UNL     1      26.574   0.458  54.104  1.00  0.00     0.089 N 
HETATM   24  C10 UNL     1      26.287  -0.030  55.438  1.00  0.00     0.310 C 
ENDBRANCH   4  20
BRANCH   1  25
HETATM   25  N1  UNL     1      22.031   5.308  50.692  1.00  0.00    -0.379 N 
HETATM   26  C1  UNL     1      21.350   4.874  49.468  1.00  0.00     0.150 C 
HETATM   27  C2  UNL     1      21.543   6.598  51.167  1.00  0.00     0.150 C 
ENDBRANCH   1  25
BRANCH  14  28
HETATM   28  C20 UNL     1      20.044   2.302  52.134  1.00  0.00     0.213 A 
HETATM   29  C21 UNL     1      19.416   2.154  50.728  1.00  0.00     0.245 A 
HETATM   30  O2  UNL     1      18.827   1.729  51.885  1.00  0.00    -0.344 OA
BRANCH  28  31
HETATM   31  O1  UNL     1      19.984   3.612  52.637  1.00  0.00    -0.360 OA
HETATM   32  H25 UNL     1      20.380   3.565  53.545  1.00  0.00     0.213 HD
ENDBRANCH  28  31
ENDBRANCH  14  28
TORSDOF 4
ENDMDL
MODEL 6
REMARK VINA RESULT:      -7.9      2.255      3.846
REMARK  4 active torsions:
REMARK  status: ('A' for Active; 'I' for Inactive)
REMARK    1  A    between atoms: N1_2  and  C3_4 
REMARK    2  A    between atoms: C6_7  and  C7_8 
REMARK    3  A    between atoms: C19_22  and  C20_23 
REMARK    4  A    between atoms: C20_23  and  O1_24 
ROOT
HETATM    1  C3  UNL     1      24.501   1.663  51.609  1.00  0.00     0.084 C 
HETATM    2  C4  UNL     1      23.271   1.443  51.261  1.00  0.00     0.052 C 
HETATM    3  C5  UNL     1      22.754   2.044  49.974  1.00  0.00     0.036 C 
HETATM    4  C6  UNL     1      21.331   2.554  49.856  1.00  0.00     0.010 A 
HETATM    5  C11 UNL     1      21.272   4.030  49.917  1.00  0.00     0.035 C 
HETATM    6  C12 UNL     1      22.472   4.860  49.986  1.00  0.00     0.148 C 
HETATM    7  N3  UNL     1      23.349   4.546  51.140  1.00  0.00    -0.306 N 
HETATM    8  C13 UNL     1      22.661   3.805  52.191  1.00  0.00     0.090 C 
HETATM    9  C14 UNL     1      22.296   2.482  52.128  1.00  0.00     0.061 C 
HETATM   10  C15 UNL     1      21.417   1.343  51.163  1.00  0.00     0.018 A 
HETATM   11  C16 UNL     1      20.289   1.814  50.547  1.00  0.00     0.013 A 
HETATM   12  C17 UNL     1      19.454   0.952  51.343  1.00  0.00    -0.013 A 
HETATM   13  C18 UNL     1      19.996   0.075  52.312  1.00  0.00     0.010 A 
HETATM   14  C19 UNL     1      21.370  -0.051  52.592  1.00  0.00     0.010 A 
HETATM   15  C22 UNL     1      22.301   0.691  51.930  1.00  0.00    -0.040 A 
HETATM   16  N4  UNL     1      24.691   4.943  51.172  1.00  0.00    -0.292 N 
HETATM   17  C23 UNL     1      25.347   3.741  50.817  1.00  0.00     0.396 C 
HETATM   18  N5  UNL     1      25.427   2.456  50.879  1.00  0.00    -0.361 NA
HETATM   19  H28 UNL     1      25.350   5.727  51.346  1.00  0.00     0.188 HD
ENDROOT
BRANCH   4  20
HETATM   20  C7  UNL     1      21.150   2.381  48.302  1.00  0.00     0.234 C 
HETATM   21  C8  UNL     1      22.390   2.219  47.549  1.00  0.00     0.067 C 
HETATM   22  C9  UNL     1      21.800   3.288  46.650  1.00  0.00     0.274 C 
HETATM   23  N2  UNL     1      20.685   3.471  47.567  1.00  0.00     0.089 N 
HETATM   24  C10 UNL     1      19.438   3.321  46.844  1.00  0.00     0.310 C 
ENDBRANCH   4  20
BRANCH   1  25
HETATM   25  N1  UNL     1      25.362   1.319  52.669  1.00  0.00    -0.379 N 
HETATM   26  C1  UNL     1      25.292   1.905  54.012  1.00  0.00     0.150 C 
HETATM   27  C2  UNL     1      26.433   0.335  52.552  1.00  0.00     0.150 C 
ENDBRANCH   1  25
BRANCH  14  28
HETATM   28  C20 UNL     1      22.249  -0.876  53.416  1.00  0.00     0.213 A 
HETATM   29  C21 UNL     1      22.168  -0.489  54.912  1.00  0.00     0.245 A 
HETATM   30  O2  UNL     1      21.738  -1.680  54.398  1.00  0.00    -0.344 OA
BRANCH  28  31
HETATM   31  O1  UNL     1      23.546  -1.215  52.996  1.00  0.00    -0.360 OA
HETATM   32  H25 UNL     1      24.157  -0.720  53.599  1.00  0.00     0.213 HD
ENDBRANCH  28  31
ENDBRANCH  14  28
TORSDOF 4
ENDMDL
MODEL 7
REMARK VINA RESULT:      -7.8      2.367      5.293
REMARK  4 active torsions:
REMARK  status: ('A' for Active; 'I' for Inactive)
REMARK    1  A    between atoms: N1_2  and  C3_4 
REMARK    2  A    between atoms: C6_7  and  C7_8 
REMARK    3  A    between atoms: C19_22  and  C20_23 
REMARK    4  A    between atoms: C20_23  and  O1_24 
ROOT
HETATM    1  C3  UNL     1      19.713   1.966  51.388  1.00  0.00     0.084 C 
HETATM    2  C4  UNL     1      20.971   2.036  51.698  1.00  0.00     0.052 C 
HETATM    3  C5  UNL     1      21.821   3.115  51.069  1.00  0.00     0.036 C 
HETATM    4  C6  UNL     1      23.266   2.859  50.685  1.00  0.00     0.010 A 
HETATM    5  C11 UNL     1      23.419   2.667  49.228  1.00  0.00     0.035 C 
HETATM    6  C12 UNL     1      22.302   2.811  48.298  1.00  0.00     0.148 C 
HETATM    7  N3  UNL     1      21.155   1.921  48.599  1.00  0.00    -0.306 N 
HETATM    8  C13 UNL     1      21.517   0.802  49.462  1.00  0.00     0.090 C 
HETATM    9  C14 UNL     1      21.787   0.886  50.807  1.00  0.00     0.061 C 
HETATM   10  C15 UNL     1      22.782   1.709  51.961  1.00  0.00     0.018 A 
HETATM   11  C16 UNL     1      24.056   2.007  51.558  1.00  0.00     0.013 A 
HETATM   12  C17 UNL     1      24.612   1.112  52.540  1.00  0.00    -0.013 A 
HETATM   13  C18 UNL     1      23.791   0.369  53.421  1.00  0.00     0.010 A 
HETATM   14  C19 UNL     1      22.385   0.425  53.437  1.00  0.00     0.010 A 
HETATM   15  C22 UNL     1      21.695   1.223  52.575  1.00  0.00    -0.040 A 
HETATM   16  N4  UNL     1      19.877   2.168  48.084  1.00  0.00    -0.292 N 
HETATM   17  C23 UNL     1      19.236   2.761  49.197  1.00  0.00     0.396 C 
HETATM   18  N5  UNL     1      19.049   2.823  50.471  1.00  0.00    -0.361 NA
HETATM   19  H28 UNL     1      19.257   2.089  47.255  1.00  0.00     0.188 HD
ENDROOT
BRANCH   4  20
HETATM   20  C7  UNL     1      23.797   4.338  50.779  1.00  0.00     0.234 C 
HETATM   21  C8  UNL     1      22.765   5.358  50.940  1.00  0.00     0.067 C 
HETATM   22  C9  UNL     1      23.502   6.056  49.813  1.00  0.00     0.274 C 
HETATM   23  N2  UNL     1      24.374   4.904  49.644  1.00  0.00     0.089 N 
HETATM   24  C10 UNL     1      25.757   5.332  49.724  1.00  0.00     0.310 C 
ENDBRANCH   4  20
BRANCH   1  25
HETATM   25  N1  UNL     1      18.602   1.164  51.716  1.00  0.00    -0.379 N 
HETATM   26  C1  UNL     1      18.583  -0.299  51.620  1.00  0.00     0.150 C 
HETATM   27  C2  UNL     1      17.331   1.702  52.189  1.00  0.00     0.150 C 
ENDBRANCH   1  25
BRANCH  14  28
HETATM   28  C20 UNL     1      21.276  -0.103  54.227  1.00  0.00     0.213 A 
HETATM   29  C21 UNL     1      20.933  -1.560  53.836  1.00  0.00     0.245 A 
HETATM   30  O2  UNL     1      21.452  -1.187  55.043  1.00  0.00    -0.344 OA
BRANCH  28  31
HETATM   31  O1  UNL     1      20.146   0.677  54.523  1.00  0.00    -0.360 OA
HETATM   32  H25 UNL     1      20.152   1.413  53.860  1.00  0.00     0.213 HD
ENDBRANCH  28  31
ENDBRANCH  14  28
TORSDOF 4
ENDMDL
MODEL 8
REMARK VINA RESULT:      -7.7      8.499     11.289
REMARK  4 active torsions:
REMARK  status: ('A' for Active; 'I' for Inactive)
REMARK    1  A    between atoms: N1_2  and  C3_4 
REMARK    2  A    between atoms: C6_7  and  C7_8 
REMARK    3  A    between atoms: C19_22  and  C20_23 
REMARK    4  A    between atoms: C20_23  and  O1_24 
ROOT
HETATM    1  C3  UNL     1      30.516  10.210  48.198  1.00  0.00     0.084 C 
HETATM    2  C4  UNL     1      30.166   8.971  48.369  1.00  0.00     0.052 C 
HETATM    3  C5  UNL     1      31.213   7.890  48.233  1.00  0.00     0.036 C 
HETATM    4  C6  UNL     1      30.881   6.542  47.622  1.00  0.00     0.010 A 
HETATM    5  C11 UNL     1      31.387   6.429  46.238  1.00  0.00     0.035 C 
HETATM    6  C12 UNL     1      32.187   7.476  45.609  1.00  0.00     0.148 C 
HETATM    7  N3  UNL     1      31.521   8.801  45.579  1.00  0.00    -0.306 N 
HETATM    8  C13 UNL     1      30.078   8.714  45.772  1.00  0.00     0.090 C 
HETATM    9  C14 UNL     1      29.446   8.440  46.961  1.00  0.00     0.061 C 
HETATM   10  C15 UNL     1      29.387   7.288  48.253  1.00  0.00     0.018 A 
HETATM   11  C16 UNL     1      29.572   5.977  47.904  1.00  0.00     0.013 A 
HETATM   12  C17 UNL     1      28.222   5.651  48.285  1.00  0.00    -0.013 A 
HETATM   13  C18 UNL     1      27.335   6.626  48.796  1.00  0.00     0.010 A 
HETATM   14  C19 UNL     1      27.665   7.981  48.987  1.00  0.00     0.010 A 
HETATM   15  C22 UNL     1      28.902   8.462  48.679  1.00  0.00    -0.040 A 
HETATM   16  N4  UNL     1      32.244   9.983  45.379  1.00  0.00    -0.292 N 
HETATM   17  C23 UNL     1      32.346  10.475  46.701  1.00  0.00     0.396 C 
HETATM   18  N5  UNL     1      31.825  10.650  47.867  1.00  0.00    -0.361 NA
HETATM   19  H28 UNL     1      32.703  10.600  44.681  1.00  0.00     0.188 HD
ENDROOT
BRANCH   4  20
HETATM   20  C7  UNL     1      31.986   5.682  48.342  1.00  0.00     0.234 C 
HETATM   21  C8  UNL     1      33.062   6.449  48.960  1.00  0.00     0.067 C 
HETATM   22  C9  UNL     1      33.964   5.470  48.235  1.00  0.00     0.274 C 
HETATM   23  N2  UNL     1      32.818   4.887  47.555  1.00  0.00     0.089 N 
HETATM   24  C10 UNL     1      32.802   3.455  47.779  1.00  0.00     0.310 C 
ENDBRANCH   4  20
BRANCH   1  25
HETATM   25  N1  UNL     1      29.905  11.479  48.228  1.00  0.00    -0.379 N 
HETATM   26  C1  UNL     1      28.888  11.928  47.271  1.00  0.00     0.150 C 
HETATM   27  C2  UNL     1      30.218  12.501  49.221  1.00  0.00     0.150 C 
ENDBRANCH   1  25
BRANCH  14  28
HETATM   28  C20 UNL     1      27.064   9.188  49.550  1.00  0.00     0.213 A 
HETATM   29  C21 UNL     1      26.197   9.938  48.511  1.00  0.00     0.245 A 
HETATM   30  O2  UNL     1      25.705   9.322  49.627  1.00  0.00    -0.344 OA
BRANCH  28  31
HETATM   31  O1  UNL     1      27.787  10.043  50.397  1.00  0.00    -0.360 OA
HETATM   32  H25 UNL     1      27.244  10.870  50.464  1.00  0.00     0.213 HD
ENDBRANCH  28  31
ENDBRANCH  14  28
TORSDOF 4
ENDMDL
MODEL 9
REMARK VINA RESULT:      -7.7      1.980      5.140
REMARK  4 active torsions:
REMARK  status: ('A' for Active; 'I' for Inactive)
REMARK    1  A    between atoms: N1_2  and  C3_4 
REMARK    2  A    between atoms: C6_7  and  C7_8 
REMARK    3  A    between atoms: C19_22  and  C20_23 
REMARK    4  A    between atoms: C20_23  and  O1_24 
ROOT
HETATM    1  C3  UNL     1      21.618   2.757  51.160  1.00  0.00     0.084 C 
HETATM    2  C4  UNL     1      22.686   3.399  50.798  1.00  0.00     0.052 C 
HETATM    3  C5  UNL     1      22.539   4.728  50.094  1.00  0.00     0.036 C 
HETATM    4  C6  UNL     1      23.487   5.143  48.986  1.00  0.00     0.010 A 
HETATM    5  C11 UNL     1      22.866   4.999  47.652  1.00  0.00     0.035 C 
HETATM    6  C12 UNL     1      21.474   4.594  47.476  1.00  0.00     0.148 C 
HETATM    7  N3  UNL     1      21.147   3.290  48.102  1.00  0.00    -0.306 N 
HETATM    8  C13 UNL     1      22.330   2.483  48.379  1.00  0.00     0.090 C 
HETATM    9  C14 UNL     1      23.242   2.718  49.380  1.00  0.00     0.061 C 
HETATM   10  C15 UNL     1      24.289   3.936  50.027  1.00  0.00     0.018 A 
HETATM   11  C16 UNL     1      24.884   4.768  49.117  1.00  0.00     0.013 A 
HETATM   12  C17 UNL     1      26.188   4.250  49.446  1.00  0.00    -0.013 A 
HETATM   13  C18 UNL     1      26.365   3.242  50.422  1.00  0.00     0.010 A 
HETATM   14  C19 UNL     1      25.319   2.655  51.160  1.00  0.00     0.010 A 
HETATM   15  C22 UNL     1      24.022   3.028  50.975  1.00  0.00    -0.040 A 
HETATM   16  N4  UNL     1      19.827   2.916  48.375  1.00  0.00    -0.292 N 
HETATM   17  C23 UNL     1      19.741   3.186  49.762  1.00  0.00     0.396 C 
HETATM   18  N5  UNL     1      20.286   3.193  50.930  1.00  0.00    -0.361 NA
HETATM   19  H28 UNL     1      18.943   2.540  47.982  1.00  0.00     0.188 HD
ENDROOT
BRANCH   4  20
HETATM   20  C7  UNL     1      23.350   6.704  49.136  1.00  0.00     0.234 C 
HETATM   21  C8  UNL     1      24.593   7.408  49.435  1.00  0.00     0.067 C 
HETATM   22  C9  UNL     1      23.770   8.076  50.519  1.00  0.00     0.274 C 
HETATM   23  N2  UNL     1      22.644   7.202  50.231  1.00  0.00     0.089 N 
HETATM   24  C10 UNL     1      21.465   8.005  49.972  1.00  0.00     0.310 C 
ENDBRANCH   4  20
BRANCH   1  25
HETATM   25  N1  UNL     1      21.298   1.549  51.809  1.00  0.00    -0.379 N 
HETATM   26  C1  UNL     1      20.720   1.463  53.155  1.00  0.00     0.150 C 
HETATM   27  C2  UNL     1      21.509   0.233  51.216  1.00  0.00     0.150 C 
ENDBRANCH   1  25
BRANCH  14  28
HETATM   28  C20 UNL     1      25.150   1.704  52.255  1.00  0.00     0.213 A 
HETATM   29  C21 UNL     1      25.869   2.174  53.542  1.00  0.00     0.245 A 
HETATM   30  O2  UNL     1      24.513   2.072  53.409  1.00  0.00    -0.344 OA
BRANCH  28  31
HETATM   31  O1  UNL     1      25.230   0.318  52.044  1.00  0.00    -0.360 OA
HETATM   32  H25 UNL     1      25.909   0.197  51.332  1.00  0.00     0.213 HD
ENDBRANCH  28  31
ENDBRANCH  14  28
TORSDOF 4
ENDMDL
