MODEL 1
REMARK VINA RESULT:      -8.1      0.000      0.000
REMARK  7 active torsions:
REMARK  status: ('A' for Active; 'I' for Inactive)
REMARK    1  A    between atoms: O1_2  and  C2_3 
REMARK    2  A    between atoms: C2_3  and  C3_4 
REMARK    3  A    between atoms: C3_4  and  O2_5 
REMARK    4  A    between atoms: O2_5  and  C4_6 
REMARK    5  A    between atoms: C8_11  and  O4_12 
REMARK    6  A    between atoms: C12_18  and  N3_19 
REMARK    7  A    between atoms: N3_19  and  C13_20 
ROOT
HETATM    1  C4  UNL     1      25.377   0.040  53.939  1.00  0.00     0.091 C 
HETATM    2  C5  UNL     1      24.991  -0.824  54.840  1.00  0.00     0.171 C 
HETATM    3  O3  UNL     1      23.704  -1.001  54.770  1.00  0.00    -0.360 OA
HETATM    4  C6  UNL     1      22.639  -1.667  55.295  1.00  0.00     0.177 C 
HETATM    5  C7  UNL     1      21.485  -1.690  54.314  1.00  0.00     0.062 C 
HETATM    6  C8  UNL     1      20.982  -0.352  53.905  1.00  0.00     0.145 C 
HETATM    7  C9  UNL     1      21.803   0.483  53.052  1.00  0.00     0.037 C 
HETATM    8  C10 UNL     1      22.683   1.171  52.371  1.00  0.00     0.071 A 
HETATM    9  N1  UNL     1      21.779   1.778  51.589  1.00  0.00    -0.241 NA
HETATM   10  C11 UNL     1      22.126   2.642  50.614  1.00  0.00     0.236 A 
HETATM   11  N2  UNL     1      23.426   2.894  50.430  1.00  0.00    -0.224 NA
HETATM   12  C12 UNL     1      24.314   2.282  51.216  1.00  0.00     0.142 A 
HETATM   13  C17 UNL     1      24.025   1.403  52.213  1.00  0.00     0.041 A 
HETATM   14  C18 UNL     1      25.042   0.924  52.880  1.00  0.00     0.056 C 
ENDROOT
BRANCH  12  15
HETATM   15  N3  UNL     1      25.665   2.622  50.932  1.00  0.00    -0.340 N 
HETATM   16  H17 UNL     1      26.661   2.329  51.055  1.00  0.00     0.167 HD
BRANCH  15  17
HETATM   17  C13 UNL     1      25.934   3.815  50.185  1.00  0.00     0.033 A 
HETATM   18  C14 UNL     1      26.881   3.871  49.236  1.00  0.00     0.029 A 
HETATM   19  C15 UNL     1      26.636   5.274  48.909  1.00  0.00     0.004 A 
HETATM   20  C16 UNL     1      25.687   5.211  49.864  1.00  0.00     0.029 A 
ENDBRANCH  15  17
ENDBRANCH  12  15
BRANCH   1  21
HETATM   21  O2  UNL     1      26.700  -0.100  54.363  1.00  0.00    -0.347 OA
BRANCH  21  22
HETATM   22  C3  UNL     1      27.828   0.058  53.558  1.00  0.00     0.201 C 
BRANCH  22  23
HETATM   23  C2  UNL     1      29.037   0.372  54.442  1.00  0.00     0.193 C 
BRANCH  23  24
HETATM   24  O1  UNL     1      28.946   1.731  54.745  1.00  0.00    -0.394 OA
HETATM   25  C1  UNL     1      28.688   2.461  53.608  1.00  0.00     0.201 C 
ENDBRANCH  23  24
ENDBRANCH  22  23
ENDBRANCH  21  22
ENDBRANCH   1  21
BRANCH   6  26
HETATM   26  O4  UNL     1      20.528   0.385  55.035  1.00  0.00    -0.392 OA
HETATM   27  H14 UNL     1      19.559   0.558  54.998  1.00  0.00     0.210 HD
ENDBRANCH   6  26
TORSDOF 7
ENDMDL
MODEL 2
REMARK VINA RESULT:      -7.6      2.767      5.191
REMARK  7 active torsions:
REMARK  status: ('A' for Active; 'I' for Inactive)
REMARK    1  A    between atoms: O1_2  and  C2_3 
REMARK    2  A    between atoms: C2_3  and  C3_4 
REMARK    3  A    between atoms: C3_4  and  O2_5 
REMARK    4  A    between atoms: O2_5  and  C4_6 
REMARK    5  A    between atoms: C8_11  and  O4_12 
REMARK    6  A    between atoms: C12_18  and  N3_19 
REMARK    7  A    between atoms: N3_19  and  C13_20 
ROOT
HETATM    1  C4  UNL     1      24.522   2.986  51.570  1.00  0.00     0.091 C 
HETATM    2  C5  UNL     1      23.462   3.488  50.996  1.00  0.00     0.171 C 
HETATM    3  O3  UNL     1      22.392   2.881  51.421  1.00  0.00    -0.360 OA
HETATM    4  C6  UNL     1      21.035   2.817  51.330  1.00  0.00     0.177 C 
HETATM    5  C7  UNL     1      20.449   2.138  52.551  1.00  0.00     0.062 C 
HETATM    6  C8  UNL     1      20.919   0.747  52.782  1.00  0.00     0.145 C 
HETATM    7  C9  UNL     1      22.285   0.523  53.207  1.00  0.00     0.037 C 
HETATM    8  C10 UNL     1      23.562   0.456  53.487  1.00  0.00     0.071 A 
HETATM    9  N1  UNL     1      23.446  -0.584  54.324  1.00  0.00    -0.241 NA
HETATM   10  C11 UNL     1      24.501  -1.111  54.977  1.00  0.00     0.236 A 
HETATM   11  N2  UNL     1      25.704  -0.565  54.773  1.00  0.00    -0.224 NA
HETATM   12  C12 UNL     1      25.803   0.471  53.937  1.00  0.00     0.142 A 
HETATM   13  C17 UNL     1      24.778   1.044  53.252  1.00  0.00     0.041 A 
HETATM   14  C18 UNL     1      25.088   2.043  52.468  1.00  0.00     0.056 C 
ENDROOT
BRANCH  12  15
HETATM   15  N3  UNL     1      27.126   0.972  53.797  1.00  0.00    -0.340 N 
HETATM   16  H17 UNL     1      27.711   1.839  53.767  1.00  0.00     0.167 HD
BRANCH  15  17
HETATM   17  C13 UNL     1      28.203   0.042  53.620  1.00  0.00     0.033 A 
HETATM   18  C14 UNL     1      29.477   0.356  53.896  1.00  0.00     0.029 A 
HETATM   19  C15 UNL     1      30.005  -0.953  53.515  1.00  0.00     0.004 A 
HETATM   20  C16 UNL     1      28.722  -1.261  53.240  1.00  0.00     0.029 A 
ENDBRANCH  15  17
ENDBRANCH  12  15
BRANCH   1  21
HETATM   21  O2  UNL     1      25.333   3.880  50.868  1.00  0.00    -0.347 OA
BRANCH  21  22
HETATM   22  C3  UNL     1      26.277   3.529  49.903  1.00  0.00     0.201 C 
BRANCH  22  23
HETATM   23  C2  UNL     1      26.705   4.784  49.138  1.00  0.00     0.193 C 
BRANCH  23  24
HETATM   24  O1  UNL     1      27.976   4.508  48.633  1.00  0.00    -0.394 OA
HETATM   25  C1  UNL     1      28.625   5.674  48.298  1.00  0.00     0.201 C 
ENDBRANCH  23  24
ENDBRANCH  22  23
ENDBRANCH  21  22
ENDBRANCH   1  21
BRANCH   6  26
HETATM   26  O4  UNL     1      20.600  -0.085  51.672  1.00  0.00    -0.392 OA
HETATM   27  H14 UNL     1      20.172  -0.927  51.953  1.00  0.00     0.210 HD
ENDBRANCH   6  26
TORSDOF 7
ENDMDL
MODEL 3
REMARK VINA RESULT:      -7.3      2.744      6.426
REMARK  7 active torsions:
REMARK  status: ('A' for Active; 'I' for Inactive)
REMARK    1  A    between atoms: O1_2  and  C2_3 
REMARK    2  A    between atoms: C2_3  and  C3_4 
REMARK    3  A    between atoms: C3_4  and  O2_5 
REMARK    4  A    between atoms: O2_5  and  C4_6 
REMARK    5  A    between atoms: C8_11  and  O4_12 
REMARK    6  A    between atoms: C12_18  and  N3_19 
REMARK    7  A    between atoms: N3_19  and  C13_20 
ROOT
HETATM    1  C4  UNL     1      23.909   2.418  51.726  1.00  0.00     0.091 C 
HETATM    2  C5  UNL     1      25.194   2.550  51.525  1.00  0.00     0.171 C 
HETATM    3  O3  UNL     1      25.838   1.563  52.076  1.00  0.00    -0.360 OA
HETATM    4  C6  UNL     1      27.065   1.017  52.295  1.00  0.00     0.177 C 
HETATM    5  C7  UNL     1      26.943  -0.457  52.627  1.00  0.00     0.062 C 
HETATM    6  C8  UNL     1      26.127  -0.763  53.831  1.00  0.00     0.145 C 
HETATM    7  C9  UNL     1      24.692  -0.567  53.783  1.00  0.00     0.037 C 
HETATM    8  C10 UNL     1      23.432  -0.249  53.638  1.00  0.00     0.071 A 
HETATM    9  N1  UNL     1      22.968  -1.263  54.382  1.00  0.00    -0.241 NA
HETATM   10  C11 UNL     1      21.651  -1.472  54.582  1.00  0.00     0.236 A 
HETATM   11  N2  UNL     1      20.785  -0.630  54.010  1.00  0.00    -0.224 NA
HETATM   12  C12 UNL     1      21.262   0.374  53.271  1.00  0.00     0.142 A 
HETATM   13  C17 UNL     1      22.576   0.636  53.033  1.00  0.00     0.041 A 
HETATM   14  C18 UNL     1      22.836   1.680  52.293  1.00  0.00     0.056 C 
ENDROOT
BRANCH  12  15
HETATM   15  N3  UNL     1      20.255   1.205  52.710  1.00  0.00    -0.340 N 
HETATM   16  H17 UNL     1      19.943   2.194  52.577  1.00  0.00     0.167 HD
BRANCH  15  17
HETATM   17  C13 UNL     1      19.163   0.593  52.012  1.00  0.00     0.033 A 
HETATM   18  C14 UNL     1      19.065   0.607  50.674  1.00  0.00     0.029 A 
HETATM   19  C15 UNL     1      17.808  -0.138  50.641  1.00  0.00     0.004 A 
HETATM   20  C16 UNL     1      17.913  -0.148  51.985  1.00  0.00     0.029 A 
ENDBRANCH  15  17
ENDBRANCH  12  15
BRANCH   1  21
HETATM   21  O2  UNL     1      23.671   3.593  51.011  1.00  0.00    -0.347 OA
BRANCH  21  22
HETATM   22  C3  UNL     1      22.434   3.992  50.501  1.00  0.00     0.201 C 
BRANCH  22  23
HETATM   23  C2  UNL     1      21.728   4.876  51.531  1.00  0.00     0.193 C 
BRANCH  23  24
HETATM   24  O1  UNL     1      20.519   4.240  51.814  1.00  0.00    -0.394 OA
HETATM   25  C1  UNL     1      19.694   4.261  50.713  1.00  0.00     0.201 C 
ENDBRANCH  23  24
ENDBRANCH  22  23
ENDBRANCH  21  22
ENDBRANCH   1  21
BRANCH   6  26
HETATM   26  O4  UNL     1      26.677  -0.140  54.987  1.00  0.00    -0.392 OA
HETATM   27  H14 UNL     1      25.999   0.004  55.687  1.00  0.00     0.210 HD
ENDBRANCH   6  26
TORSDOF 7
ENDMDL
MODEL 4
REMARK VINA RESULT:      -7.3      2.368      5.491
REMARK  7 active torsions:
REMARK  status: ('A' for Active; 'I' for Inactive)
REMARK    1  A    between atoms: O1_2  and  C2_3 
REMARK    2  A    between atoms: C2_3  and  C3_4 
REMARK    3  A    between atoms: C3_4  and  O2_5 
REMARK    4  A    between atoms: O2_5  and  C4_6 
REMARK    5  A    between atoms: C8_11  and  O4_12 
REMARK    6  A    between atoms: C12_18  and  N3_19 
REMARK    7  A    between atoms: N3_19  and  C13_20 
ROOT
HETATM    1  C4  UNL     1      22.105   1.132  52.496  1.00  0.00     0.091 C 
HETATM    2  C5  UNL     1      20.925   1.691  52.434  1.00  0.00     0.171 C 
HETATM    3  O3  UNL     1      21.003   2.833  51.815  1.00  0.00    -0.360 OA
HETATM    4  C6  UNL     1      20.300   3.914  51.378  1.00  0.00     0.177 C 
HETATM    5  C7  UNL     1      21.054   4.631  50.276  1.00  0.00     0.062 C 
HETATM    6  C8  UNL     1      22.399   5.133  50.660  1.00  0.00     0.145 C 
HETATM    7  C9  UNL     1      23.469   4.185  50.891  1.00  0.00     0.037 C 
HETATM    8  C10 UNL     1      24.311   3.223  51.170  1.00  0.00     0.071 A 
HETATM    9  N1  UNL     1      25.386   3.864  50.692  1.00  0.00    -0.241 NA
HETATM   10  C11 UNL     1      26.617   3.315  50.689  1.00  0.00     0.236 A 
HETATM   11  N2  UNL     1      26.757   2.081  51.185  1.00  0.00    -0.224 NA
HETATM   12  C12 UNL     1      25.677   1.455  51.657  1.00  0.00     0.142 A 
HETATM   13  C17 UNL     1      24.413   1.956  51.686  1.00  0.00     0.041 A 
HETATM   14  C18 UNL     1      23.494   1.186  52.205  1.00  0.00     0.056 C 
ENDROOT
BRANCH  12  15
HETATM   15  N3  UNL     1      25.941   0.151  52.157  1.00  0.00    -0.340 N 
HETATM   16  H17 UNL     1      25.617  -0.844  52.158  1.00  0.00     0.167 HD
BRANCH  15  17
HETATM   17  C13 UNL     1      27.070  -0.044  53.018  1.00  0.00     0.033 A 
HETATM   18  C14 UNL     1      27.117   0.447  54.266  1.00  0.00     0.029 A 
HETATM   19  C15 UNL     1      28.450  -0.082  54.549  1.00  0.00     0.004 A 
HETATM   20  C16 UNL     1      28.396  -0.571  53.295  1.00  0.00     0.029 A 
ENDBRANCH  15  17
ENDBRANCH  12  15
BRANCH   1  21
HETATM   21  O2  UNL     1      21.557   0.039  53.171  1.00  0.00    -0.347 OA
BRANCH  21  22
HETATM   22  C3  UNL     1      21.646  -0.189  54.545  1.00  0.00     0.201 C 
BRANCH  22  23
HETATM   23  C2  UNL     1      21.899  -1.678  54.791  1.00  0.00     0.193 C 
BRANCH  23  24
HETATM   24  O1  UNL     1      22.859  -1.740  55.801  1.00  0.00    -0.394 OA
HETATM   25  C1  UNL     1      24.070  -1.276  55.343  1.00  0.00     0.201 C 
ENDBRANCH  23  24
ENDBRANCH  22  23
ENDBRANCH  21  22
ENDBRANCH   1  21
BRANCH   6  26
HETATM   26  O4  UNL     1      22.306   6.053  51.741  1.00  0.00    -0.392 OA
HETATM   27  H14 UNL     1      22.343   5.601  52.616  1.00  0.00     0.210 HD
ENDBRANCH   6  26
TORSDOF 7
ENDMDL
MODEL 5
REMARK VINA RESULT:      -7.1      2.985      6.098
REMARK  7 active torsions:
REMARK  status: ('A' for Active; 'I' for Inactive)
REMARK    1  A    between atoms: O1_2  and  C2_3 
REMARK    2  A    between atoms: C2_3  and  C3_4 
REMARK    3  A    between atoms: C3_4  and  O2_5 
REMARK    4  A    between atoms: O2_5  and  C4_6 
REMARK    5  A    between atoms: C8_11  and  O4_12 
REMARK    6  A    between atoms: C12_18  and  N3_19 
REMARK    7  A    between atoms: N3_19  and  C13_20 
ROOT
HETATM    1  C4  UNL     1      23.781   2.386  51.633  1.00  0.00     0.091 C 
HETATM    2  C5  UNL     1      25.070   2.464  51.434  1.00  0.00     0.171 C 
HETATM    3  O3  UNL     1      25.673   1.462  52.005  1.00  0.00    -0.360 OA
HETATM    4  C6  UNL     1      26.877   0.871  52.238  1.00  0.00     0.177 C 
HETATM    5  C7  UNL     1      26.695  -0.590  52.597  1.00  0.00     0.062 C 
HETATM    6  C8  UNL     1      25.865  -0.841  53.804  1.00  0.00     0.145 C 
HETATM    7  C9  UNL     1      24.440  -0.589  53.748  1.00  0.00     0.037 C 
HETATM    8  C10 UNL     1      23.193  -0.223  53.594  1.00  0.00     0.071 A 
HETATM    9  N1  UNL     1      22.688  -1.203  54.356  1.00  0.00    -0.241 NA
HETATM   10  C11 UNL     1      21.363  -1.356  54.556  1.00  0.00     0.236 A 
HETATM   11  N2  UNL     1      20.533  -0.490  53.965  1.00  0.00    -0.224 NA
HETATM   12  C12 UNL     1      21.052   0.480  53.209  1.00  0.00     0.142 A 
HETATM   13  C17 UNL     1      22.375   0.684  52.970  1.00  0.00     0.041 A 
HETATM   14  C18 UNL     1      22.679   1.703  52.211  1.00  0.00     0.056 C 
ENDROOT
BRANCH  12  15
HETATM   15  N3  UNL     1      20.079   1.340  52.630  1.00  0.00    -0.340 N 
HETATM   16  H17 UNL     1      19.783   2.336  52.515  1.00  0.00     0.167 HD
BRANCH  15  17
HETATM   17  C13 UNL     1      19.015   0.762  51.863  1.00  0.00     0.033 A 
HETATM   18  C14 UNL     1      18.979   0.821  50.523  1.00  0.00     0.029 A 
HETATM   19  C15 UNL     1      17.718   0.092  50.408  1.00  0.00     0.004 A 
HETATM   20  C16 UNL     1      17.760   0.037  51.754  1.00  0.00     0.029 A 
ENDBRANCH  15  17
ENDBRANCH  12  15
BRANCH   1  21
HETATM   21  O2  UNL     1      23.591   3.557  50.896  1.00  0.00    -0.347 OA
BRANCH  21  22
HETATM   22  C3  UNL     1      24.090   3.795  49.615  1.00  0.00     0.201 C 
BRANCH  22  23
HETATM   23  C2  UNL     1      24.028   5.296  49.323  1.00  0.00     0.193 C 
BRANCH  23  24
HETATM   24  O1  UNL     1      23.859   5.918  50.560  1.00  0.00    -0.394 OA
HETATM   25  C1  UNL     1      24.781   6.925  50.723  1.00  0.00     0.201 C 
ENDBRANCH  23  24
ENDBRANCH  22  23
ENDBRANCH  21  22
ENDBRANCH   1  21
BRANCH   6  26
HETATM   26  O4  UNL     1      26.437  -0.218  54.949  1.00  0.00    -0.392 OA
HETATM   27  H14 UNL     1      26.094  -0.603  55.789  1.00  0.00     0.210 HD
ENDBRANCH   6  26
TORSDOF 7
ENDMDL
MODEL 6
REMARK VINA RESULT:      -7.1      6.321     10.385
REMARK  7 active torsions:
REMARK  status: ('A' for Active; 'I' for Inactive)
REMARK    1  A    between atoms: O1_2  and  C2_3 
REMARK    2  A    between atoms: C2_3  and  C3_4 
REMARK    3  A    between atoms: C3_4  and  O2_5 
REMARK    4  A    between atoms: O2_5  and  C4_6 
REMARK    5  A    between atoms: C8_11  and  O4_12 
REMARK    6  A    between atoms: C12_18  and  N3_19 
REMARK    7  A    between atoms: N3_19  and  C13_20 
ROOT
HETATM    1  C4  UNL     1      28.750   5.863  48.403  1.00  0.00     0.091 C 
HETATM    2  C5  UNL     1      27.635   6.539  48.315  1.00  0.00     0.171 C 
HETATM    3  O3  UNL     1      27.890   7.808  48.184  1.00  0.00    -0.360 OA
HETATM    4  C6  UNL     1      27.342   9.046  48.039  1.00  0.00     0.177 C 
HETATM    5  C7  UNL     1      28.351  10.011  47.449  1.00  0.00     0.062 C 
HETATM    6  C8  UNL     1      29.590  10.191  48.250  1.00  0.00     0.145 C 
HETATM    7  C9  UNL     1      30.546   9.106  48.329  1.00  0.00     0.037 C 
HETATM    8  C10 UNL     1      31.269   8.018  48.400  1.00  0.00     0.071 A 
HETATM    9  N1  UNL     1      32.446   8.660  48.414  1.00  0.00    -0.241 NA
HETATM   10  C11 UNL     1      33.626   8.009  48.458  1.00  0.00     0.236 A 
HETATM   11  N2  UNL     1      33.608   6.673  48.487  1.00  0.00    -0.224 NA
HETATM   12  C12 UNL     1      32.428   6.049  48.472  1.00  0.00     0.142 A 
HETATM   13  C17 UNL     1      31.208   6.649  48.429  1.00  0.00     0.041 A 
HETATM   14  C18 UNL     1      30.169   5.856  48.437  1.00  0.00     0.056 C 
ENDROOT
BRANCH  12  15
HETATM   15  N3  UNL     1      32.526   4.631  48.505  1.00  0.00    -0.340 N 
HETATM   16  H17 UNL     1      32.117   3.757  48.908  1.00  0.00     0.167 HD
BRANCH  15  17
HETATM   17  C13 UNL     1      33.543   3.991  47.722  1.00  0.00     0.033 A 
HETATM   18  C14 UNL     1      33.389   3.737  46.414  1.00  0.00     0.029 A 
HETATM   19  C15 UNL     1      34.704   3.117  46.260  1.00  0.00     0.004 A 
HETATM   20  C16 UNL     1      34.851   3.376  47.575  1.00  0.00     0.029 A 
ENDBRANCH  15  17
ENDBRANCH  12  15
BRANCH   1  21
HETATM   21  O2  UNL     1      28.026   4.673  48.510  1.00  0.00    -0.347 OA
BRANCH  21  22
HETATM   22  C3  UNL     1      26.752   4.549  49.065  1.00  0.00     0.201 C 
BRANCH  22  23
HETATM   23  C2  UNL     1      26.564   3.119  49.577  1.00  0.00     0.193 C 
BRANCH  23  24
HETATM   24  O1  UNL     1      27.094   3.103  50.867  1.00  0.00    -0.394 OA
HETATM   25  C1  UNL     1      26.327   2.314  51.693  1.00  0.00     0.201 C 
ENDBRANCH  23  24
ENDBRANCH  22  23
ENDBRANCH  21  22
ENDBRANCH   1  21
BRANCH   6  26
HETATM   26  O4  UNL     1      29.284  10.683  49.550  1.00  0.00    -0.392 OA
HETATM   27  H14 UNL     1      30.097  10.867  50.076  1.00  0.00     0.210 HD
ENDBRANCH   6  26
TORSDOF 7
ENDMDL
MODEL 7
REMARK VINA RESULT:      -7.1      3.097      5.663
REMARK  7 active torsions:
REMARK  status: ('A' for Active; 'I' for Inactive)
REMARK    1  A    between atoms: O1_2  and  C2_3 
REMARK    2  A    between atoms: C2_3  and  C3_4 
REMARK    3  A    between atoms: C3_4  and  O2_5 
REMARK    4  A    between atoms: O2_5  and  C4_6 
REMARK    5  A    between atoms: C8_11  and  O4_12 
REMARK    6  A    between atoms: C12_18  and  N3_19 
REMARK    7  A    between atoms: N3_19  and  C13_20 
ROOT
HETATM    1  C4  UNL     1      25.852   3.553  50.455  1.00  0.00     0.091 C 
HETATM    2  C5  UNL     1      25.259   4.651  50.067  1.00  0.00     0.171 C 
HETATM    3  O3  UNL     1      24.067   4.723  50.584  1.00  0.00    -0.360 OA
HETATM    4  C6  UNL     1      22.932   5.470  50.670  1.00  0.00     0.177 C 
HETATM    5  C7  UNL     1      22.137   5.094  51.903  1.00  0.00     0.062 C 
HETATM    6  C8  UNL     1      21.708   3.672  51.964  1.00  0.00     0.145 C 
HETATM    7  C9  UNL     1      22.702   2.642  52.187  1.00  0.00     0.037 C 
HETATM    8  C10 UNL     1      23.707   1.811  52.288  1.00  0.00     0.071 A 
HETATM    9  N1  UNL     1      23.053   0.927  53.053  1.00  0.00    -0.241 NA
HETATM   10  C11 UNL     1      23.632  -0.198  53.518  1.00  0.00     0.236 A 
HETATM   11  N2  UNL     1      24.909  -0.428  53.198  1.00  0.00    -0.224 NA
HETATM   12  C12 UNL     1      25.548   0.463  52.436  1.00  0.00     0.142 A 
HETATM   13  C17 UNL     1      25.018   1.612  51.938  1.00  0.00     0.041 A 
HETATM   14  C18 UNL     1      25.808   2.344  51.197  1.00  0.00     0.056 C 
ENDROOT
BRANCH  12  15
HETATM   15  N3  UNL     1      26.899   0.119  52.158  1.00  0.00    -0.340 N 
HETATM   16  H17 UNL     1      27.552  -0.253  51.431  1.00  0.00     0.167 HD
BRANCH  15  17
HETATM   17  C13 UNL     1      27.883   0.301  53.185  1.00  0.00     0.033 A 
HETATM   18  C14 UNL     1      28.555   1.451  53.342  1.00  0.00     0.029 A 
HETATM   19  C15 UNL     1      29.335   0.976  54.483  1.00  0.00     0.004 A 
HETATM   20  C16 UNL     1      28.656  -0.177  54.319  1.00  0.00     0.029 A 
ENDBRANCH  15  17
ENDBRANCH  12  15
BRANCH   1  21
HETATM   21  O2  UNL     1      26.988   3.901  49.720  1.00  0.00    -0.347 OA
BRANCH  21  22
HETATM   22  C3  UNL     1      27.068   4.953  48.807  1.00  0.00     0.201 C 
BRANCH  22  23
HETATM   23  C2  UNL     1      28.530   5.154  48.400  1.00  0.00     0.193 C 
BRANCH  23  24
HETATM   24  O1  UNL     1      28.689   6.527  48.215  1.00  0.00    -0.394 OA
HETATM   25  C1  UNL     1      27.465   7.154  48.189  1.00  0.00     0.201 C 
ENDBRANCH  23  24
ENDBRANCH  22  23
ENDBRANCH  21  22
ENDBRANCH   1  21
BRANCH   6  26
HETATM   26  O4  UNL     1      20.889   3.343  50.848  1.00  0.00    -0.392 OA
HETATM   27  H14 UNL     1      20.532   2.426  50.909  1.00  0.00     0.210 HD
ENDBRANCH   6  26
TORSDOF 7
ENDMDL
MODEL 8
REMARK VINA RESULT:      -6.9      3.646      6.344
REMARK  7 active torsions:
REMARK  status: ('A' for Active; 'I' for Inactive)
REMARK    1  A    between atoms: O1_2  and  C2_3 
REMARK    2  A    between atoms: C2_3  and  C3_4 
REMARK    3  A    between atoms: C3_4  and  O2_5 
REMARK    4  A    between atoms: O2_5  and  C4_6 
REMARK    5  A    between atoms: C8_11  and  O4_12 
REMARK    6  A    between atoms: C12_18  and  N3_19 
REMARK    7  A    between atoms: N3_19  and  C13_20 
ROOT
HETATM    1  C4  UNL     1      26.595   4.560  49.435  1.00  0.00     0.091 C 
HETATM    2  C5  UNL     1      26.252   5.686  48.868  1.00  0.00     0.171 C 
HETATM    3  O3  UNL     1      25.098   6.082  49.319  1.00  0.00    -0.360 OA
HETATM    4  C6  UNL     1      24.147   7.054  49.249  1.00  0.00     0.177 C 
HETATM    5  C7  UNL     1      23.278   7.041  50.491  1.00  0.00     0.062 C 
HETATM    6  C8  UNL     1      22.556   5.765  50.739  1.00  0.00     0.145 C 
HETATM    7  C9  UNL     1      23.306   4.596  51.149  1.00  0.00     0.037 C 
HETATM    8  C10 UNL     1      24.112   3.599  51.410  1.00  0.00     0.071 A 
HETATM    9  N1  UNL     1      23.277   2.995  52.268  1.00  0.00    -0.241 NA
HETATM   10  C11 UNL     1      23.599   1.857  52.914  1.00  0.00     0.236 A 
HETATM   11  N2  UNL     1      24.802   1.321  52.683  1.00  0.00    -0.224 NA
HETATM   12  C12 UNL     1      25.622   1.934  51.828  1.00  0.00     0.142 A 
HETATM   13  C17 UNL     1      25.354   3.080  51.147  1.00  0.00     0.041 A 
HETATM   14  C18 UNL     1      26.288   3.512  50.342  1.00  0.00     0.056 C 
ENDROOT
BRANCH  12  15
HETATM   15  N3  UNL     1      26.872   1.279  51.659  1.00  0.00    -0.340 N 
HETATM   16  H17 UNL     1      27.488   0.779  50.977  1.00  0.00     0.167 HD
BRANCH  15  17
HETATM   17  C13 UNL     1      27.761   1.186  52.780  1.00  0.00     0.033 A 
HETATM   18  C14 UNL     1      28.344   2.263  53.326  1.00  0.00     0.029 A 
HETATM   19  C15 UNL     1      29.063   1.502  54.346  1.00  0.00     0.004 A 
HETATM   20  C16 UNL     1      28.474   0.424  53.792  1.00  0.00     0.029 A 
ENDBRANCH  15  17
ENDBRANCH  12  15
BRANCH   1  21
HETATM   21  O2  UNL     1      27.786   4.549  48.705  1.00  0.00    -0.347 OA
BRANCH  21  22
HETATM   22  C3  UNL     1      28.520   5.678  48.339  1.00  0.00     0.201 C 
BRANCH  22  23
HETATM   23  C2  UNL     1      29.945   5.254  47.976  1.00  0.00     0.193 C 
BRANCH  23  24
HETATM   24  O1  UNL     1      30.725   5.542  49.096  1.00  0.00    -0.394 OA
HETATM   25  C1  UNL     1      32.062   5.418  48.797  1.00  0.00     0.201 C 
ENDBRANCH  23  24
ENDBRANCH  22  23
ENDBRANCH  21  22
ENDBRANCH   1  21
BRANCH   6  26
HETATM   26  O4  UNL     1      21.697   5.450  49.649  1.00  0.00    -0.392 OA
HETATM   27  H14 UNL     1      21.823   4.525  49.335  1.00  0.00     0.210 HD
ENDBRANCH   6  26
TORSDOF 7
ENDMDL
MODEL 9
REMARK VINA RESULT:      -6.7      1.973      2.949
REMARK  7 active torsions:
REMARK  status: ('A' for Active; 'I' for Inactive)
REMARK    1  A    between atoms: O1_2  and  C2_3 
REMARK    2  A    between atoms: C2_3  and  C3_4 
REMARK    3  A    between atoms: C3_4  and  O2_5 
REMARK    4  A    between atoms: O2_5  and  C4_6 
REMARK    5  A    between atoms: C8_11  and  O4_12 
REMARK    6  A    between atoms: C12_18  and  N3_19 
REMARK    7  A    between atoms: N3_19  and  C13_20 
ROOT
HETATM    1  C4  UNL     1      23.196   1.356  52.744  1.00  0.00     0.091 C 
HETATM    2  C5  UNL     1      22.374   0.410  53.113  1.00  0.00     0.171 C 
HETATM    3  O3  UNL     1      21.216   0.574  52.543  1.00  0.00    -0.360 OA
HETATM    4  C6  UNL     1      19.957   0.074  52.412  1.00  0.00     0.177 C 
HETATM    5  C7  UNL     1      19.309   0.584  51.140  1.00  0.00     0.062 C 
HETATM    6  C8  UNL     1      19.184   2.063  51.048  1.00  0.00     0.145 C 
HETATM    7  C9  UNL     1      20.377   2.863  50.864  1.00  0.00     0.037 C 
HETATM    8  C10 UNL     1      21.535   3.469  50.802  1.00  0.00     0.071 A 
HETATM    9  N1  UNL     1      21.110   4.456  50.001  1.00  0.00    -0.241 NA
HETATM   10  C11 UNL     1      21.927   5.430  49.553  1.00  0.00     0.236 A 
HETATM   11  N2  UNL     1      23.209   5.399  49.930  1.00  0.00    -0.224 NA
HETATM   12  C12 UNL     1      23.618   4.410  50.727  1.00  0.00     0.142 A 
HETATM   13  C17 UNL     1      22.843   3.401  51.209  1.00  0.00     0.041 A 
HETATM   14  C18 UNL     1      23.433   2.536  51.991  1.00  0.00     0.056 C 
ENDROOT
BRANCH  12  15
HETATM   15  N3  UNL     1      24.998   4.474  51.063  1.00  0.00    -0.340 N 
HETATM   16  H17 UNL     1      25.690   4.389  51.842  1.00  0.00     0.167 HD
BRANCH  15  17
HETATM   17  C13 UNL     1      25.949   4.755  50.027  1.00  0.00     0.033 A 
HETATM   18  C14 UNL     1      26.821   3.838  49.583  1.00  0.00     0.029 A 
HETATM   19  C15 UNL     1      27.441   4.731  48.606  1.00  0.00     0.004 A 
HETATM   20  C16 UNL     1      26.561   5.647  49.057  1.00  0.00     0.029 A 
ENDBRANCH  15  17
ENDBRANCH  12  15
BRANCH   1  21
HETATM   21  O2  UNL     1      24.203   0.796  53.532  1.00  0.00    -0.347 OA
BRANCH  21  22
HETATM   22  C3  UNL     1      25.569   1.052  53.401  1.00  0.00     0.201 C 
BRANCH  22  23
HETATM   23  C2  UNL     1      26.334  -0.273  53.438  1.00  0.00     0.193 C 
BRANCH  23  24
HETATM   24  O1  UNL     1      26.840  -0.384  54.734  1.00  0.00    -0.394 OA
HETATM   25  C1  UNL     1      28.101   0.162  54.807  1.00  0.00     0.201 C 
ENDBRANCH  23  24
ENDBRANCH  22  23
ENDBRANCH  21  22
ENDBRANCH   1  21
BRANCH   6  26
HETATM   26  O4  UNL     1      18.403   2.572  52.124  1.00  0.00    -0.392 OA
HETATM   27  H14 UNL     1      18.826   3.354  52.549  1.00  0.00     0.210 HD
ENDBRANCH   6  26
TORSDOF 7
ENDMDL
