MODEL 1
REMARK VINA RESULT:      -8.4      0.000      0.000
REMARK  6 active torsions:
REMARK  status: ('A' for Active; 'I' for Inactive)
REMARK    1  A    between atoms: N1_1  and  C1_2 
REMARK    2  A    between atoms: C3_4  and  N2_5 
REMARK    3  A    between atoms: N2_5  and  C4_6 
REMARK    4  A    between atoms: C7_9  and  O1_10 
REMARK    5  A    between atoms: O1_10  and  C8_11 
REMARK    6  A    between atoms: C8_11  and  C9_12 
ROOT
HETATM    1  C4  UNL     1      24.769   1.010  52.203  1.00  0.00     0.035 A 
HETATM    2  C5  UNL     1      23.862   1.861  51.622  1.00  0.00     0.032 A 
HETATM    3  C6  UNL     1      22.515   1.859  51.911  1.00  0.00     0.041 A 
HETATM    4  C7  UNL     1      21.993   0.973  52.828  1.00  0.00     0.091 A 
HETATM    5  C15 UNL     1      22.881   0.108  53.426  1.00  0.00     0.069 A 
HETATM    6 CL1  UNL     1      22.313  -1.062  54.612  1.00  0.00    -0.081 Cl
HETATM    7  C16 UNL     1      24.228   0.119  53.129  1.00  0.00     0.056 A 
ENDROOT
BRANCH   1   8
HETATM    8  N2  UNL     1      26.162   0.941  51.958  1.00  0.00    -0.341 N 
HETATM    9  H4  UNL     1      26.568   1.434  51.119  1.00  0.00     0.167 HD
BRANCH   8  10
HETATM   10  C3  UNL     1      27.105   0.244  52.758  1.00  0.00     0.129 A 
HETATM   11  C2  UNL     1      27.361  -1.153  52.522  1.00  0.00     0.105 A 
HETATM   12  C1  UNL     1      28.246  -1.740  53.295  1.00  0.00     0.141 A 
HETATM   13  O2  UNL     1      28.882  -1.026  54.277  1.00  0.00    -0.315 OA
HETATM   14  C17 UNL     1      28.677   0.342  54.560  1.00  0.00     0.328 A 
HETATM   15  N3  UNL     1      27.694   0.941  53.681  1.00  0.00    -0.246 NA
BRANCH  12  16
HETATM   16  N1  UNL     1      28.523  -3.119  53.089  1.00  0.00    -0.380 N 
HETATM   17  H1  UNL     1      29.503  -3.223  52.692  1.00  0.00     0.158 HD
HETATM   18  H2  UNL     1      28.158  -4.080  53.168  1.00  0.00     0.158 HD
ENDBRANCH  12  16
ENDBRANCH   8  10
ENDBRANCH   1   8
BRANCH   4  19
HETATM   19  O1  UNL     1      20.659   0.884  53.195  1.00  0.00    -0.345 OA
BRANCH  19  20
HETATM   20  C8  UNL     1      19.707   0.971  52.130  1.00  0.00     0.214 C 
BRANCH  20  21
HETATM   21  C9  UNL     1      18.650  -0.025  52.308  1.00  0.00    -0.031 A 
HETATM   22  C10 UNL     1      17.501  -0.002  51.565  1.00  0.00     0.009 A 
HETATM   23  C11 UNL     1      16.486  -0.926  51.709  1.00  0.00     0.004 A 
HETATM   24  C12 UNL     1      16.688  -1.910  52.672  1.00  0.00     0.042 A 
HETATM   25  C13 UNL     1      17.812  -2.009  53.464  1.00  0.00     0.117 A 
HETATM   26  F1  UNL     1      17.944  -2.984  54.375  1.00  0.00    -0.206 F 
HETATM   27  C14 UNL     1      18.767  -1.035  53.238  1.00  0.00     0.051 A 
ENDBRANCH  20  21
ENDBRANCH  19  20
ENDBRANCH   4  19
TORSDOF 6
ENDMDL
MODEL 2
REMARK VINA RESULT:      -8.3      1.459      2.230
REMARK  6 active torsions:
REMARK  status: ('A' for Active; 'I' for Inactive)
REMARK    1  A    between atoms: N1_1  and  C1_2 
REMARK    2  A    between atoms: C3_4  and  N2_5 
REMARK    3  A    between atoms: N2_5  and  C4_6 
REMARK    4  A    between atoms: C7_9  and  O1_10 
REMARK    5  A    between atoms: O1_10  and  C8_11 
REMARK    6  A    between atoms: C8_11  and  C9_12 
ROOT
HETATM    1  C4  UNL     1      25.046  -0.452  53.658  1.00  0.00     0.035 A 
HETATM    2  C5  UNL     1      24.969   0.432  52.610  1.00  0.00     0.032 A 
HETATM    3  C6  UNL     1      23.802   1.044  52.210  1.00  0.00     0.041 A 
HETATM    4  C7  UNL     1      22.615   0.794  52.863  1.00  0.00     0.091 A 
HETATM    5  C15 UNL     1      22.664  -0.087  53.918  1.00  0.00     0.069 A 
HETATM    6 CL1  UNL     1      21.201  -0.472  54.817  1.00  0.00    -0.081 Cl
HETATM    7  C16 UNL     1      23.838  -0.695  54.310  1.00  0.00     0.056 A 
ENDROOT
BRANCH   1   8
HETATM    8  N2  UNL     1      26.198  -1.128  54.129  1.00  0.00    -0.341 N 
HETATM    9  H4  UNL     1      26.089  -2.036  54.653  1.00  0.00     0.167 HD
BRANCH   8  10
HETATM   10  C3  UNL     1      27.538  -0.688  53.963  1.00  0.00     0.129 A 
HETATM   11  C2  UNL     1      27.908   0.653  54.334  1.00  0.00     0.105 A 
HETATM   12  C1  UNL     1      29.163   0.998  54.158  1.00  0.00     0.141 A 
HETATM   13  O2  UNL     1      30.058   0.098  53.641  1.00  0.00    -0.315 OA
HETATM   14  C17 UNL     1      29.760  -1.228  53.258  1.00  0.00     0.328 A 
HETATM   15  N3  UNL     1      28.366  -1.558  53.472  1.00  0.00    -0.246 NA
BRANCH  12  16
HETATM   16  N1  UNL     1      29.565   2.315  54.514  1.00  0.00    -0.380 N 
HETATM   17  H1  UNL     1      30.342   2.260  55.235  1.00  0.00     0.158 HD
HETATM   18  H2  UNL     1      29.409   3.321  54.357  1.00  0.00     0.158 HD
ENDBRANCH  12  16
ENDBRANCH   8  10
ENDBRANCH   1   8
BRANCH   4  19
HETATM   19  O1  UNL     1      21.387   1.354  52.546  1.00  0.00    -0.345 OA
BRANCH  19  20
HETATM   20  C8  UNL     1      20.930   1.152  51.205  1.00  0.00     0.214 C 
BRANCH  20  21
HETATM   21  C9  UNL     1      19.572   0.604  51.207  1.00  0.00    -0.031 A 
HETATM   22  C10 UNL     1      18.739   0.734  50.130  1.00  0.00     0.009 A 
HETATM   23  C11 UNL     1      17.454   0.230  50.100  1.00  0.00     0.004 A 
HETATM   24  C12 UNL     1      17.032  -0.435  51.247  1.00  0.00     0.042 A 
HETATM   25  C13 UNL     1      17.803  -0.613  52.376  1.00  0.00     0.117 A 
HETATM   26  F1  UNL     1      17.336  -1.265  53.449  1.00  0.00    -0.206 F 
HETATM   27  C14 UNL     1      19.073  -0.069  52.300  1.00  0.00     0.051 A 
ENDBRANCH  20  21
ENDBRANCH  19  20
ENDBRANCH   4  19
TORSDOF 6
ENDMDL
MODEL 3
REMARK VINA RESULT:      -8.2      1.403      1.891
REMARK  6 active torsions:
REMARK  status: ('A' for Active; 'I' for Inactive)
REMARK    1  A    between atoms: N1_1  and  C1_2 
REMARK    2  A    between atoms: C3_4  and  N2_5 
REMARK    3  A    between atoms: N2_5  and  C4_6 
REMARK    4  A    between atoms: C7_9  and  O1_10 
REMARK    5  A    between atoms: O1_10  and  C8_11 
REMARK    6  A    between atoms: C8_11  and  C9_12 
ROOT
HETATM    1  C4  UNL     1      24.492   0.580  52.719  1.00  0.00     0.035 A 
HETATM    2  C5  UNL     1      23.927  -0.411  53.484  1.00  0.00     0.032 A 
HETATM    3  C6  UNL     1      22.595  -0.445  53.830  1.00  0.00     0.041 A 
HETATM    4  C7  UNL     1      21.732   0.544  53.412  1.00  0.00     0.091 A 
HETATM    5  C15 UNL     1      22.272   1.550  52.643  1.00  0.00     0.069 A 
HETATM    6 CL1  UNL     1      21.252   2.860  52.060  1.00  0.00    -0.081 Cl
HETATM    7  C16 UNL     1      23.608   1.575  52.303  1.00  0.00     0.056 A 
ENDROOT
BRANCH   1   8
HETATM    8  N2  UNL     1      25.847   0.696  52.325  1.00  0.00    -0.341 N 
HETATM    9  H4  UNL     1      26.095   1.279  51.482  1.00  0.00     0.167 HD
BRANCH   8  10
HETATM   10  C3  UNL     1      26.949   0.079  52.973  1.00  0.00     0.129 A 
HETATM   11  C2  UNL     1      27.268  -1.299  52.701  1.00  0.00     0.105 A 
HETATM   12  C1  UNL     1      28.300  -1.811  53.332  1.00  0.00     0.141 A 
HETATM   13  O2  UNL     1      29.023  -1.041  54.205  1.00  0.00    -0.315 OA
HETATM   14  C17 UNL     1      28.764   0.312  54.516  1.00  0.00     0.328 A 
HETATM   15  N3  UNL     1      27.618   0.827  53.796  1.00  0.00    -0.246 NA
BRANCH  12  16
HETATM   16  N1  UNL     1      28.644  -3.169  53.088  1.00  0.00    -0.380 N 
HETATM   17  H1  UNL     1      27.755  -3.736  52.959  1.00  0.00     0.158 HD
HETATM   18  H2  UNL     1      29.416  -3.843  52.982  1.00  0.00     0.158 HD
ENDBRANCH  12  16
ENDBRANCH   8  10
ENDBRANCH   1   8
BRANCH   4  19
HETATM   19  O1  UNL     1      20.378   0.608  53.700  1.00  0.00    -0.345 OA
BRANCH  19  20
HETATM   20  C8  UNL     1      19.668  -0.635  53.666  1.00  0.00     0.214 C 
BRANCH  20  21
HETATM   21  C9  UNL     1      18.593  -0.581  52.674  1.00  0.00    -0.031 A 
HETATM   22  C10 UNL     1      18.717   0.127  51.510  1.00  0.00     0.009 A 
HETATM   23  C11 UNL     1      17.722   0.198  50.556  1.00  0.00     0.004 A 
HETATM   24  C12 UNL     1      16.553  -0.501  50.839  1.00  0.00     0.042 A 
HETATM   25  C13 UNL     1      16.342  -1.239  51.985  1.00  0.00     0.117 A 
HETATM   26  F1  UNL     1      15.190  -1.891  52.196  1.00  0.00    -0.206 F 
HETATM   27  C14 UNL     1      17.402  -1.244  52.873  1.00  0.00     0.051 A 
ENDBRANCH  20  21
ENDBRANCH  19  20
ENDBRANCH   4  19
TORSDOF 6
ENDMDL
MODEL 4
REMARK VINA RESULT:      -8.1      3.051      4.073
REMARK  6 active torsions:
REMARK  status: ('A' for Active; 'I' for Inactive)
REMARK    1  A    between atoms: N1_1  and  C1_2 
REMARK    2  A    between atoms: C3_4  and  N2_5 
REMARK    3  A    between atoms: N2_5  and  C4_6 
REMARK    4  A    between atoms: C7_9  and  O1_10 
REMARK    5  A    between atoms: O1_10  and  C8_11 
REMARK    6  A    between atoms: C8_11  and  C9_12 
ROOT
HETATM    1  C4  UNL     1      24.984  -0.441  53.704  1.00  0.00     0.035 A 
HETATM    2  C5  UNL     1      24.932   0.417  52.633  1.00  0.00     0.032 A 
HETATM    3  C6  UNL     1      23.767   0.976  52.156  1.00  0.00     0.041 A 
HETATM    4  C7  UNL     1      22.556   0.695  52.750  1.00  0.00     0.091 A 
HETATM    5  C15 UNL     1      22.579  -0.161  53.827  1.00  0.00     0.069 A 
HETATM    6 CL1  UNL     1      21.084  -0.582  54.654  1.00  0.00    -0.081 Cl
HETATM    7  C16 UNL     1      23.751  -0.716  54.296  1.00  0.00     0.056 A 
ENDROOT
BRANCH   1   8
HETATM    8  N2  UNL     1      26.132  -1.063  54.252  1.00  0.00    -0.341 N 
HETATM    9  H4  UNL     1      26.018  -1.903  54.879  1.00  0.00     0.167 HD
BRANCH   8  10
HETATM   10  C3  UNL     1      27.474  -0.652  54.038  1.00  0.00     0.129 A 
HETATM   11  C2  UNL     1      27.887   0.680  54.396  1.00  0.00     0.105 A 
HETATM   12  C1  UNL     1      29.142   0.997  54.174  1.00  0.00     0.141 A 
HETATM   13  O2  UNL     1      29.997   0.079  53.623  1.00  0.00    -0.315 OA
HETATM   14  C17 UNL     1      29.656  -1.240  53.250  1.00  0.00     0.328 A 
HETATM   15  N3  UNL     1      28.264  -1.539  53.515  1.00  0.00    -0.246 NA
BRANCH  12  16
HETATM   16  N1  UNL     1      29.586   2.304  54.515  1.00  0.00    -0.380 N 
HETATM   17  H1  UNL     1      30.590   2.428  54.193  1.00  0.00     0.158 HD
HETATM   18  H2  UNL     1      29.329   3.200  54.957  1.00  0.00     0.158 HD
ENDBRANCH  12  16
ENDBRANCH   8  10
ENDBRANCH   1   8
BRANCH   4  19
HETATM   19  O1  UNL     1      21.327   1.202  52.354  1.00  0.00    -0.345 OA
BRANCH  19  20
HETATM   20  C8  UNL     1      20.642   0.467  51.335  1.00  0.00     0.214 C 
BRANCH  20  21
HETATM   21  C9  UNL     1      20.635   1.220  50.081  1.00  0.00    -0.031 A 
HETATM   22  C10 UNL     1      19.575   2.005  49.714  1.00  0.00     0.009 A 
HETATM   23  C11 UNL     1      19.537   2.727  48.538  1.00  0.00     0.004 A 
HETATM   24  C12 UNL     1      20.656   2.618  47.718  1.00  0.00     0.042 A 
HETATM   25  C13 UNL     1      21.766   1.853  48.008  1.00  0.00     0.117 A 
HETATM   26  F1  UNL     1      22.812   1.792  47.173  1.00  0.00    -0.206 F 
HETATM   27  C14 UNL     1      21.701   1.171  49.209  1.00  0.00     0.051 A 
ENDBRANCH  20  21
ENDBRANCH  19  20
ENDBRANCH   4  19
TORSDOF 6
ENDMDL
MODEL 5
REMARK VINA RESULT:      -8.0      6.152      8.934
REMARK  6 active torsions:
REMARK  status: ('A' for Active; 'I' for Inactive)
REMARK    1  A    between atoms: N1_1  and  C1_2 
REMARK    2  A    between atoms: C3_4  and  N2_5 
REMARK    3  A    between atoms: N2_5  and  C4_6 
REMARK    4  A    between atoms: C7_9  and  O1_10 
REMARK    5  A    between atoms: O1_10  and  C8_11 
REMARK    6  A    between atoms: C8_11  and  C9_12 
ROOT
HETATM    1  C4  UNL     1      25.363   4.792  49.556  1.00  0.00     0.035 A 
HETATM    2  C5  UNL     1      26.409   3.901  49.563  1.00  0.00     0.032 A 
HETATM    3  C6  UNL     1      26.555   2.899  50.496  1.00  0.00     0.041 A 
HETATM    4  C7  UNL     1      25.629   2.733  51.503  1.00  0.00     0.091 A 
HETATM    5  C15 UNL     1      24.571   3.611  51.520  1.00  0.00     0.069 A 
HETATM    6 CL1  UNL     1      23.335   3.482  52.766  1.00  0.00    -0.081 Cl
HETATM    7  C16 UNL     1      24.434   4.612  50.580  1.00  0.00     0.056 A 
ENDROOT
BRANCH   1   8
HETATM    8  N2  UNL     1      25.141   5.851  48.643  1.00  0.00    -0.341 N 
HETATM    9  H4  UNL     1      24.388   5.757  47.912  1.00  0.00     0.167 HD
BRANCH   8  10
HETATM   10  C3  UNL     1      25.863   7.073  48.608  1.00  0.00     0.129 A 
HETATM   11  C2  UNL     1      26.403   7.628  49.822  1.00  0.00     0.105 A 
HETATM   12  C1  UNL     1      27.062   8.760  49.722  1.00  0.00     0.141 A 
HETATM   13  O2  UNL     1      27.211   9.364  48.501  1.00  0.00    -0.315 OA
HETATM   14  C17 UNL     1      26.707   8.873  47.276  1.00  0.00     0.328 A 
HETATM   15  N3  UNL     1      25.990   7.625  47.441  1.00  0.00    -0.246 NA
BRANCH  12  16
HETATM   16  N1  UNL     1      27.610   9.337  50.900  1.00  0.00    -0.380 N 
HETATM   17  H1  UNL     1      27.819   8.567  51.601  1.00  0.00     0.158 HD
HETATM   18  H2  UNL     1      27.894  10.212  51.365  1.00  0.00     0.158 HD
ENDBRANCH  12  16
ENDBRANCH   8  10
ENDBRANCH   1   8
BRANCH   4  19
HETATM   19  O1  UNL     1      25.678   1.761  52.490  1.00  0.00    -0.345 OA
BRANCH  19  20
HETATM   20  C8  UNL     1      26.068   0.451  52.065  1.00  0.00     0.214 C 
BRANCH  20  21
HETATM   21  C9  UNL     1      27.333   0.067  52.693  1.00  0.00    -0.031 A 
HETATM   22  C10 UNL     1      28.189   0.995  53.221  1.00  0.00     0.009 A 
HETATM   23  C11 UNL     1      29.389   0.665  53.818  1.00  0.00     0.004 A 
HETATM   24  C12 UNL     1      29.699  -0.691  53.861  1.00  0.00     0.042 A 
HETATM   25  C13 UNL     1      28.897  -1.692  53.355  1.00  0.00     0.117 A 
HETATM   26  F1  UNL     1      29.254  -2.981  53.429  1.00  0.00    -0.206 F 
HETATM   27  C14 UNL     1      27.719  -1.253  52.779  1.00  0.00     0.051 A 
ENDBRANCH  20  21
ENDBRANCH  19  20
ENDBRANCH   4  19
TORSDOF 6
ENDMDL
MODEL 6
REMARK VINA RESULT:      -7.9      1.967      2.820
REMARK  6 active torsions:
REMARK  status: ('A' for Active; 'I' for Inactive)
REMARK    1  A    between atoms: N1_1  and  C1_2 
REMARK    2  A    between atoms: C3_4  and  N2_5 
REMARK    3  A    between atoms: N2_5  and  C4_6 
REMARK    4  A    between atoms: C7_9  and  O1_10 
REMARK    5  A    between atoms: O1_10  and  C8_11 
REMARK    6  A    between atoms: C8_11  and  C9_12 
ROOT
HETATM    1  C4  UNL     1      24.556  -0.405  54.200  1.00  0.00     0.035 A 
HETATM    2  C5  UNL     1      23.404  -1.131  54.382  1.00  0.00     0.032 A 
HETATM    3  C6  UNL     1      22.284  -1.000  53.592  1.00  0.00     0.041 A 
HETATM    4  C7  UNL     1      22.261  -0.105  52.545  1.00  0.00     0.091 A 
HETATM    5  C15 UNL     1      23.403   0.636  52.339  1.00  0.00     0.069 A 
HETATM    6 CL1  UNL     1      23.473   1.806  51.027  1.00  0.00    -0.081 Cl
HETATM    7  C16 UNL     1      24.519   0.497  53.137  1.00  0.00     0.056 A 
ENDROOT
BRANCH   1   8
HETATM    8  N2  UNL     1      25.745  -0.472  54.967  1.00  0.00    -0.341 N 
HETATM    9  H4  UNL     1      25.686  -0.676  56.000  1.00  0.00     0.167 HD
BRANCH   8  10
HETATM   10  C3  UNL     1      27.059  -0.280  54.467  1.00  0.00     0.129 A 
HETATM   11  C2  UNL     1      27.759   0.951  54.729  1.00  0.00     0.105 A 
HETATM   12  C1  UNL     1      28.973   1.066  54.240  1.00  0.00     0.141 A 
HETATM   13  O2  UNL     1      29.522   0.041  53.516  1.00  0.00    -0.315 OA
HETATM   14  C17 UNL     1      28.891  -1.188  53.223  1.00  0.00     0.328 A 
HETATM   15  N3  UNL     1      27.558  -1.264  53.784  1.00  0.00    -0.246 NA
BRANCH  12  16
HETATM   16  N1  UNL     1      29.694   2.268  54.479  1.00  0.00    -0.380 N 
HETATM   17  H1  UNL     1      29.335   3.026  53.828  1.00  0.00     0.158 HD
HETATM   18  H2  UNL     1      30.437   2.716  55.036  1.00  0.00     0.158 HD
ENDBRANCH  12  16
ENDBRANCH   8  10
ENDBRANCH   1   8
BRANCH   4  19
HETATM   19  O1  UNL     1      21.191   0.107  51.688  1.00  0.00    -0.345 OA
BRANCH  19  20
HETATM   20  C8  UNL     1      20.093   0.850  52.226  1.00  0.00     0.214 C 
BRANCH  20  21
HETATM   21  C9  UNL     1      18.883   0.026  52.250  1.00  0.00    -0.031 A 
HETATM   22  C10 UNL     1      18.668  -0.914  53.221  1.00  0.00     0.009 A 
HETATM   23  C11 UNL     1      17.539  -1.707  53.271  1.00  0.00     0.004 A 
HETATM   24  C12 UNL     1      16.603  -1.502  52.262  1.00  0.00     0.042 A 
HETATM   25  C13 UNL     1      16.738  -0.579  51.247  1.00  0.00     0.117 A 
HETATM   26  F1  UNL     1      15.797  -0.431  50.304  1.00  0.00    -0.206 F 
HETATM   27  C14 UNL     1      17.905   0.162  51.290  1.00  0.00     0.051 A 
ENDBRANCH  20  21
ENDBRANCH  19  20
ENDBRANCH   4  19
TORSDOF 6
ENDMDL
MODEL 7
REMARK VINA RESULT:      -7.9      5.776      8.409
REMARK  6 active torsions:
REMARK  status: ('A' for Active; 'I' for Inactive)
REMARK    1  A    between atoms: N1_1  and  C1_2 
REMARK    2  A    between atoms: C3_4  and  N2_5 
REMARK    3  A    between atoms: N2_5  and  C4_6 
REMARK    4  A    between atoms: C7_9  and  O1_10 
REMARK    5  A    between atoms: O1_10  and  C8_11 
REMARK    6  A    between atoms: C8_11  and  C9_12 
ROOT
HETATM    1  C4  UNL     1      25.543   1.663  51.692  1.00  0.00     0.035 A 
HETATM    2  C5  UNL     1      26.648   2.261  51.139  1.00  0.00     0.032 A 
HETATM    3  C6  UNL     1      26.586   3.292  50.228  1.00  0.00     0.041 A 
HETATM    4  C7  UNL     1      25.371   3.793  49.813  1.00  0.00     0.091 A 
HETATM    5  C15 UNL     1      24.246   3.212  50.353  1.00  0.00     0.069 A 
HETATM    6 CL1  UNL     1      22.647   3.781  49.886  1.00  0.00    -0.081 Cl
HETATM    7  C16 UNL     1      24.320   2.180  51.264  1.00  0.00     0.056 A 
ENDROOT
BRANCH   1   8
HETATM    8  N2  UNL     1      25.518   0.598  52.626  1.00  0.00    -0.341 N 
HETATM    9  H4  UNL     1      24.592   0.214  52.951  1.00  0.00     0.167 HD
BRANCH   8  10
HETATM   10  C3  UNL     1      26.660  -0.027  53.193  1.00  0.00     0.129 A 
HETATM   11  C2  UNL     1      27.033  -1.356  52.786  1.00  0.00     0.105 A 
HETATM   12  C1  UNL     1      28.100  -1.877  53.348  1.00  0.00     0.141 A 
HETATM   13  O2  UNL     1      28.807  -1.161  54.278  1.00  0.00    -0.315 OA
HETATM   14  C17 UNL     1      28.495   0.143  54.720  1.00  0.00     0.328 A 
HETATM   15  N3  UNL     1      27.312   0.671  54.072  1.00  0.00    -0.246 NA
BRANCH  12  16
HETATM   16  N1  UNL     1      28.498  -3.189  52.970  1.00  0.00    -0.380 N 
HETATM   17  H1  UNL     1      28.318  -3.323  51.932  1.00  0.00     0.158 HD
HETATM   18  H2  UNL     1      28.897  -4.082  53.295  1.00  0.00     0.158 HD
ENDBRANCH  12  16
ENDBRANCH   8  10
ENDBRANCH   1   8
BRANCH   4  19
HETATM   19  O1  UNL     1      25.192   4.825  48.905  1.00  0.00    -0.345 OA
BRANCH  19  20
HETATM   20  C8  UNL     1      25.597   6.126  49.343  1.00  0.00     0.214 C 
BRANCH  20  21
HETATM   21  C9  UNL     1      26.620   6.669  48.449  1.00  0.00    -0.031 A 
HETATM   22  C10 UNL     1      26.361   7.710  47.599  1.00  0.00     0.009 A 
HETATM   23  C11 UNL     1      27.304   8.244  46.744  1.00  0.00     0.004 A 
HETATM   24  C12 UNL     1      28.566   7.659  46.784  1.00  0.00     0.042 A 
HETATM   25  C13 UNL     1      28.915   6.610  47.607  1.00  0.00     0.117 A 
HETATM   26  F1  UNL     1      30.151   6.092  47.597  1.00  0.00    -0.206 F 
HETATM   27  C14 UNL     1      27.897   6.151  48.423  1.00  0.00     0.051 A 
ENDBRANCH  20  21
ENDBRANCH  19  20
ENDBRANCH   4  19
TORSDOF 6
ENDMDL
MODEL 8
REMARK VINA RESULT:      -7.8      3.427      4.502
REMARK  6 active torsions:
REMARK  status: ('A' for Active; 'I' for Inactive)
REMARK    1  A    between atoms: N1_1  and  C1_2 
REMARK    2  A    between atoms: C3_4  and  N2_5 
REMARK    3  A    between atoms: N2_5  and  C4_6 
REMARK    4  A    between atoms: C7_9  and  O1_10 
REMARK    5  A    between atoms: O1_10  and  C8_11 
REMARK    6  A    between atoms: C8_11  and  C9_12 
ROOT
HETATM    1  C4  UNL     1      24.776  -0.299  53.838  1.00  0.00     0.035 A 
HETATM    2  C5  UNL     1      24.762   0.678  52.873  1.00  0.00     0.032 A 
HETATM    3  C6  UNL     1      23.612   1.170  52.299  1.00  0.00     0.041 A 
HETATM    4  C7  UNL     1      22.376   0.692  52.675  1.00  0.00     0.091 A 
HETATM    5  C15 UNL     1      22.360  -0.288  53.641  1.00  0.00     0.069 A 
HETATM    6 CL1  UNL     1      20.831  -0.964  54.190  1.00  0.00    -0.081 Cl
HETATM    7  C16 UNL     1      23.519  -0.774  54.210  1.00  0.00     0.056 A 
ENDROOT
BRANCH   1   8
HETATM    8  N2  UNL     1      25.909  -0.865  54.473  1.00  0.00    -0.341 N 
HETATM    9  H4  UNL     1      25.774  -1.579  55.236  1.00  0.00     0.167 HD
BRANCH   8  10
HETATM   10  C3  UNL     1      27.262  -0.552  54.176  1.00  0.00     0.129 A 
HETATM   11  C2  UNL     1      27.797   0.738  54.524  1.00  0.00     0.105 A 
HETATM   12  C1  UNL     1      29.056   0.965  54.225  1.00  0.00     0.141 A 
HETATM   13  O2  UNL     1      29.802  -0.005  53.607  1.00  0.00    -0.315 OA
HETATM   14  C17 UNL     1      29.338  -1.287  53.240  1.00  0.00     0.328 A 
HETATM   15  N3  UNL     1      27.947  -1.486  53.591  1.00  0.00    -0.246 NA
BRANCH  12  16
HETATM   16  N1  UNL     1      29.619   2.228  54.554  1.00  0.00    -0.380 N 
HETATM   17  H1  UNL     1      29.083   2.647  55.370  1.00  0.00     0.158 HD
HETATM   18  H2  UNL     1      30.347   2.920  54.323  1.00  0.00     0.158 HD
ENDBRANCH  12  16
ENDBRANCH   8  10
ENDBRANCH   1   8
BRANCH   4  19
HETATM   19  O1  UNL     1      21.158   1.115  52.165  1.00  0.00    -0.345 OA
BRANCH  19  20
HETATM   20  C8  UNL     1      20.559   2.239  52.817  1.00  0.00     0.214 C 
BRANCH  20  21
HETATM   21  C9  UNL     1      20.619   3.420  51.955  1.00  0.00    -0.031 A 
HETATM   22  C10 UNL     1      19.670   3.668  51.001  1.00  0.00     0.009 A 
HETATM   23  C11 UNL     1      19.698   4.772  50.172  1.00  0.00     0.004 A 
HETATM   24  C12 UNL     1      20.766   5.645  50.354  1.00  0.00     0.042 A 
HETATM   25  C13 UNL     1      21.765   5.474  51.289  1.00  0.00     0.117 A 
HETATM   26  F1  UNL     1      22.766   6.356  51.413  1.00  0.00    -0.206 F 
HETATM   27  C14 UNL     1      21.640   4.338  52.067  1.00  0.00     0.051 A 
ENDBRANCH  20  21
ENDBRANCH  19  20
ENDBRANCH   4  19
TORSDOF 6
ENDMDL
MODEL 9
REMARK VINA RESULT:      -7.6      5.679      7.849
REMARK  6 active torsions:
REMARK  status: ('A' for Active; 'I' for Inactive)
REMARK    1  A    between atoms: N1_1  and  C1_2 
REMARK    2  A    between atoms: C3_4  and  N2_5 
REMARK    3  A    between atoms: N2_5  and  C4_6 
REMARK    4  A    between atoms: C7_9  and  O1_10 
REMARK    5  A    between atoms: O1_10  and  C8_11 
REMARK    6  A    between atoms: C8_11  and  C9_12 
ROOT
HETATM    1  C4  UNL     1      25.244   2.114  52.796  1.00  0.00     0.035 A 
HETATM    2  C5  UNL     1      24.059   2.806  52.826  1.00  0.00     0.032 A 
HETATM    3  C6  UNL     1      23.654   3.674  51.836  1.00  0.00     0.041 A 
HETATM    4  C7  UNL     1      24.443   3.898  50.729  1.00  0.00     0.091 A 
HETATM    5  C15 UNL     1      25.637   3.216  50.673  1.00  0.00     0.069 A 
HETATM    6 CL1  UNL     1      26.716   3.434  49.300  1.00  0.00    -0.081 Cl
HETATM    7  C16 UNL     1      26.033   2.350  51.670  1.00  0.00     0.056 A 
ENDROOT
BRANCH   1   8
HETATM    8  N2  UNL     1      25.738   1.212  53.770  1.00  0.00    -0.341 N 
HETATM    9  H4  UNL     1      25.083   0.826  54.500  1.00  0.00     0.167 HD
BRANCH   8  10
HETATM   10  C3  UNL     1      27.080   0.761  53.869  1.00  0.00     0.129 A 
HETATM   11  C2  UNL     1      27.416  -0.593  53.513  1.00  0.00     0.105 A 
HETATM   12  C1  UNL     1      28.675  -0.948  53.625  1.00  0.00     0.141 A 
HETATM   13  O2  UNL     1      29.608  -0.045  54.066  1.00  0.00    -0.315 OA
HETATM   14  C17 UNL     1      29.345   1.294  54.431  1.00  0.00     0.328 A 
HETATM   15  N3  UNL     1      27.944   1.634  54.289  1.00  0.00    -0.246 NA
BRANCH  12  16
HETATM   16  N1  UNL     1      29.043  -2.278  53.281  1.00  0.00    -0.380 N 
HETATM   17  H1  UNL     1      28.173  -2.818  53.000  1.00  0.00     0.158 HD
HETATM   18  H2  UNL     1      29.821  -2.947  53.191  1.00  0.00     0.158 HD
ENDBRANCH  12  16
ENDBRANCH   8  10
ENDBRANCH   1   8
BRANCH   4  19
HETATM   19  O1  UNL     1      24.135   4.747  49.677  1.00  0.00    -0.345 OA
BRANCH  19  20
HETATM   20  C8  UNL     1      24.019   6.136  50.002  1.00  0.00     0.214 C 
BRANCH  20  21
HETATM   21  C9  UNL     1      25.204   6.865  49.549  1.00  0.00    -0.031 A 
HETATM   22  C10 UNL     1      25.742   6.673  48.306  1.00  0.00     0.009 A 
HETATM   23  C11 UNL     1      26.858   7.344  47.851  1.00  0.00     0.004 A 
HETATM   24  C12 UNL     1      27.430   8.251  48.737  1.00  0.00     0.042 A 
HETATM   25  C13 UNL     1      26.956   8.508  50.006  1.00  0.00     0.117 A 
HETATM   26  F1  UNL     1      27.554   9.396  50.812  1.00  0.00    -0.206 F 
HETATM   27  C14 UNL     1      25.834   7.782  50.362  1.00  0.00     0.051 A 
ENDBRANCH  20  21
ENDBRANCH  19  20
ENDBRANCH   4  19
TORSDOF 6
ENDMDL
