MODEL 1
REMARK VINA RESULT:      -6.8      0.000      0.000
REMARK  9 active torsions:
REMARK  status: ('A' for Active; 'I' for Inactive)
REMARK    1  A    between atoms: C2_2  and  N1_3 
REMARK    2  A    between atoms: N1_3  and  C4_5 
REMARK    3  A    between atoms: C4_5  and  N2_6 
REMARK    4  A    between atoms: N2_6  and  C5_7 
REMARK       I    between atoms: N2_6  and  C17_23 
REMARK    5  A    between atoms: C5_7  and  N3_8 
REMARK    6  A    between atoms: C8_12  and  N5_13 
REMARK    7  A    between atoms: N5_13  and  C9_14 
REMARK    8  A    between atoms: C9_14  and  C10_15 
REMARK    9  A    between atoms: C11_16  and  C12_18 
ROOT
HETATM    1  N3  UNL     1      27.249   6.873  48.475  1.00  0.00    -0.273 NA
HETATM    2  C6  UNL     1      26.792   5.789  48.958  1.00  0.00     0.051 A 
HETATM    3  C7  UNL     1      25.528   6.100  49.659  1.00  0.00     0.145 A 
HETATM    4  N4  UNL     1      24.776   5.233  50.281  1.00  0.00    -0.242 NA
HETATM    5  C8  UNL     1      25.167   3.847  50.315  1.00  0.00     0.119 A 
HETATM    6  C15 UNL     1      26.285   3.528  49.703  1.00  0.00     0.029 A 
HETATM    7  C16 UNL     1      27.248   4.353  48.960  1.00  0.00     0.091 A 
ENDROOT
BRANCH   1   8
HETATM    8  C5  UNL     1      28.472   6.880  47.737  1.00  0.00     0.278 C 
BRANCH   8   9
HETATM    9  N2  UNL     1      29.621   7.345  48.505  1.00  0.00    -0.308 N 
HETATM   10  C17 UNL     1      30.604   6.331  48.697  1.00  0.00     0.218 C 
HETATM   11  C18 UNL     1      31.903   6.325  49.418  1.00  0.00     0.117 C 
HETATM   12  O1  UNL     1      30.544   5.134  48.250  1.00  0.00    -0.274 OA
BRANCH   9  13
HETATM   13  C4  UNL     1      29.903   8.641  49.082  1.00  0.00     0.401 C 
BRANCH  13  14
HETATM   14  N1  UNL     1      30.095   9.700  48.148  1.00  0.00     0.101 NA
HETATM   15  C3  UNL     1      31.514   9.889  47.922  1.00  0.00     0.312 C 
BRANCH  14  16
HETATM   16  C2  UNL     1      29.661  10.929  48.837  1.00  0.00     0.269 C 
HETATM   17  C1  UNL     1      30.788  11.919  48.959  1.00  0.00     0.037 C 
ENDBRANCH  14  16
ENDBRANCH  13  14
ENDBRANCH   9  13
ENDBRANCH   8   9
ENDBRANCH   1   8
BRANCH   5  18
HETATM   18  N5  UNL     1      24.378   2.869  50.981  1.00  0.00    -0.372 N 
HETATM   19  H14 UNL     1      23.402   3.076  50.627  1.00  0.00     0.161 HD
BRANCH  18  20
HETATM   20  C9  UNL     1      24.716   1.801  51.931  1.00  0.00     0.150 C 
BRANCH  20  21
HETATM   21  C10 UNL     1      23.452   1.234  52.463  1.00  0.00     0.012 C 
HETATM   22  C11 UNL     1      23.570   0.151  53.214  1.00  0.00     0.015 C 
HETATM   23 BR1  UNL     1      25.345  -0.487  53.476  1.00  0.00    -0.051 Br
BRANCH  22  24
HETATM   24  C12 UNL     1      22.483  -0.583  53.846  1.00  0.00    -0.041 A 
HETATM   25  C13 UNL     1      21.517  -0.395  54.796  1.00  0.00    -0.013 A 
HETATM   26  C14 UNL     1      21.627  -1.701  54.096  1.00  0.00     0.067 A 
ENDBRANCH  22  24
ENDBRANCH  20  21
ENDBRANCH  18  20
ENDBRANCH   5  18
TORSDOF 9
ENDMDL
MODEL 2
REMARK VINA RESULT:      -6.7      1.646      2.052
REMARK  9 active torsions:
REMARK  status: ('A' for Active; 'I' for Inactive)
REMARK    1  A    between atoms: C2_2  and  N1_3 
REMARK    2  A    between atoms: N1_3  and  C4_5 
REMARK    3  A    between atoms: C4_5  and  N2_6 
REMARK    4  A    between atoms: N2_6  and  C5_7 
REMARK       I    between atoms: N2_6  and  C17_23 
REMARK    5  A    between atoms: C5_7  and  N3_8 
REMARK    6  A    between atoms: C8_12  and  N5_13 
REMARK    7  A    between atoms: N5_13  and  C9_14 
REMARK    8  A    between atoms: C9_14  and  C10_15 
REMARK    9  A    between atoms: C11_16  and  C12_18 
ROOT
HETATM    1  N3  UNL     1      27.456   7.039  48.421  1.00  0.00    -0.273 NA
HETATM    2  C6  UNL     1      26.938   5.992  48.924  1.00  0.00     0.051 A 
HETATM    3  C7  UNL     1      25.742   6.402  49.691  1.00  0.00     0.145 A 
HETATM    4  N4  UNL     1      24.954   5.596  50.350  1.00  0.00    -0.242 NA
HETATM    5  C8  UNL     1      25.231   4.182  50.360  1.00  0.00     0.119 A 
HETATM    6  C15 UNL     1      26.285   3.776  49.690  1.00  0.00     0.029 A 
HETATM    7  C16 UNL     1      27.273   4.524  48.900  1.00  0.00     0.091 A 
ENDROOT
BRANCH   1   8
HETATM    8  C5  UNL     1      28.636   6.951  47.620  1.00  0.00     0.278 C 
BRANCH   8   9
HETATM    9  N2  UNL     1      29.870   7.175  48.363  1.00  0.00    -0.308 N 
HETATM   10  C17 UNL     1      30.703   6.019  48.414  1.00  0.00     0.218 C 
HETATM   11  C18 UNL     1      32.016   5.763  49.060  1.00  0.00     0.117 C 
HETATM   12  O1  UNL     1      30.452   4.890  47.868  1.00  0.00    -0.274 OA
BRANCH   9  13
HETATM   13  C4  UNL     1      30.361   8.358  49.034  1.00  0.00     0.401 C 
BRANCH  13  14
HETATM   14  N1  UNL     1      30.575   9.493  48.199  1.00  0.00     0.101 NA
HETATM   15  C3  UNL     1      31.954   9.506  47.751  1.00  0.00     0.312 C 
BRANCH  14  16
HETATM   16  C2  UNL     1      30.459  10.669  49.080  1.00  0.00     0.269 C 
HETATM   17  C1  UNL     1      31.021  11.904  48.428  1.00  0.00     0.037 C 
ENDBRANCH  14  16
ENDBRANCH  13  14
ENDBRANCH   9  13
ENDBRANCH   8   9
ENDBRANCH   1   8
BRANCH   5  18
HETATM   18  N5  UNL     1      24.400   3.268  51.064  1.00  0.00    -0.372 N 
HETATM   19  H14 UNL     1      23.592   3.122  50.395  1.00  0.00     0.161 HD
BRANCH  18  20
HETATM   20  C9  UNL     1      24.524   2.624  52.379  1.00  0.00     0.150 C 
BRANCH  20  21
HETATM   21  C10 UNL     1      25.676   1.689  52.333  1.00  0.00     0.012 C 
HETATM   22  C11 UNL     1      25.420   0.432  52.654  1.00  0.00     0.015 C 
HETATM   23 BR1  UNL     1      23.614   0.048  53.121  1.00  0.00    -0.051 Br
BRANCH  22  24
HETATM   24  C12 UNL     1      26.378  -0.664  52.684  1.00  0.00    -0.041 A 
HETATM   25  C13 UNL     1      27.712  -0.872  52.905  1.00  0.00    -0.013 A 
HETATM   26  C14 UNL     1      26.825  -2.018  52.582  1.00  0.00     0.067 A 
ENDBRANCH  22  24
ENDBRANCH  20  21
ENDBRANCH  18  20
ENDBRANCH   5  18
TORSDOF 9
ENDMDL
MODEL 3
REMARK VINA RESULT:      -6.6      1.406      2.770
REMARK  9 active torsions:
REMARK  status: ('A' for Active; 'I' for Inactive)
REMARK    1  A    between atoms: C2_2  and  N1_3 
REMARK    2  A    between atoms: N1_3  and  C4_5 
REMARK    3  A    between atoms: C4_5  and  N2_6 
REMARK    4  A    between atoms: N2_6  and  C5_7 
REMARK       I    between atoms: N2_6  and  C17_23 
REMARK    5  A    between atoms: C5_7  and  N3_8 
REMARK    6  A    between atoms: C8_12  and  N5_13 
REMARK    7  A    between atoms: N5_13  and  C9_14 
REMARK    8  A    between atoms: C9_14  and  C10_15 
REMARK    9  A    between atoms: C11_16  and  C12_18 
ROOT
HETATM    1  N3  UNL     1      27.398   6.937  48.375  1.00  0.00    -0.273 NA
HETATM    2  C6  UNL     1      26.891   5.898  48.905  1.00  0.00     0.051 A 
HETATM    3  C7  UNL     1      25.701   6.317  49.677  1.00  0.00     0.145 A 
HETATM    4  N4  UNL     1      24.925   5.520  50.360  1.00  0.00    -0.242 NA
HETATM    5  C8  UNL     1      25.210   4.108  50.397  1.00  0.00     0.119 A 
HETATM    6  C15 UNL     1      26.260   3.694  49.724  1.00  0.00     0.029 A 
HETATM    7  C16 UNL     1      27.235   4.432  48.908  1.00  0.00     0.091 A 
ENDROOT
BRANCH   1   8
HETATM    8  C5  UNL     1      28.570   6.839  47.563  1.00  0.00     0.278 C 
BRANCH   8   9
HETATM    9  N2  UNL     1      29.814   7.009  48.303  1.00  0.00    -0.308 N 
HETATM   10  C17 UNL     1      30.069   8.368  48.650  1.00  0.00     0.218 C 
HETATM   11  C18 UNL     1      31.195   9.021  49.366  1.00  0.00     0.117 C 
HETATM   12  O1  UNL     1      29.313   9.364  48.385  1.00  0.00    -0.274 OA
BRANCH   9  13
HETATM   13  C4  UNL     1      30.798   6.036  48.723  1.00  0.00     0.401 C 
BRANCH  13  14
HETATM   14  N1  UNL     1      31.835   5.765  47.784  1.00  0.00     0.101 NA
HETATM   15  C3  UNL     1      31.814   4.358  47.439  1.00  0.00     0.312 C 
BRANCH  14  16
HETATM   16  C2  UNL     1      33.100   5.951  48.517  1.00  0.00     0.269 C 
HETATM   17  C1  UNL     1      34.115   4.905  48.137  1.00  0.00     0.037 C 
ENDBRANCH  14  16
ENDBRANCH  13  14
ENDBRANCH   9  13
ENDBRANCH   8   9
ENDBRANCH   1   8
BRANCH   5  18
HETATM   18  N5  UNL     1      24.393   3.204  51.129  1.00  0.00    -0.372 N 
HETATM   19  H14 UNL     1      23.529   3.782  51.333  1.00  0.00     0.161 HD
BRANCH  18  20
HETATM   20  C9  UNL     1      24.586   1.810  51.550  1.00  0.00     0.150 C 
BRANCH  20  21
HETATM   21  C10 UNL     1      23.352   1.356  52.240  1.00  0.00     0.012 C 
HETATM   22  C11 UNL     1      23.506   0.397  53.137  1.00  0.00     0.015 C 
HETATM   23 BR1  UNL     1      25.286  -0.232  53.382  1.00  0.00    -0.051 Br
BRANCH  22  24
HETATM   24  C12 UNL     1      22.454  -0.211  53.939  1.00  0.00    -0.041 A 
HETATM   25  C13 UNL     1      22.151  -1.414  54.517  1.00  0.00    -0.013 A 
HETATM   26  C14 UNL     1      21.218  -0.267  54.656  1.00  0.00     0.067 A 
ENDBRANCH  22  24
ENDBRANCH  20  21
ENDBRANCH  18  20
ENDBRANCH   5  18
TORSDOF 9
ENDMDL
MODEL 4
REMARK VINA RESULT:      -6.5      4.086      9.611
REMARK  9 active torsions:
REMARK  status: ('A' for Active; 'I' for Inactive)
REMARK    1  A    between atoms: C2_2  and  N1_3 
REMARK    2  A    between atoms: N1_3  and  C4_5 
REMARK    3  A    between atoms: C4_5  and  N2_6 
REMARK    4  A    between atoms: N2_6  and  C5_7 
REMARK       I    between atoms: N2_6  and  C17_23 
REMARK    5  A    between atoms: C5_7  and  N3_8 
REMARK    6  A    between atoms: C8_12  and  N5_13 
REMARK    7  A    between atoms: N5_13  and  C9_14 
REMARK    8  A    between atoms: C9_14  and  C10_15 
REMARK    9  A    between atoms: C11_16  and  C12_18 
ROOT
HETATM    1  N3  UNL     1      22.901   2.735  51.562  1.00  0.00    -0.273 NA
HETATM    2  C6  UNL     1      23.881   3.318  50.998  1.00  0.00     0.051 A 
HETATM    3  C7  UNL     1      23.758   4.768  51.258  1.00  0.00     0.145 A 
HETATM    4  N4  UNL     1      24.585   5.685  50.833  1.00  0.00    -0.242 NA
HETATM    5  C8  UNL     1      25.725   5.302  50.041  1.00  0.00     0.119 A 
HETATM    6  C15 UNL     1      25.872   4.021  49.787  1.00  0.00     0.029 A 
HETATM    7  C16 UNL     1      25.057   2.861  50.176  1.00  0.00     0.091 A 
ENDROOT
BRANCH   1   8
HETATM    8  C5  UNL     1      22.756   1.316  51.479  1.00  0.00     0.278 C 
BRANCH   8   9
HETATM    9  N2  UNL     1      22.914   0.632  52.757  1.00  0.00    -0.308 N 
HETATM   10  C17 UNL     1      21.674   0.411  53.422  1.00  0.00     0.218 C 
HETATM   11  C18 UNL     1      21.340  -0.213  54.729  1.00  0.00     0.117 C 
HETATM   12  O1  UNL     1      20.518   0.737  52.983  1.00  0.00    -0.274 OA
BRANCH   9  13
HETATM   13  C4  UNL     1      24.105   0.160  53.428  1.00  0.00     0.401 C 
BRANCH  13  14
HETATM   14  N1  UNL     1      25.326   0.355  52.721  1.00  0.00     0.101 NA
HETATM   15  C3  UNL     1      26.137  -0.843  52.822  1.00  0.00     0.312 C 
BRANCH  14  16
HETATM   16  C2  UNL     1      26.073   1.375  53.480  1.00  0.00     0.269 C 
HETATM   17  C1  UNL     1      27.398   0.845  53.958  1.00  0.00     0.037 C 
ENDBRANCH  14  16
ENDBRANCH  13  14
ENDBRANCH   9  13
ENDBRANCH   8   9
ENDBRANCH   1   8
BRANCH   5  18
HETATM   18  N5  UNL     1      26.651   6.266  49.557  1.00  0.00    -0.372 N 
HETATM   19  H14 UNL     1      26.773   6.912  50.388  1.00  0.00     0.161 HD
BRANCH  18  20
HETATM   20  C9  UNL     1      27.331   6.428  48.264  1.00  0.00     0.150 C 
BRANCH  20  21
HETATM   21  C10 UNL     1      28.500   5.514  48.235  1.00  0.00     0.012 C 
HETATM   22  C11 UNL     1      29.661   6.063  47.916  1.00  0.00     0.015 C 
HETATM   23 BR1  UNL     1      29.621   7.932  47.550  1.00  0.00    -0.051 Br
BRANCH  22  24
HETATM   24  C12 UNL     1      30.942   5.379  47.821  1.00  0.00    -0.041 A 
HETATM   25  C13 UNL     1      32.260   5.594  48.119  1.00  0.00    -0.013 A 
HETATM   26  C14 UNL     1      31.838   4.312  47.499  1.00  0.00     0.067 A 
ENDBRANCH  22  24
ENDBRANCH  20  21
ENDBRANCH  18  20
ENDBRANCH   5  18
TORSDOF 9
ENDMDL
MODEL 5
REMARK VINA RESULT:      -6.5      2.961      9.441
REMARK  9 active torsions:
REMARK  status: ('A' for Active; 'I' for Inactive)
REMARK    1  A    between atoms: C2_2  and  N1_3 
REMARK    2  A    between atoms: N1_3  and  C4_5 
REMARK    3  A    between atoms: C4_5  and  N2_6 
REMARK    4  A    between atoms: N2_6  and  C5_7 
REMARK       I    between atoms: N2_6  and  C17_23 
REMARK    5  A    between atoms: C5_7  and  N3_8 
REMARK    6  A    between atoms: C8_12  and  N5_13 
REMARK    7  A    between atoms: N5_13  and  C9_14 
REMARK    8  A    between atoms: C9_14  and  C10_15 
REMARK    9  A    between atoms: C11_16  and  C12_18 
ROOT
HETATM    1  N3  UNL     1      25.052   4.435  50.299  1.00  0.00    -0.273 NA
HETATM    2  C6  UNL     1      26.030   4.939  49.662  1.00  0.00     0.051 A 
HETATM    3  C7  UNL     1      25.862   6.408  49.658  1.00  0.00     0.145 A 
HETATM    4  N4  UNL     1      26.674   7.260  49.094  1.00  0.00    -0.242 NA
HETATM    5  C8  UNL     1      27.845   6.779  48.407  1.00  0.00     0.119 A 
HETATM    6  C15 UNL     1      28.033   5.479  48.388  1.00  0.00     0.029 A 
HETATM    7  C16 UNL     1      27.239   4.381  48.959  1.00  0.00     0.091 A 
ENDROOT
BRANCH   1   8
HETATM    8  C5  UNL     1      24.947   3.020  50.467  1.00  0.00     0.278 C 
BRANCH   8   9
HETATM    9  N2  UNL     1      24.900   2.594  51.860  1.00  0.00    -0.308 N 
HETATM   10  C17 UNL     1      26.185   2.263  52.380  1.00  0.00     0.218 C 
HETATM   11  C18 UNL     1      26.626   1.768  53.710  1.00  0.00     0.117 C 
HETATM   12  O1  UNL     1      27.292   2.334  51.745  1.00  0.00    -0.274 OA
BRANCH   9  13
HETATM   13  C4  UNL     1      23.779   2.461  52.764  1.00  0.00     0.401 C 
BRANCH  13  14
HETATM   14  N1  UNL     1      22.669   1.722  52.262  1.00  0.00     0.101 NA
HETATM   15  C3  UNL     1      21.508   2.588  52.191  1.00  0.00     0.312 C 
BRANCH  14  16
HETATM   16  C2  UNL     1      22.335   0.737  53.307  1.00  0.00     0.269 C 
HETATM   17  C1  UNL     1      23.428  -0.285  53.470  1.00  0.00     0.037 C 
ENDBRANCH  14  16
ENDBRANCH  13  14
ENDBRANCH   9  13
ENDBRANCH   8   9
ENDBRANCH   1   8
BRANCH   5  18
HETATM   18  N5  UNL     1      28.757   7.670  47.780  1.00  0.00    -0.372 N 
HETATM   19  H14 UNL     1      28.129   8.243  47.148  1.00  0.00     0.161 HD
BRANCH  18  20
HETATM   20  C9  UNL     1      30.211   7.847  47.896  1.00  0.00     0.150 C 
BRANCH  20  21
HETATM   21  C10 UNL     1      30.869   6.972  46.893  1.00  0.00     0.012 C 
HETATM   22  C11 UNL     1      31.645   6.016  47.374  1.00  0.00     0.015 C 
HETATM   23 BR1  UNL     1      31.781   5.934  49.272  1.00  0.00    -0.051 Br
BRANCH  22  24
HETATM   24  C12 UNL     1      32.393   5.038  46.597  1.00  0.00    -0.041 A 
HETATM   25  C13 UNL     1      32.900   4.881  45.335  1.00  0.00    -0.013 A 
HETATM   26  C14 UNL     1      33.082   3.810  46.348  1.00  0.00     0.067 A 
ENDBRANCH  22  24
ENDBRANCH  20  21
ENDBRANCH  18  20
ENDBRANCH   5  18
TORSDOF 9
ENDMDL
MODEL 6
REMARK VINA RESULT:      -6.3      7.379     10.247
REMARK  9 active torsions:
REMARK  status: ('A' for Active; 'I' for Inactive)
REMARK    1  A    between atoms: C2_2  and  N1_3 
REMARK    2  A    between atoms: N1_3  and  C4_5 
REMARK    3  A    between atoms: C4_5  and  N2_6 
REMARK    4  A    between atoms: N2_6  and  C5_7 
REMARK       I    between atoms: N2_6  and  C17_23 
REMARK    5  A    between atoms: C5_7  and  N3_8 
REMARK    6  A    between atoms: C8_12  and  N5_13 
REMARK    7  A    between atoms: N5_13  and  C9_14 
REMARK    8  A    between atoms: C9_14  and  C10_15 
REMARK    9  A    between atoms: C11_16  and  C12_18 
ROOT
HETATM    1  N3  UNL     1      21.998   1.665  52.151  1.00  0.00    -0.273 NA
HETATM    2  C6  UNL     1      20.749   1.683  51.909  1.00  0.00     0.051 A 
HETATM    3  C7  UNL     1      20.268   3.066  52.114  1.00  0.00     0.145 A 
HETATM    4  N4  UNL     1      19.035   3.467  51.961  1.00  0.00    -0.242 NA
HETATM    5  C8  UNL     1      18.024   2.522  51.561  1.00  0.00     0.119 A 
HETATM    6  C15 UNL     1      18.410   1.281  51.368  1.00  0.00     0.029 A 
HETATM    7  C16 UNL     1      19.734   0.653  51.489  1.00  0.00     0.091 A 
ENDROOT
BRANCH   1   8
HETATM    8  C5  UNL     1      22.741   0.450  52.034  1.00  0.00     0.278 C 
BRANCH   8   9
HETATM    9  N2  UNL     1      23.545   0.136  53.209  1.00  0.00    -0.308 N 
HETATM   10  C17 UNL     1      22.892  -0.763  54.101  1.00  0.00     0.218 C 
HETATM   11  C18 UNL     1      23.296  -1.340  55.410  1.00  0.00     0.117 C 
HETATM   12  O1  UNL     1      21.736  -1.283  53.930  1.00  0.00    -0.274 OA
BRANCH   9  13
HETATM   13  C4  UNL     1      24.865   0.586  53.591  1.00  0.00     0.401 C 
BRANCH  13  14
HETATM   14  N1  UNL     1      25.912  -0.364  53.414  1.00  0.00     0.101 NA
HETATM   15  C3  UNL     1      26.972  -0.093  54.367  1.00  0.00     0.312 C 
BRANCH  14  16
HETATM   16  C2  UNL     1      26.509  -0.066  52.100  1.00  0.00     0.269 C 
HETATM   17  C1  UNL     1      26.764   1.408  51.932  1.00  0.00     0.037 C 
ENDBRANCH  14  16
ENDBRANCH  13  14
ENDBRANCH   9  13
ENDBRANCH   8   9
ENDBRANCH   1   8
BRANCH   5  18
HETATM   18  N5  UNL     1      16.669   2.915  51.382  1.00  0.00    -0.372 N 
HETATM   19  H14 UNL     1      16.233   2.057  50.939  1.00  0.00     0.161 HD
BRANCH  18  20
HETATM   20  C9  UNL     1      15.947   4.156  51.691  1.00  0.00     0.150 C 
BRANCH  20  21
HETATM   21  C10 UNL     1      15.082   3.910  52.872  1.00  0.00     0.012 C 
HETATM   22  C11 UNL     1      13.777   3.955  52.658  1.00  0.00     0.015 C 
HETATM   23 BR1  UNL     1      13.243   4.329  50.869  1.00  0.00    -0.051 Br
BRANCH  22  24
HETATM   24  C12 UNL     1      12.733   3.748  53.650  1.00  0.00    -0.041 A 
HETATM   25  C13 UNL     1      11.802   2.807  53.999  1.00  0.00    -0.013 A 
HETATM   26  C14 UNL     1      11.909   4.070  54.774  1.00  0.00     0.067 A 
ENDBRANCH  22  24
ENDBRANCH  20  21
ENDBRANCH  18  20
ENDBRANCH   5  18
TORSDOF 9
ENDMDL
MODEL 7
REMARK VINA RESULT:      -6.3      5.720      8.760
REMARK  9 active torsions:
REMARK  status: ('A' for Active; 'I' for Inactive)
REMARK    1  A    between atoms: C2_2  and  N1_3 
REMARK    2  A    between atoms: N1_3  and  C4_5 
REMARK    3  A    between atoms: C4_5  and  N2_6 
REMARK    4  A    between atoms: N2_6  and  C5_7 
REMARK       I    between atoms: N2_6  and  C17_23 
REMARK    5  A    between atoms: C5_7  and  N3_8 
REMARK    6  A    between atoms: C8_12  and  N5_13 
REMARK    7  A    between atoms: N5_13  and  C9_14 
REMARK    8  A    between atoms: C9_14  and  C10_15 
REMARK    9  A    between atoms: C11_16  and  C12_18 
ROOT
HETATM    1  N3  UNL     1      23.692   0.382  52.997  1.00  0.00    -0.273 NA
HETATM    2  C6  UNL     1      22.609  -0.189  53.340  1.00  0.00     0.051 A 
HETATM    3  C7  UNL     1      21.496   0.486  52.639  1.00  0.00     0.145 A 
HETATM    4  N4  UNL     1      20.234   0.173  52.747  1.00  0.00    -0.242 NA
HETATM    5  C8  UNL     1      19.842  -0.912  53.610  1.00  0.00     0.119 A 
HETATM    6  C15 UNL     1      20.800  -1.539  54.253  1.00  0.00     0.029 A 
HETATM    7  C16 UNL     1      22.256  -1.333  54.255  1.00  0.00     0.091 A 
ENDROOT
BRANCH   1   8
HETATM    8  C5  UNL     1      24.945  -0.061  53.522  1.00  0.00     0.278 C 
BRANCH   8   9
HETATM    9  N2  UNL     1      26.037   0.882  53.316  1.00  0.00    -0.308 N 
HETATM   10  C17 UNL     1      27.299   0.364  53.730  1.00  0.00     0.218 C 
HETATM   11  C18 UNL     1      28.664   0.951  53.737  1.00  0.00     0.117 C 
HETATM   12  O1  UNL     1      27.510  -0.800  54.215  1.00  0.00    -0.274 OA
BRANCH   9  13
HETATM   13  C4  UNL     1      26.031   2.221  52.771  1.00  0.00     0.401 C 
BRANCH  13  14
HETATM   14  N1  UNL     1      25.534   2.341  51.441  1.00  0.00     0.101 NA
HETATM   15  C3  UNL     1      26.608   2.765  50.564  1.00  0.00     0.312 C 
BRANCH  14  16
HETATM   16  C2  UNL     1      24.598   3.480  51.462  1.00  0.00     0.269 C 
HETATM   17  C1  UNL     1      24.041   3.710  52.841  1.00  0.00     0.037 C 
ENDBRANCH  14  16
ENDBRANCH  13  14
ENDBRANCH   9  13
ENDBRANCH   8   9
ENDBRANCH   1   8
BRANCH   5  18
HETATM   18  N5  UNL     1      18.479  -1.287  53.758  1.00  0.00    -0.372 N 
HETATM   19  H14 UNL     1      17.989  -0.355  53.872  1.00  0.00     0.161 HD
BRANCH  18  20
HETATM   20  C9  UNL     1      17.804  -2.593  53.768  1.00  0.00     0.150 C 
BRANCH  20  21
HETATM   21  C10 UNL     1      16.642  -2.524  52.847  1.00  0.00     0.012 C 
HETATM   22  C11 UNL     1      15.864  -3.592  52.809  1.00  0.00     0.015 C 
HETATM   23 BR1  UNL     1      16.377  -5.031  53.947  1.00  0.00    -0.051 Br
BRANCH  22  24
HETATM   24  C12 UNL     1      14.673  -3.764  51.990  1.00  0.00    -0.041 A 
HETATM   25  C13 UNL     1      14.304  -4.326  50.798  1.00  0.00    -0.013 A 
HETATM   26  C14 UNL     1      13.293  -3.637  51.641  1.00  0.00     0.067 A 
ENDBRANCH  22  24
ENDBRANCH  20  21
ENDBRANCH  18  20
ENDBRANCH   5  18
TORSDOF 9
ENDMDL
MODEL 8
REMARK VINA RESULT:      -6.2      3.750      9.713
REMARK  9 active torsions:
REMARK  status: ('A' for Active; 'I' for Inactive)
REMARK    1  A    between atoms: C2_2  and  N1_3 
REMARK    2  A    between atoms: N1_3  and  C4_5 
REMARK    3  A    between atoms: C4_5  and  N2_6 
REMARK    4  A    between atoms: N2_6  and  C5_7 
REMARK       I    between atoms: N2_6  and  C17_23 
REMARK    5  A    between atoms: C5_7  and  N3_8 
REMARK    6  A    between atoms: C8_12  and  N5_13 
REMARK    7  A    between atoms: N5_13  and  C9_14 
REMARK    8  A    between atoms: C9_14  and  C10_15 
REMARK    9  A    between atoms: C11_16  and  C12_18 
ROOT
HETATM    1  N3  UNL     1      24.663   2.710  50.500  1.00  0.00    -0.273 NA
HETATM    2  C6  UNL     1      25.220   3.739  50.002  1.00  0.00     0.051 A 
HETATM    3  C7  UNL     1      26.570   3.348  49.543  1.00  0.00     0.145 A 
HETATM    4  N4  UNL     1      27.437   4.146  48.980  1.00  0.00    -0.242 NA
HETATM    5  C8  UNL     1      27.097   5.529  48.766  1.00  0.00     0.119 A 
HETATM    6  C15 UNL     1      25.905   5.918  49.159  1.00  0.00     0.029 A 
HETATM    7  C16 UNL     1      24.811   5.174  49.801  1.00  0.00     0.091 A 
ENDROOT
BRANCH   1   8
HETATM    8  C5  UNL     1      23.338   2.786  51.029  1.00  0.00     0.278 C 
BRANCH   8   9
HETATM    9  N2  UNL     1      23.111   1.916  52.176  1.00  0.00    -0.308 N 
HETATM   10  C17 UNL     1      21.755   1.492  52.289  1.00  0.00     0.218 C 
HETATM   11  C18 UNL     1      21.055   0.639  53.284  1.00  0.00     0.117 C 
HETATM   12  O1  UNL     1      20.805   1.796  51.488  1.00  0.00    -0.274 OA
BRANCH   9  13
HETATM   13  C4  UNL     1      24.028   1.433  53.185  1.00  0.00     0.401 C 
BRANCH  13  14
HETATM   14  N1  UNL     1      24.546   0.123  52.967  1.00  0.00     0.101 NA
HETATM   15  C3  UNL     1      24.558  -0.603  54.222  1.00  0.00     0.312 C 
BRANCH  14  16
HETATM   16  C2  UNL     1      25.969   0.304  52.627  1.00  0.00     0.269 C 
HETATM   17  C1  UNL     1      26.670  -1.019  52.473  1.00  0.00     0.037 C 
ENDBRANCH  14  16
ENDBRANCH  13  14
ENDBRANCH   9  13
ENDBRANCH   8   9
ENDBRANCH   1   8
BRANCH   5  18
HETATM   18  N5  UNL     1      28.009   6.432  48.156  1.00  0.00    -0.372 N 
HETATM   19  H14 UNL     1      27.380   7.024  47.543  1.00  0.00     0.161 HD
BRANCH  18  20
HETATM   20  C9  UNL     1      29.465   6.599  48.269  1.00  0.00     0.150 C 
BRANCH  20  21
HETATM   21  C10 UNL     1      30.118   5.413  47.662  1.00  0.00     0.012 C 
HETATM   22  C11 UNL     1      31.372   5.190  48.020  1.00  0.00     0.015 C 
HETATM   23 BR1  UNL     1      32.114   6.438  49.253  1.00  0.00    -0.051 Br
BRANCH  22  24
HETATM   24  C12 UNL     1      32.219   4.098  47.564  1.00  0.00    -0.041 A 
HETATM   25  C13 UNL     1      32.500   3.411  46.415  1.00  0.00    -0.013 A 
HETATM   26  C14 UNL     1      33.189   3.054  47.682  1.00  0.00     0.067 A 
ENDBRANCH  22  24
ENDBRANCH  20  21
ENDBRANCH  18  20
ENDBRANCH   5  18
TORSDOF 9
ENDMDL
MODEL 9
REMARK VINA RESULT:      -6.2      3.793     10.010
REMARK  9 active torsions:
REMARK  status: ('A' for Active; 'I' for Inactive)
REMARK    1  A    between atoms: C2_2  and  N1_3 
REMARK    2  A    between atoms: N1_3  and  C4_5 
REMARK    3  A    between atoms: C4_5  and  N2_6 
REMARK    4  A    between atoms: N2_6  and  C5_7 
REMARK       I    between atoms: N2_6  and  C17_23 
REMARK    5  A    between atoms: C5_7  and  N3_8 
REMARK    6  A    between atoms: C8_12  and  N5_13 
REMARK    7  A    between atoms: N5_13  and  C9_14 
REMARK    8  A    between atoms: C9_14  and  C10_15 
REMARK    9  A    between atoms: C11_16  and  C12_18 
ROOT
HETATM    1  N3  UNL     1      23.701   3.171  51.164  1.00  0.00    -0.273 NA
HETATM    2  C6  UNL     1      24.614   3.850  50.594  1.00  0.00     0.051 A 
HETATM    3  C7  UNL     1      24.355   5.280  50.868  1.00  0.00     0.145 A 
HETATM    4  N4  UNL     1      25.085   6.275  50.441  1.00  0.00    -0.242 NA
HETATM    5  C8  UNL     1      26.246   6.009  49.632  1.00  0.00     0.119 A 
HETATM    6  C15 UNL     1      26.512   4.750  49.365  1.00  0.00     0.029 A 
HETATM    7  C16 UNL     1      25.818   3.514  49.754  1.00  0.00     0.091 A 
ENDROOT
BRANCH   1   8
HETATM    8  C5  UNL     1      23.692   1.746  51.071  1.00  0.00     0.278 C 
BRANCH   8   9
HETATM    9  N2  UNL     1      23.872   1.071  52.351  1.00  0.00    -0.308 N 
HETATM   10  C17 UNL     1      22.782   0.213  52.681  1.00  0.00     0.218 C 
HETATM   11  C18 UNL     1      22.510  -0.645  53.863  1.00  0.00     0.117 C 
HETATM   12  O1  UNL     1      21.746   0.006  51.961  1.00  0.00    -0.274 OA
BRANCH   9  13
HETATM   13  C4  UNL     1      24.957   1.139  53.304  1.00  0.00     0.401 C 
BRANCH  13  14
HETATM   14  N1  UNL     1      25.950   0.124  53.177  1.00  0.00     0.101 NA
HETATM   15  C3  UNL     1      26.643  -0.030  54.441  1.00  0.00     0.312 C 
BRANCH  14  16
HETATM   16  C2  UNL     1      26.967   0.669  52.259  1.00  0.00     0.269 C 
HETATM   17  C1  UNL     1      27.414   2.042  52.684  1.00  0.00     0.037 C 
ENDBRANCH  14  16
ENDBRANCH  13  14
ENDBRANCH   9  13
ENDBRANCH   8   9
ENDBRANCH   1   8
BRANCH   5  18
HETATM   18  N5  UNL     1      27.069   7.061  49.145  1.00  0.00    -0.372 N 
HETATM   19  H14 UNL     1      27.717   6.561  48.474  1.00  0.00     0.161 HD
BRANCH  18  20
HETATM   20  C9  UNL     1      27.105   8.503  49.426  1.00  0.00     0.150 C 
BRANCH  20  21
HETATM   21  C10 UNL     1      28.516   8.958  49.344  1.00  0.00     0.012 C 
HETATM   22  C11 UNL     1      28.709  10.172  48.855  1.00  0.00     0.015 C 
HETATM   23 BR1  UNL     1      27.139  11.118  48.341  1.00  0.00    -0.051 Br
BRANCH  22  24
HETATM   24  C12 UNL     1      29.992  10.836  48.677  1.00  0.00    -0.041 A 
HETATM   25  C13 UNL     1      30.606  12.015  49.003  1.00  0.00    -0.013 A 
HETATM   26  C14 UNL     1      31.341  10.984  48.226  1.00  0.00     0.067 A 
ENDBRANCH  22  24
ENDBRANCH  20  21
ENDBRANCH  18  20
ENDBRANCH   5  18
TORSDOF 9
ENDMDL
