MODEL 1
REMARK VINA RESULT:      -7.9      0.000      0.000
REMARK  7 active torsions:
REMARK  status: ('A' for Active; 'I' for Inactive)
REMARK    1  A    between atoms: C6_10  and  N5_11 
REMARK    2  A    between atoms: N5_11  and  O1_12 
REMARK    3  A    between atoms: N5_11  and  C7_13 
REMARK    4  A    between atoms: C8_14  and  C9_15 
REMARK    5  A    between atoms: C9_15  and  C10_16 
REMARK    6  A    between atoms: C10_16  and  N6_17 
REMARK    7  A    between atoms: N6_17  and  C11_18 
ROOT
HETATM    1  N1  UNL     1      27.990   2.092  52.405  1.00  0.00    -0.192 NA
HETATM    2  C1  UNL     1      27.110   1.471  52.870  1.00  0.00     0.097 C 
HETATM    3  C2  UNL     1      26.032   0.717  53.456  1.00  0.00     0.044 A 
HETATM    4  C3  UNL     1      26.307  -0.050  54.511  1.00  0.00     0.135 A 
HETATM    5  N2  UNL     1      25.263  -0.811  55.121  1.00  0.00    -0.262 NA
HETATM    6  C4  UNL     1      24.062  -0.777  54.677  1.00  0.00     0.066 A 
HETATM    7  C5  UNL     1      23.096  -1.627  55.424  1.00  0.00     0.233 A 
HETATM    8  N3  UNL     1      21.792  -1.513  54.846  1.00  0.00    -0.185 NA
HETATM    9  N4  UNL     1      21.522  -0.798  53.859  1.00  0.00    -0.134 NA
HETATM   10  C6  UNL     1      22.442   0.016  53.142  1.00  0.00     0.184 A 
HETATM   11  C17 UNL     1      23.697   0.041  53.529  1.00  0.00     0.023 A 
HETATM   12  C18 UNL     1      24.688   0.872  52.816  1.00  0.00     0.096 A 
ENDROOT
BRANCH  10  13
HETATM   13  N5  UNL     1      21.961   0.770  52.036  1.00  0.00    -0.215 N 
BRANCH  13  14
HETATM   14  O1  UNL     1      21.519   0.445  50.809  1.00  0.00    -0.281 OA
HETATM   15  H4  UNL     1      21.327  -0.540  50.858  1.00  0.00     0.245 HD
ENDBRANCH  13  14
BRANCH  13  16
HETATM   16  C7  UNL     1      21.950   2.177  52.294  1.00  0.00     0.121 C 
HETATM   17  C8  UNL     1      21.349   3.100  51.566  1.00  0.00    -0.005 C 
BRANCH  17  18
HETATM   18  C9  UNL     1      21.111   4.569  51.489  1.00  0.00     0.048 C 
BRANCH  18  19
HETATM   19  C10 UNL     1      22.382   5.236  51.066  1.00  0.00     0.123 C 
BRANCH  19  20
HETATM   20  N6  UNL     1      22.838   4.623  49.828  1.00  0.00    -0.390 N 
HETATM   21  H11 UNL     1      22.176   4.277  49.093  1.00  0.00     0.159 HD
BRANCH  20  22
HETATM   22  C11 UNL     1      24.237   4.488  49.605  1.00  0.00     0.029 A 
HETATM   23  C12 UNL     1      24.884   3.304  49.857  1.00  0.00     0.029 A 
HETATM   24  C13 UNL     1      26.244   3.196  49.634  1.00  0.00     0.004 A 
HETATM   25  C14 UNL     1      26.981   4.271  49.153  1.00  0.00     0.019 A 
HETATM   26  C15 UNL     1      26.363   5.480  48.887  1.00  0.00     0.013 A 
HETATM   27 BR1  UNL     1      27.323   6.999  48.222  1.00  0.00    -0.051 Br
HETATM   28  C16 UNL     1      24.990   5.524  49.133  1.00  0.00     0.048 A 
ENDBRANCH  20  22
ENDBRANCH  19  20
ENDBRANCH  18  19
ENDBRANCH  17  18
ENDBRANCH  13  16
ENDBRANCH  10  13
TORSDOF 7
ENDMDL
MODEL 2
REMARK VINA RESULT:      -7.6      1.694      3.743
REMARK  7 active torsions:
REMARK  status: ('A' for Active; 'I' for Inactive)
REMARK    1  A    between atoms: C6_10  and  N5_11 
REMARK    2  A    between atoms: N5_11  and  O1_12 
REMARK    3  A    between atoms: N5_11  and  C7_13 
REMARK    4  A    between atoms: C8_14  and  C9_15 
REMARK    5  A    between atoms: C9_15  and  C10_16 
REMARK    6  A    between atoms: C10_16  and  N6_17 
REMARK    7  A    between atoms: N6_17  and  C11_18 
ROOT
HETATM    1  N1  UNL     1      21.572  -1.698  54.965  1.00  0.00    -0.192 NA
HETATM    2  C1  UNL     1      22.556  -1.175  54.598  1.00  0.00     0.097 C 
HETATM    3  C2  UNL     1      23.770  -0.549  54.141  1.00  0.00     0.044 A 
HETATM    4  C3  UNL     1      24.915  -0.914  54.717  1.00  0.00     0.135 A 
HETATM    5  N2  UNL     1      26.141  -0.317  54.291  1.00  0.00    -0.262 NA
HETATM    6  C4  UNL     1      26.169   0.566  53.364  1.00  0.00     0.066 A 
HETATM    7  C5  UNL     1      27.524   1.088  53.039  1.00  0.00     0.233 A 
HETATM    8  N3  UNL     1      27.437   2.064  51.995  1.00  0.00    -0.185 NA
HETATM    9  N4  UNL     1      26.371   2.414  51.448  1.00  0.00    -0.134 NA
HETATM   10  C6  UNL     1      25.074   1.918  51.755  1.00  0.00     0.184 A 
HETATM   11  C17 UNL     1      24.953   1.008  52.696  1.00  0.00     0.023 A 
HETATM   12  C18 UNL     1      23.626   0.463  53.049  1.00  0.00     0.096 A 
ENDROOT
BRANCH  10  13
HETATM   13  N5  UNL     1      23.963   2.429  51.030  1.00  0.00    -0.215 N 
BRANCH  13  14
HETATM   14  O1  UNL     1      23.055   1.878  50.205  1.00  0.00    -0.281 OA
HETATM   15  H4  UNL     1      23.566   1.181  49.693  1.00  0.00     0.245 HD
ENDBRANCH  13  14
BRANCH  13  16
HETATM   16  C7  UNL     1      23.779   3.834  51.226  1.00  0.00     0.121 C 
HETATM   17  C8  UNL     1      23.334   4.697  50.330  1.00  0.00    -0.005 C 
BRANCH  17  18
HETATM   18  C9  UNL     1      23.018   6.141  50.141  1.00  0.00     0.048 C 
BRANCH  18  19
HETATM   19  C10 UNL     1      23.856   6.667  49.019  1.00  0.00     0.123 C 
BRANCH  19  20
HETATM   20  N6  UNL     1      25.095   7.193  49.571  1.00  0.00    -0.390 N 
HETATM   21  H11 UNL     1      25.113   7.964  50.281  1.00  0.00     0.159 HD
BRANCH  20  22
HETATM   22  C11 UNL     1      26.330   6.641  49.131  1.00  0.00     0.029 A 
HETATM   23  C12 UNL     1      26.518   5.282  49.072  1.00  0.00     0.029 A 
HETATM   24  C13 UNL     1      27.727   4.767  48.642  1.00  0.00     0.004 A 
HETATM   25  C14 UNL     1      28.770   5.604  48.262  1.00  0.00     0.019 A 
HETATM   26  C15 UNL     1      28.617   6.978  48.308  1.00  0.00     0.013 A 
HETATM   27 BR1  UNL     1      30.014   8.184  47.797  1.00  0.00    -0.051 Br
HETATM   28  C16 UNL     1      27.374   7.433  48.751  1.00  0.00     0.048 A 
ENDBRANCH  20  22
ENDBRANCH  19  20
ENDBRANCH  18  19
ENDBRANCH  17  18
ENDBRANCH  13  16
ENDBRANCH  10  13
TORSDOF 7
ENDMDL
MODEL 3
REMARK VINA RESULT:      -7.5      3.952      6.486
REMARK  7 active torsions:
REMARK  status: ('A' for Active; 'I' for Inactive)
REMARK    1  A    between atoms: C6_10  and  N5_11 
REMARK    2  A    between atoms: N5_11  and  O1_12 
REMARK    3  A    between atoms: N5_11  and  C7_13 
REMARK    4  A    between atoms: C8_14  and  C9_15 
REMARK    5  A    between atoms: C9_15  and  C10_16 
REMARK    6  A    between atoms: C10_16  and  N6_17 
REMARK    7  A    between atoms: N6_17  and  C11_18 
ROOT
HETATM    1  N1  UNL     1      21.571  -1.617  54.973  1.00  0.00    -0.192 NA
HETATM    2  C1  UNL     1      22.547  -1.099  54.578  1.00  0.00     0.097 C 
HETATM    3  C2  UNL     1      23.750  -0.479  54.084  1.00  0.00     0.044 A 
HETATM    4  C3  UNL     1      24.919  -1.006  54.450  1.00  0.00     0.135 A 
HETATM    5  N2  UNL     1      26.133  -0.420  53.979  1.00  0.00    -0.262 NA
HETATM    6  C4  UNL     1      26.129   0.605  53.210  1.00  0.00     0.066 A 
HETATM    7  C5  UNL     1      27.477   1.092  52.811  1.00  0.00     0.233 A 
HETATM    8  N3  UNL     1      27.354   2.234  51.957  1.00  0.00    -0.185 NA
HETATM    9  N4  UNL     1      26.266   2.735  51.608  1.00  0.00    -0.134 NA
HETATM   10  C6  UNL     1      24.975   2.273  51.987  1.00  0.00     0.184 A 
HETATM   11  C17 UNL     1      24.886   1.226  52.776  1.00  0.00     0.023 A 
HETATM   12  C18 UNL     1      23.567   0.710  53.195  1.00  0.00     0.096 A 
ENDROOT
BRANCH  10  13
HETATM   13  N5  UNL     1      23.836   2.966  51.495  1.00  0.00    -0.215 N 
BRANCH  13  14
HETATM   14  O1  UNL     1      23.082   3.975  51.968  1.00  0.00    -0.281 OA
HETATM   15  H4  UNL     1      22.859   3.707  52.910  1.00  0.00     0.245 HD
ENDBRANCH  13  14
BRANCH  13  16
HETATM   16  C7  UNL     1      23.404   2.480  50.221  1.00  0.00     0.121 C 
HETATM   17  C8  UNL     1      22.301   1.795  49.978  1.00  0.00    -0.005 C 
BRANCH  17  18
HETATM   18  C9  UNL     1      21.537   1.145  48.876  1.00  0.00     0.048 C 
BRANCH  18  19
HETATM   19  C10 UNL     1      20.077   1.359  49.120  1.00  0.00     0.123 C 
BRANCH  19  20
HETATM   20  N6  UNL     1      19.868   1.558  50.546  1.00  0.00    -0.390 N 
HETATM   21  H11 UNL     1      20.280   2.368  51.069  1.00  0.00     0.159 HD
BRANCH  20  22
HETATM   22  C11 UNL     1      19.074   0.617  51.261  1.00  0.00     0.029 A 
HETATM   23  C12 UNL     1      19.542   0.020  52.405  1.00  0.00     0.029 A 
HETATM   24  C13 UNL     1      18.754  -0.892  53.083  1.00  0.00     0.004 A 
HETATM   25  C14 UNL     1      17.483  -1.222  52.628  1.00  0.00     0.019 A 
HETATM   26  C15 UNL     1      16.979  -0.640  51.478  1.00  0.00     0.013 A 
HETATM   27 BR1  UNL     1      15.236  -1.052  50.799  1.00  0.00    -0.051 Br
HETATM   28  C16 UNL     1      17.823   0.271  50.842  1.00  0.00     0.048 A 
ENDBRANCH  20  22
ENDBRANCH  19  20
ENDBRANCH  18  19
ENDBRANCH  17  18
ENDBRANCH  13  16
ENDBRANCH  10  13
TORSDOF 7
ENDMDL
MODEL 4
REMARK VINA RESULT:      -7.4      1.745      2.365
REMARK  7 active torsions:
REMARK  status: ('A' for Active; 'I' for Inactive)
REMARK    1  A    between atoms: C6_10  and  N5_11 
REMARK    2  A    between atoms: N5_11  and  O1_12 
REMARK    3  A    between atoms: N5_11  and  C7_13 
REMARK    4  A    between atoms: C8_14  and  C9_15 
REMARK    5  A    between atoms: C9_15  and  C10_16 
REMARK    6  A    between atoms: C10_16  and  N6_17 
REMARK    7  A    between atoms: N6_17  and  C11_18 
ROOT
HETATM    1  N1  UNL     1      28.633   2.504  53.192  1.00  0.00    -0.192 NA
HETATM    2  C1  UNL     1      27.595   1.958  53.226  1.00  0.00     0.097 C 
HETATM    3  C2  UNL     1      26.321   1.287  53.286  1.00  0.00     0.044 A 
HETATM    4  C3  UNL     1      26.293   0.044  53.766  1.00  0.00     0.135 A 
HETATM    5  N2  UNL     1      25.049  -0.653  53.843  1.00  0.00    -0.262 NA
HETATM    6  C4  UNL     1      23.952  -0.113  53.461  1.00  0.00     0.066 A 
HETATM    7  C5  UNL     1      22.747  -0.973  53.606  1.00  0.00     0.233 A 
HETATM    8  N3  UNL     1      21.585  -0.271  53.152  1.00  0.00    -0.185 NA
HETATM    9  N4  UNL     1      21.599   0.893  52.702  1.00  0.00    -0.134 NA
HETATM   10  C6  UNL     1      22.749   1.718  52.560  1.00  0.00     0.184 A 
HETATM   11  C17 UNL     1      23.917   1.242  52.928  1.00  0.00     0.023 A 
HETATM   12  C18 UNL     1      25.138   2.063  52.800  1.00  0.00     0.096 A 
ENDROOT
BRANCH  10  13
HETATM   13  N5  UNL     1      22.583   3.025  52.026  1.00  0.00    -0.215 N 
BRANCH  13  14
HETATM   14  O1  UNL     1      22.371   4.236  52.574  1.00  0.00    -0.281 OA
HETATM   15  H4  UNL     1      22.800   4.883  51.937  1.00  0.00     0.245 HD
ENDBRANCH  13  14
BRANCH  13  16
HETATM   16  C7  UNL     1      22.657   3.050  50.598  1.00  0.00     0.121 C 
HETATM   17  C8  UNL     1      22.878   4.111  49.844  1.00  0.00    -0.005 C 
BRANCH  17  18
HETATM   18  C9  UNL     1      23.021   4.537  48.424  1.00  0.00     0.048 C 
BRANCH  18  19
HETATM   19  C10 UNL     1      23.921   5.731  48.374  1.00  0.00     0.123 C 
BRANCH  19  20
HETATM   20  N6  UNL     1      25.021   5.523  49.304  1.00  0.00    -0.390 N 
HETATM   21  H11 UNL     1      24.876   5.158  50.276  1.00  0.00     0.159 HD
BRANCH  20  22
HETATM   22  C11 UNL     1      26.344   5.828  48.878  1.00  0.00     0.029 A 
HETATM   23  C12 UNL     1      27.300   4.847  48.781  1.00  0.00     0.029 A 
HETATM   24  C13 UNL     1      28.580   5.165  48.367  1.00  0.00     0.004 A 
HETATM   25  C14 UNL     1      28.926   6.472  48.041  1.00  0.00     0.019 A 
HETATM   26  C15 UNL     1      27.989   7.486  48.127  1.00  0.00     0.013 A 
HETATM   27 BR1  UNL     1      28.403   9.305  47.693  1.00  0.00    -0.051 Br
HETATM   28  C16 UNL     1      26.717   7.099  48.552  1.00  0.00     0.048 A 
ENDBRANCH  20  22
ENDBRANCH  19  20
ENDBRANCH  18  19
ENDBRANCH  17  18
ENDBRANCH  13  16
ENDBRANCH  10  13
TORSDOF 7
ENDMDL
MODEL 5
REMARK VINA RESULT:      -7.4      2.859      3.931
REMARK  7 active torsions:
REMARK  status: ('A' for Active; 'I' for Inactive)
REMARK    1  A    between atoms: C6_10  and  N5_11 
REMARK    2  A    between atoms: N5_11  and  O1_12 
REMARK    3  A    between atoms: N5_11  and  C7_13 
REMARK    4  A    between atoms: C8_14  and  C9_15 
REMARK    5  A    between atoms: C9_15  and  C10_16 
REMARK    6  A    between atoms: C10_16  and  N6_17 
REMARK    7  A    between atoms: N6_17  and  C11_18 
ROOT
HETATM    1  N1  UNL     1      28.719   1.052  54.598  1.00  0.00    -0.192 NA
HETATM    2  C1  UNL     1      27.597   0.913  54.287  1.00  0.00     0.097 C 
HETATM    3  C2  UNL     1      26.214   0.740  53.923  1.00  0.00     0.044 A 
HETATM    4  C3  UNL     1      25.674  -0.468  54.080  1.00  0.00     0.135 A 
HETATM    5  N2  UNL     1      24.305  -0.679  53.732  1.00  0.00    -0.262 NA
HETATM    6  C4  UNL     1      23.578   0.267  53.268  1.00  0.00     0.066 A 
HETATM    7  C5  UNL     1      22.175  -0.118  52.954  1.00  0.00     0.233 A 
HETATM    8  N3  UNL     1      21.458   1.011  52.445  1.00  0.00    -0.185 NA
HETATM    9  N4  UNL     1      21.952   2.147  52.293  1.00  0.00    -0.134 NA
HETATM   10  C6  UNL     1      23.292   2.520  52.591  1.00  0.00     0.184 A 
HETATM   11  C17 UNL     1      24.108   1.609  53.072  1.00  0.00     0.023 A 
HETATM   12  C18 UNL     1      25.508   1.950  53.397  1.00  0.00     0.096 A 
ENDROOT
BRANCH  10  13
HETATM   13  N5  UNL     1      23.690   3.864  52.356  1.00  0.00    -0.215 N 
BRANCH  13  14
HETATM   14  O1  UNL     1      24.013   4.894  53.159  1.00  0.00    -0.281 OA
HETATM   15  H4  UNL     1      24.097   5.682  52.542  1.00  0.00     0.245 HD
ENDBRANCH  13  14
BRANCH  13  16
HETATM   16  C7  UNL     1      23.757   4.182  50.964  1.00  0.00     0.121 C 
HETATM   17  C8  UNL     1      24.700   4.890  50.368  1.00  0.00    -0.005 C 
BRANCH  17  18
HETATM   18  C9  UNL     1      25.114   5.414  49.036  1.00  0.00     0.048 C 
BRANCH  18  19
HETATM   19  C10 UNL     1      26.374   6.202  49.206  1.00  0.00     0.123 C 
BRANCH  19  20
HETATM   20  N6  UNL     1      27.498   5.378  48.789  1.00  0.00    -0.390 N 
HETATM   21  H11 UNL     1      27.529   4.343  48.950  1.00  0.00     0.159 HD
BRANCH  20  22
HETATM   22  C11 UNL     1      28.600   6.000  48.137  1.00  0.00     0.029 A 
HETATM   23  C12 UNL     1      28.430   7.143  47.396  1.00  0.00     0.029 A 
HETATM   24  C13 UNL     1      29.515   7.730  46.770  1.00  0.00     0.004 A 
HETATM   25  C14 UNL     1      30.788   7.183  46.875  1.00  0.00     0.019 A 
HETATM   26  C15 UNL     1      30.996   6.032  47.613  1.00  0.00     0.013 A 
HETATM   27 BR1  UNL     1      32.725   5.229  47.797  1.00  0.00    -0.051 Br
HETATM   28  C16 UNL     1      29.862   5.489  48.219  1.00  0.00     0.048 A 
ENDBRANCH  20  22
ENDBRANCH  19  20
ENDBRANCH  18  19
ENDBRANCH  17  18
ENDBRANCH  13  16
ENDBRANCH  10  13
TORSDOF 7
ENDMDL
MODEL 6
REMARK VINA RESULT:      -7.4      2.252      4.023
REMARK  7 active torsions:
REMARK  status: ('A' for Active; 'I' for Inactive)
REMARK    1  A    between atoms: C6_10  and  N5_11 
REMARK    2  A    between atoms: N5_11  and  O1_12 
REMARK    3  A    between atoms: N5_11  and  C7_13 
REMARK    4  A    between atoms: C8_14  and  C9_15 
REMARK    5  A    between atoms: C9_15  and  C10_16 
REMARK    6  A    between atoms: C10_16  and  N6_17 
REMARK    7  A    between atoms: N6_17  and  C11_18 
ROOT
HETATM    1  N1  UNL     1      18.910   0.255  51.715  1.00  0.00    -0.192 NA
HETATM    2  C1  UNL     1      19.840  -0.010  52.380  1.00  0.00     0.097 C 
HETATM    3  C2  UNL     1      20.981  -0.354  53.188  1.00  0.00     0.044 A 
HETATM    4  C3  UNL     1      20.809  -1.247  54.163  1.00  0.00     0.135 A 
HETATM    5  N2  UNL     1      21.918  -1.614  54.985  1.00  0.00    -0.262 NA
HETATM    6  C4  UNL     1      23.079  -1.105  54.812  1.00  0.00     0.066 A 
HETATM    7  C5  UNL     1      24.124  -1.593  55.752  1.00  0.00     0.233 A 
HETATM    8  N3  UNL     1      25.376  -0.960  55.468  1.00  0.00    -0.185 NA
HETATM    9  N4  UNL     1      25.549  -0.123  54.559  1.00  0.00    -0.134 NA
HETATM   10  C6  UNL     1      24.554   0.347  53.657  1.00  0.00     0.184 A 
HETATM   11  C17 UNL     1      23.332  -0.124  53.765  1.00  0.00     0.023 A 
HETATM   12  C18 UNL     1      22.266   0.334  52.851  1.00  0.00     0.096 A 
ENDROOT
BRANCH  10  13
HETATM   13  N5  UNL     1      24.927   1.307  52.677  1.00  0.00    -0.215 N 
BRANCH  13  14
HETATM   14  O1  UNL     1      25.388   1.220  51.416  1.00  0.00    -0.281 OA
HETATM   15  H4  UNL     1      26.371   1.040  51.516  1.00  0.00     0.245 HD
ENDBRANCH  13  14
BRANCH  13  16
HETATM   16  C7  UNL     1      24.776   2.651  53.139  1.00  0.00     0.121 C 
HETATM   17  C8  UNL     1      23.874   3.524  52.728  1.00  0.00    -0.005 C 
BRANCH  17  18
HETATM   18  C9  UNL     1      23.409   4.924  52.935  1.00  0.00     0.048 C 
BRANCH  18  19
HETATM   19  C10 UNL     1      23.480   5.647  51.627  1.00  0.00     0.123 C 
BRANCH  19  20
HETATM   20  N6  UNL     1      24.498   6.682  51.723  1.00  0.00    -0.390 N 
HETATM   21  H11 UNL     1      24.933   6.963  52.634  1.00  0.00     0.159 HD
BRANCH  20  22
HETATM   22  C11 UNL     1      24.920   7.340  50.533  1.00  0.00     0.029 A 
HETATM   23  C12 UNL     1      24.174   8.350  49.980  1.00  0.00     0.029 A 
HETATM   24  C13 UNL     1      24.603   8.975  48.823  1.00  0.00     0.004 A 
HETATM   25  C14 UNL     1      25.787   8.599  48.200  1.00  0.00     0.019 A 
HETATM   26  C15 UNL     1      26.565   7.585  48.729  1.00  0.00     0.013 A 
HETATM   27 BR1  UNL     1      28.206   7.021  47.919  1.00  0.00    -0.051 Br
HETATM   28  C16 UNL     1      26.077   6.995  49.896  1.00  0.00     0.048 A 
ENDBRANCH  20  22
ENDBRANCH  19  20
ENDBRANCH  18  19
ENDBRANCH  17  18
ENDBRANCH  13  16
ENDBRANCH  10  13
TORSDOF 7
ENDMDL
MODEL 7
REMARK VINA RESULT:      -7.4      1.969      2.348
REMARK  7 active torsions:
REMARK  status: ('A' for Active; 'I' for Inactive)
REMARK    1  A    between atoms: C6_10  and  N5_11 
REMARK    2  A    between atoms: N5_11  and  O1_12 
REMARK    3  A    between atoms: N5_11  and  C7_13 
REMARK    4  A    between atoms: C8_14  and  C9_15 
REMARK    5  A    between atoms: C9_15  and  C10_16 
REMARK    6  A    between atoms: C10_16  and  N6_17 
REMARK    7  A    between atoms: N6_17  and  C11_18 
ROOT
HETATM    1  N1  UNL     1      27.143   2.463  51.567  1.00  0.00    -0.192 NA
HETATM    2  C1  UNL     1      26.413   1.773  52.175  1.00  0.00     0.097 C 
HETATM    3  C2  UNL     1      25.523   0.935  52.937  1.00  0.00     0.044 A 
HETATM    4  C3  UNL     1      26.064   0.057  53.782  1.00  0.00     0.135 A 
HETATM    5  N2  UNL     1      25.214  -0.790  54.556  1.00  0.00    -0.262 NA
HETATM    6  C4  UNL     1      23.938  -0.730  54.459  1.00  0.00     0.066 A 
HETATM    7  C5  UNL     1      23.199  -1.681  55.333  1.00  0.00     0.233 A 
HETATM    8  N3  UNL     1      21.789  -1.527  55.143  1.00  0.00    -0.185 NA
HETATM    9  N4  UNL     1      21.271  -0.709  54.355  1.00  0.00    -0.134 NA
HETATM   10  C6  UNL     1      21.973   0.201  53.518  1.00  0.00     0.184 A 
HETATM   11  C17 UNL     1      23.287   0.207  53.554  1.00  0.00     0.023 A 
HETATM   12  C18 UNL     1      24.059   1.135  52.703  1.00  0.00     0.096 A 
ENDROOT
BRANCH  10  13
HETATM   13  N5  UNL     1      21.222   1.067  52.678  1.00  0.00    -0.215 N 
BRANCH  13  14
HETATM   14  O1  UNL     1      20.599   2.244  52.871  1.00  0.00    -0.281 OA
HETATM   15  H4  UNL     1      19.759   2.010  53.368  1.00  0.00     0.245 HD
ENDBRANCH  13  14
BRANCH  13  16
HETATM   16  C7  UNL     1      21.108   0.573  51.340  1.00  0.00     0.121 C 
HETATM   17  C8  UNL     1      21.407   1.232  50.235  1.00  0.00    -0.005 C 
BRANCH  17  18
HETATM   18  C9  UNL     1      21.430   1.093  48.752  1.00  0.00     0.048 C 
BRANCH  18  19
HETATM   19  C10 UNL     1      21.993   2.349  48.166  1.00  0.00     0.123 C 
BRANCH  19  20
HETATM   20  N6  UNL     1      23.345   2.532  48.669  1.00  0.00    -0.390 N 
HETATM   21  H11 UNL     1      24.059   1.765  48.659  1.00  0.00     0.159 HD
BRANCH  20  22
HETATM   22  C11 UNL     1      23.714   3.801  49.198  1.00  0.00     0.029 A 
HETATM   23  C12 UNL     1      25.033   4.159  49.324  1.00  0.00     0.029 A 
HETATM   24  C13 UNL     1      25.369   5.397  49.841  1.00  0.00     0.004 A 
HETATM   25  C14 UNL     1      24.389   6.299  50.239  1.00  0.00     0.019 A 
HETATM   26  C15 UNL     1      23.050   5.973  50.126  1.00  0.00     0.013 A 
HETATM   27 BR1  UNL     1      21.653   7.171  50.656  1.00  0.00    -0.051 Br
HETATM   28  C16 UNL     1      22.778   4.710  49.598  1.00  0.00     0.048 A 
ENDBRANCH  20  22
ENDBRANCH  19  20
ENDBRANCH  18  19
ENDBRANCH  17  18
ENDBRANCH  13  16
ENDBRANCH  10  13
TORSDOF 7
ENDMDL
MODEL 8
REMARK VINA RESULT:      -7.3      3.213      5.822
REMARK  7 active torsions:
REMARK  status: ('A' for Active; 'I' for Inactive)
REMARK    1  A    between atoms: C6_10  and  N5_11 
REMARK    2  A    between atoms: N5_11  and  O1_12 
REMARK    3  A    between atoms: N5_11  and  C7_13 
REMARK    4  A    between atoms: C8_14  and  C9_15 
REMARK    5  A    between atoms: C9_15  and  C10_16 
REMARK    6  A    between atoms: C10_16  and  N6_17 
REMARK    7  A    between atoms: N6_17  and  C11_18 
ROOT
HETATM    1  N1  UNL     1      16.505   1.443  50.222  1.00  0.00    -0.192 NA
HETATM    2  C1  UNL     1      17.350   1.032  50.924  1.00  0.00     0.097 C 
HETATM    3  C2  UNL     1      18.390   0.512  51.775  1.00  0.00     0.044 A 
HETATM    4  C3  UNL     1      18.125  -0.586  52.483  1.00  0.00     0.135 A 
HETATM    5  N2  UNL     1      19.131  -1.133  53.337  1.00  0.00    -0.262 NA
HETATM    6  C4  UNL     1      20.287  -0.592  53.443  1.00  0.00     0.066 A 
HETATM    7  C5  UNL     1      21.218  -1.284  54.375  1.00  0.00     0.233 A 
HETATM    8  N3  UNL     1      22.474  -0.598  54.415  1.00  0.00    -0.185 NA
HETATM    9  N4  UNL     1      22.733   0.430  53.756  1.00  0.00    -0.134 NA
HETATM   10  C6  UNL     1      21.846   1.095  52.865  1.00  0.00     0.184 A 
HETATM   11  C17 UNL     1      20.638   0.608  52.697  1.00  0.00     0.023 A 
HETATM   12  C18 UNL     1      19.683   1.264  51.780  1.00  0.00     0.096 A 
ENDROOT
BRANCH  10  13
HETATM   13  N5  UNL     1      22.308   2.260  52.193  1.00  0.00    -0.215 N 
BRANCH  13  14
HETATM   14  O1  UNL     1      21.997   3.566  52.272  1.00  0.00    -0.281 OA
HETATM   15  H4  UNL     1      21.611   3.682  53.191  1.00  0.00     0.245 HD
ENDBRANCH  13  14
BRANCH  13  16
HETATM   16  C7  UNL     1      23.322   1.972  51.227  1.00  0.00     0.121 C 
HETATM   17  C8  UNL     1      24.190   2.830  50.724  1.00  0.00    -0.005 C 
BRANCH  17  18
HETATM   18  C9  UNL     1      25.326   2.931  49.764  1.00  0.00     0.048 C 
BRANCH  18  19
HETATM   19  C10 UNL     1      26.569   3.257  50.531  1.00  0.00     0.123 C 
BRANCH  19  20
HETATM   20  N6  UNL     1      26.360   2.903  51.927  1.00  0.00    -0.390 N 
HETATM   21  H11 UNL     1      25.617   3.349  52.516  1.00  0.00     0.159 HD
BRANCH  20  22
HETATM   22  C11 UNL     1      27.196   1.913  52.515  1.00  0.00     0.029 A 
HETATM   23  C12 UNL     1      28.281   2.266  53.279  1.00  0.00     0.029 A 
HETATM   24  C13 UNL     1      29.080   1.287  53.841  1.00  0.00     0.004 A 
HETATM   25  C14 UNL     1      28.807  -0.062  53.649  1.00  0.00     0.019 A 
HETATM   26  C15 UNL     1      27.723  -0.454  52.885  1.00  0.00     0.013 A 
HETATM   27 BR1  UNL     1      27.294  -2.296  52.582  1.00  0.00    -0.051 Br
HETATM   28  C16 UNL     1      26.957   0.581  52.346  1.00  0.00     0.048 A 
ENDBRANCH  20  22
ENDBRANCH  19  20
ENDBRANCH  18  19
ENDBRANCH  17  18
ENDBRANCH  13  16
ENDBRANCH  10  13
TORSDOF 7
ENDMDL
MODEL 9
REMARK VINA RESULT:      -7.3      5.580      9.749
REMARK  7 active torsions:
REMARK  status: ('A' for Active; 'I' for Inactive)
REMARK    1  A    between atoms: C6_10  and  N5_11 
REMARK    2  A    between atoms: N5_11  and  O1_12 
REMARK    3  A    between atoms: N5_11  and  C7_13 
REMARK    4  A    between atoms: C8_14  and  C9_15 
REMARK    5  A    between atoms: C9_15  and  C10_16 
REMARK    6  A    between atoms: C10_16  and  N6_17 
REMARK    7  A    between atoms: N6_17  and  C11_18 
ROOT
HETATM    1  N1  UNL     1      30.584  12.089  48.139  1.00  0.00    -0.192 NA
HETATM    2  C1  UNL     1      30.884  10.957  48.071  1.00  0.00     0.097 C 
HETATM    3  C2  UNL     1      31.260   9.568  48.004  1.00  0.00     0.044 A 
HETATM    4  C3  UNL     1      32.559   9.276  47.929  1.00  0.00     0.135 A 
HETATM    5  N2  UNL     1      32.972   7.911  47.862  1.00  0.00    -0.262 NA
HETATM    6  C4  UNL     1      32.122   6.952  47.873  1.00  0.00     0.066 A 
HETATM    7  C5  UNL     1      32.716   5.590  47.797  1.00  0.00     0.233 A 
HETATM    8  N3  UNL     1      31.681   4.601  47.815  1.00  0.00    -0.185 NA
HETATM    9  N4  UNL     1      30.462   4.862  47.886  1.00  0.00    -0.134 NA
HETATM   10  C6  UNL     1      29.890   6.162  47.959  1.00  0.00     0.184 A 
HETATM   11  C17 UNL     1      30.690   7.205  47.953  1.00  0.00     0.023 A 
HETATM   12  C18 UNL     1      30.142   8.574  48.028  1.00  0.00     0.096 A 
ENDROOT
BRANCH  10  13
HETATM   13  N5  UNL     1      28.475   6.277  48.035  1.00  0.00    -0.215 N 
BRANCH  13  14
HETATM   14  O1  UNL     1      27.601   7.251  47.722  1.00  0.00    -0.281 OA
HETATM   15  H4  UNL     1      27.834   7.510  46.780  1.00  0.00     0.245 HD
ENDBRANCH  13  14
BRANCH  13  16
HETATM   16  C7  UNL     1      27.856   5.100  48.559  1.00  0.00     0.121 C 
HETATM   17  C8  UNL     1      26.650   5.021  49.093  1.00  0.00    -0.005 C 
BRANCH  17  18
HETATM   18  C9  UNL     1      25.698   4.059  49.714  1.00  0.00     0.048 C 
BRANCH  18  19
HETATM   19  C10 UNL     1      26.475   2.896  50.244  1.00  0.00     0.123 C 
BRANCH  19  20
HETATM   20  N6  UNL     1      26.504   2.980  51.697  1.00  0.00    -0.390 N 
HETATM   21  H11 UNL     1      26.016   3.742  52.227  1.00  0.00     0.159 HD
BRANCH  20  22
HETATM   22  C11 UNL     1      27.223   1.992  52.426  1.00  0.00     0.029 A 
HETATM   23  C12 UNL     1      28.183   2.346  53.341  1.00  0.00     0.029 A 
HETATM   24  C13 UNL     1      28.870   1.369  54.038  1.00  0.00     0.004 A 
HETATM   25  C14 UNL     1      28.606   0.020  53.833  1.00  0.00     0.019 A 
HETATM   26  C15 UNL     1      27.645  -0.374  52.919  1.00  0.00     0.013 A 
HETATM   27 BR1  UNL     1      27.236  -2.216  52.590  1.00  0.00    -0.051 Br
HETATM   28  C16 UNL     1      26.989   0.660  52.249  1.00  0.00     0.048 A 
ENDBRANCH  20  22
ENDBRANCH  19  20
ENDBRANCH  18  19
ENDBRANCH  17  18
ENDBRANCH  13  16
ENDBRANCH  10  13
TORSDOF 7
ENDMDL
