MODEL 1
REMARK VINA RESULT:      -8.1      0.000      0.000
REMARK  4 active torsions:
REMARK  status: ('A' for Active; 'I' for Inactive)
REMARK    1  A    between atoms: C2_2  and  C3_3 
REMARK       I    between atoms: C3_3  and  N1_5 
REMARK    2  A    between atoms: N1_5  and  C4_6 
REMARK    3  A    between atoms: C9_13  and  N4_14 
REMARK    4  A    between atoms: N4_14  and  C10_15 
ROOT
HETATM    1  C4  UNL     1      25.246  -0.786  54.318  1.00  0.00     0.036 A 
HETATM    2  C5  UNL     1      24.523  -1.333  55.320  1.00  0.00     0.032 A 
HETATM    3  C6  UNL     1      23.152  -1.225  55.462  1.00  0.00     0.035 A 
HETATM    4  C7  UNL     1      22.434  -0.501  54.510  1.00  0.00     0.072 A 
HETATM    5  N2  UNL     1      21.093  -0.399  54.614  1.00  0.00    -0.241 NA
HETATM    6  C8  UNL     1      20.432   0.299  53.653  1.00  0.00     0.236 A 
HETATM    7  N3  UNL     1      21.103   0.859  52.643  1.00  0.00    -0.224 NA
HETATM    8  C9  UNL     1      22.440   0.801  52.472  1.00  0.00     0.142 A 
HETATM    9  C15 UNL     1      23.126   0.082  53.459  1.00  0.00     0.041 A 
HETATM   10  C16 UNL     1      24.471  -0.075  53.399  1.00  0.00     0.047 A 
ENDROOT
BRANCH   8  11
HETATM   11  N4  UNL     1      23.115   1.384  51.373  1.00  0.00    -0.341 N 
HETATM   12  H8  UNL     1      24.126   1.573  51.627  1.00  0.00     0.167 HD
BRANCH  11  13
HETATM   13  C10 UNL     1      22.681   1.755  50.086  1.00  0.00     0.029 A 
HETATM   14  C11 UNL     1      23.179   2.787  49.386  1.00  0.00     0.006 A 
HETATM   15  C12 UNL     1      22.450   2.843  48.081  1.00  0.00     0.056 A 
HETATM   16  C13 UNL     1      21.494   1.700  48.187  1.00  0.00    -0.021 A 
HETATM   17  C14 UNL     1      21.631   1.075  49.342  1.00  0.00     0.025 A 
ENDBRANCH  11  13
ENDBRANCH   8  11
BRANCH   1  18
HETATM   18  N1  UNL     1      26.622  -0.845  54.085  1.00  0.00    -0.324 N 
HETATM   19  C3  UNL     1      27.600   0.117  54.421  1.00  0.00     0.244 C 
HETATM   20  O1  UNL     1      27.250   1.164  54.994  1.00  0.00    -0.268 OA
HETATM   21  H4  UNL     1      27.072  -1.661  53.615  1.00  0.00     0.169 HD
BRANCH  19  22
HETATM   22  C2  UNL     1      29.018  -0.001  54.154  1.00  0.00     0.064 C 
HETATM   23  C1  UNL     1      29.555  -1.059  53.608  1.00  0.00     0.017 C 
ENDBRANCH  19  22
ENDBRANCH   1  18
TORSDOF 4
ENDMDL
MODEL 2
REMARK VINA RESULT:      -7.9      2.228      2.981
REMARK  4 active torsions:
REMARK  status: ('A' for Active; 'I' for Inactive)
REMARK    1  A    between atoms: C2_2  and  C3_3 
REMARK       I    between atoms: C3_3  and  N1_5 
REMARK    2  A    between atoms: N1_5  and  C4_6 
REMARK    3  A    between atoms: C9_13  and  N4_14 
REMARK    4  A    between atoms: N4_14  and  C10_15 
ROOT
HETATM    1  C4  UNL     1      25.092   0.205  53.170  1.00  0.00     0.036 A 
HETATM    2  C5  UNL     1      23.985  -0.550  53.347  1.00  0.00     0.032 A 
HETATM    3  C6  UNL     1      22.687  -0.113  53.165  1.00  0.00     0.035 A 
HETATM    4  C7  UNL     1      22.473   1.207  52.766  1.00  0.00     0.072 A 
HETATM    5  N2  UNL     1      21.216   1.651  52.561  1.00  0.00    -0.241 NA
HETATM    6  C8  UNL     1      21.056   2.938  52.153  1.00  0.00     0.236 A 
HETATM    7  N3  UNL     1      22.119   3.725  51.964  1.00  0.00    -0.224 NA
HETATM    8  C9  UNL     1      23.403   3.352  52.149  1.00  0.00     0.142 A 
HETATM    9  C15 UNL     1      23.573   2.027  52.569  1.00  0.00     0.041 A 
HETATM   10  C16 UNL     1      24.811   1.515  52.771  1.00  0.00     0.047 A 
ENDROOT
BRANCH   8  11
HETATM   11  N4  UNL     1      24.506   4.205  51.913  1.00  0.00    -0.341 N 
HETATM   12  H8  UNL     1      24.720   4.771  52.783  1.00  0.00     0.167 HD
BRANCH  11  13
HETATM   13  C10 UNL     1      25.300   4.431  50.772  1.00  0.00     0.029 A 
HETATM   14  C11 UNL     1      25.218   5.522  49.994  1.00  0.00     0.006 A 
HETATM   15  C12 UNL     1      26.221   5.372  48.895  1.00  0.00     0.056 A 
HETATM   16  C13 UNL     1      26.845   4.048  49.195  1.00  0.00    -0.021 A 
HETATM   17  C14 UNL     1      26.313   3.510  50.278  1.00  0.00     0.025 A 
ENDBRANCH  11  13
ENDBRANCH   8  11
BRANCH   1  18
HETATM   18  N1  UNL     1      26.436  -0.145  53.320  1.00  0.00    -0.324 N 
HETATM   19  C3  UNL     1      27.313   0.215  54.366  1.00  0.00     0.244 C 
HETATM   20  O1  UNL     1      26.892   0.931  55.293  1.00  0.00    -0.268 OA
HETATM   21  H4  UNL     1      26.935  -0.744  52.626  1.00  0.00     0.169 HD
BRANCH  19  22
HETATM   22  C2  UNL     1      28.702  -0.181  54.469  1.00  0.00     0.064 C 
HETATM   23  C1  UNL     1      29.324  -0.848  53.533  1.00  0.00     0.017 C 
ENDBRANCH  19  22
ENDBRANCH   1  18
TORSDOF 4
ENDMDL
MODEL 3
REMARK VINA RESULT:      -7.9      2.895      5.387
REMARK  4 active torsions:
REMARK  status: ('A' for Active; 'I' for Inactive)
REMARK    1  A    between atoms: C2_2  and  C3_3 
REMARK       I    between atoms: C3_3  and  N1_5 
REMARK    2  A    between atoms: N1_5  and  C4_6 
REMARK    3  A    between atoms: C9_13  and  N4_14 
REMARK    4  A    between atoms: N4_14  and  C10_15 
ROOT
HETATM    1  C4  UNL     1      24.320  -0.309  53.716  1.00  0.00     0.036 A 
HETATM    2  C5  UNL     1      25.046  -0.625  54.810  1.00  0.00     0.032 A 
HETATM    3  C6  UNL     1      26.315  -0.151  55.087  1.00  0.00     0.035 A 
HETATM    4  C7  UNL     1      26.915   0.726  54.184  1.00  0.00     0.072 A 
HETATM    5  N2  UNL     1      28.144   1.219  54.442  1.00  0.00    -0.241 NA
HETATM    6  C8  UNL     1      28.682   2.086  53.544  1.00  0.00     0.236 A 
HETATM    7  N3  UNL     1      28.003   2.430  52.445  1.00  0.00    -0.224 NA
HETATM    8  C9  UNL     1      26.774   1.979  52.120  1.00  0.00     0.142 A 
HETATM    9  C15 UNL     1      26.215   1.085  53.042  1.00  0.00     0.041 A 
HETATM   10  C16 UNL     1      24.975   0.572  52.851  1.00  0.00     0.047 A 
ENDROOT
BRANCH   8  11
HETATM   11  N4  UNL     1      26.072   2.386  50.960  1.00  0.00    -0.341 N 
HETATM   12  H8  UNL     1      25.516   1.573  50.569  1.00  0.00     0.167 HD
BRANCH  11  13
HETATM   13  C10 UNL     1      26.018   3.612  50.270  1.00  0.00     0.029 A 
HETATM   14  C11 UNL     1      26.896   3.990  49.326  1.00  0.00     0.006 A 
HETATM   15  C12 UNL     1      26.491   5.348  48.849  1.00  0.00     0.056 A 
HETATM   16  C13 UNL     1      25.279   5.640  49.673  1.00  0.00    -0.021 A 
HETATM   17  C14 UNL     1      25.009   4.637  50.489  1.00  0.00     0.025 A 
ENDBRANCH  11  13
ENDBRANCH   8  11
BRANCH   1  18
HETATM   18  N1  UNL     1      23.037  -0.726  53.354  1.00  0.00    -0.324 N 
HETATM   19  C3  UNL     1      21.947  -1.014  54.204  1.00  0.00     0.244 C 
HETATM   20  O1  UNL     1      22.090  -0.900  55.435  1.00  0.00    -0.268 OA
HETATM   21  H4  UNL     1      22.759  -0.867  52.357  1.00  0.00     0.169 HD
BRANCH  19  22
HETATM   22  C2  UNL     1      20.635  -1.444  53.768  1.00  0.00     0.064 C 
HETATM   23  C1  UNL     1      19.695  -0.611  53.406  1.00  0.00     0.017 C 
ENDBRANCH  19  22
ENDBRANCH   1  18
TORSDOF 4
ENDMDL
MODEL 4
REMARK VINA RESULT:      -7.9      2.609      6.116
REMARK  4 active torsions:
REMARK  status: ('A' for Active; 'I' for Inactive)
REMARK    1  A    between atoms: C2_2  and  C3_3 
REMARK       I    between atoms: C3_3  and  N1_5 
REMARK    2  A    between atoms: N1_5  and  C4_6 
REMARK    3  A    between atoms: C9_13  and  N4_14 
REMARK    4  A    between atoms: N4_14  and  C10_15 
ROOT
HETATM    1  C4  UNL     1      24.296   3.265  51.728  1.00  0.00     0.036 A 
HETATM    2  C5  UNL     1      22.968   3.017  51.735  1.00  0.00     0.032 A 
HETATM    3  C6  UNL     1      22.362   1.950  52.371  1.00  0.00     0.035 A 
HETATM    4  C7  UNL     1      23.160   1.042  53.067  1.00  0.00     0.072 A 
HETATM    5  N2  UNL     1      22.591   0.004  53.713  1.00  0.00    -0.241 NA
HETATM    6  C8  UNL     1      23.405  -0.843  54.396  1.00  0.00     0.236 A 
HETATM    7  N3  UNL     1      24.726  -0.641  54.418  1.00  0.00    -0.224 NA
HETATM    8  C9  UNL     1      25.366   0.372  53.798  1.00  0.00     0.142 A 
HETATM    9  C15 UNL     1      24.531   1.248  53.093  1.00  0.00     0.041 A 
HETATM   10  C16 UNL     1      25.040   2.322  52.442  1.00  0.00     0.047 A 
ENDROOT
BRANCH   8  11
HETATM   11  N4  UNL     1      26.765   0.571  53.866  1.00  0.00    -0.341 N 
HETATM   12  H8  UNL     1      26.977   1.585  54.091  1.00  0.00     0.167 HD
BRANCH  11  13
HETATM   13  C10 UNL     1      27.855  -0.298  53.668  1.00  0.00     0.029 A 
HETATM   14  C11 UNL     1      27.772  -1.491  53.058  1.00  0.00     0.006 A 
HETATM   15  C12 UNL     1      29.140  -2.096  53.057  1.00  0.00     0.056 A 
HETATM   16  C13 UNL     1      29.960  -1.059  53.754  1.00  0.00    -0.021 A 
HETATM   17  C14 UNL     1      29.217  -0.025  54.104  1.00  0.00     0.025 A 
ENDBRANCH  11  13
ENDBRANCH   8  11
BRANCH   1  18
HETATM   18  N1  UNL     1      24.997   4.313  51.127  1.00  0.00    -0.324 N 
HETATM   19  C3  UNL     1      25.748   4.279  49.932  1.00  0.00     0.244 C 
HETATM   20  O1  UNL     1      25.831   3.213  49.296  1.00  0.00    -0.268 OA
HETATM   21  H4  UNL     1      25.024   5.272  51.538  1.00  0.00     0.169 HD
BRANCH  19  22
HETATM   22  C2  UNL     1      26.456   5.403  49.355  1.00  0.00     0.064 C 
HETATM   23  C1  UNL     1      27.487   5.268  48.564  1.00  0.00     0.017 C 
ENDBRANCH  19  22
ENDBRANCH   1  18
TORSDOF 4
ENDMDL
MODEL 5
REMARK VINA RESULT:      -7.8      1.880      6.093
REMARK  4 active torsions:
REMARK  status: ('A' for Active; 'I' for Inactive)
REMARK    1  A    between atoms: C2_2  and  C3_3 
REMARK       I    between atoms: C3_3  and  N1_5 
REMARK    2  A    between atoms: N1_5  and  C4_6 
REMARK    3  A    between atoms: C9_13  and  N4_14 
REMARK    4  A    between atoms: N4_14  and  C10_15 
ROOT
HETATM    1  C4  UNL     1      22.764   0.969  51.687  1.00  0.00     0.036 A 
HETATM    2  C5  UNL     1      21.617   0.514  52.238  1.00  0.00     0.032 A 
HETATM    3  C6  UNL     1      21.532  -0.233  53.397  1.00  0.00     0.035 A 
HETATM    4  C7  UNL     1      22.708  -0.556  54.074  1.00  0.00     0.072 A 
HETATM    5  N2  UNL     1      22.651  -1.266  55.220  1.00  0.00    -0.241 NA
HETATM    6  C8  UNL     1      23.820  -1.541  55.856  1.00  0.00     0.236 A 
HETATM    7  N3  UNL     1      24.981  -1.115  55.351  1.00  0.00    -0.224 NA
HETATM    8  C9  UNL     1      25.118  -0.402  54.213  1.00  0.00     0.142 A 
HETATM    9  C15 UNL     1      23.916  -0.116  53.554  1.00  0.00     0.041 A 
HETATM   10  C16 UNL     1      23.905   0.612  52.411  1.00  0.00     0.047 A 
ENDROOT
BRANCH   8  11
HETATM   11  N4  UNL     1      26.363   0.057  53.722  1.00  0.00    -0.341 N 
HETATM   12  H8  UNL     1      26.270   1.054  53.375  1.00  0.00     0.167 HD
BRANCH  11  13
HETATM   13  C10 UNL     1      27.620  -0.566  53.603  1.00  0.00     0.029 A 
HETATM   14  C11 UNL     1      28.777  -0.025  54.018  1.00  0.00     0.006 A 
HETATM   15  C12 UNL     1      29.869  -0.998  53.706  1.00  0.00     0.056 A 
HETATM   16  C13 UNL     1      29.132  -2.128  53.064  1.00  0.00    -0.021 A 
HETATM   17  C14 UNL     1      27.837  -1.876  53.008  1.00  0.00     0.025 A 
ENDBRANCH  11  13
ENDBRANCH   8  11
BRANCH   1  18
HETATM   18  N1  UNL     1      22.950   1.731  50.532  1.00  0.00    -0.324 N 
HETATM   19  C3  UNL     1      23.063   3.135  50.429  1.00  0.00     0.244 C 
HETATM   20  O1  UNL     1      22.994   3.827  51.461  1.00  0.00    -0.268 OA
HETATM   21  H4  UNL     1      23.030   1.297  49.586  1.00  0.00     0.169 HD
BRANCH  19  22
HETATM   22  C2  UNL     1      23.258   3.872  49.198  1.00  0.00     0.064 C 
HETATM   23  C1  UNL     1      22.529   3.683  48.131  1.00  0.00     0.017 C 
ENDBRANCH  19  22
ENDBRANCH   1  18
TORSDOF 4
ENDMDL
MODEL 6
REMARK VINA RESULT:      -7.7      3.174      4.322
REMARK  4 active torsions:
REMARK  status: ('A' for Active; 'I' for Inactive)
REMARK    1  A    between atoms: C2_2  and  C3_3 
REMARK       I    between atoms: C3_3  and  N1_5 
REMARK    2  A    between atoms: N1_5  and  C4_6 
REMARK    3  A    between atoms: C9_13  and  N4_14 
REMARK    4  A    between atoms: N4_14  and  C10_15 
ROOT
HETATM    1  C4  UNL     1      26.118   0.982  52.629  1.00  0.00     0.036 A 
HETATM    2  C5  UNL     1      24.963   0.808  53.308  1.00  0.00     0.032 A 
HETATM    3  C6  UNL     1      23.772   1.451  53.030  1.00  0.00     0.035 A 
HETATM    4  C7  UNL     1      23.729   2.356  51.969  1.00  0.00     0.072 A 
HETATM    5  N2  UNL     1      22.573   2.980  51.665  1.00  0.00    -0.241 NA
HETATM    6  C8  UNL     1      22.574   3.838  50.610  1.00  0.00     0.236 A 
HETATM    7  N3  UNL     1      23.691   4.045  49.907  1.00  0.00    -0.224 NA
HETATM    8  C9  UNL     1      24.881   3.459  50.151  1.00  0.00     0.142 A 
HETATM    9  C15 UNL     1      24.886   2.574  51.237  1.00  0.00     0.041 A 
HETATM   10  C16 UNL     1      26.010   1.899  51.580  1.00  0.00     0.047 A 
ENDROOT
BRANCH   8  11
HETATM   11  N4  UNL     1      26.038   3.681  49.368  1.00  0.00    -0.341 N 
HETATM   12  H8  UNL     1      26.471   2.755  49.089  1.00  0.00     0.167 HD
BRANCH  11  13
HETATM   13  C10 UNL     1      26.684   4.860  48.948  1.00  0.00     0.029 A 
HETATM   14  C11 UNL     1      27.968   4.924  48.560  1.00  0.00     0.006 A 
HETATM   15  C12 UNL     1      28.261   6.346  48.200  1.00  0.00     0.056 A 
HETATM   16  C13 UNL     1      26.956   7.028  48.455  1.00  0.00    -0.021 A 
HETATM   17  C14 UNL     1      26.050   6.169  48.885  1.00  0.00     0.025 A 
ENDBRANCH  11  13
ENDBRANCH   8  11
BRANCH   1  18
HETATM   18  N1  UNL     1      27.361   0.377  52.827  1.00  0.00    -0.324 N 
HETATM   19  C3  UNL     1      28.444   0.855  53.597  1.00  0.00     0.244 C 
HETATM   20  O1  UNL     1      28.333   1.941  54.194  1.00  0.00    -0.268 OA
HETATM   21  H4  UNL     1      27.609  -0.540  52.394  1.00  0.00     0.169 HD
BRANCH  19  22
HETATM   22  C2  UNL     1      29.714   0.180  53.767  1.00  0.00     0.064 C 
HETATM   23  C1  UNL     1      29.846  -1.118  53.703  1.00  0.00     0.017 C 
ENDBRANCH  19  22
ENDBRANCH   1  18
TORSDOF 4
ENDMDL
MODEL 7
REMARK VINA RESULT:      -7.5      1.912      4.544
REMARK  4 active torsions:
REMARK  status: ('A' for Active; 'I' for Inactive)
REMARK    1  A    between atoms: C2_2  and  C3_3 
REMARK       I    between atoms: C3_3  and  N1_5 
REMARK    2  A    between atoms: N1_5  and  C4_6 
REMARK    3  A    between atoms: C9_13  and  N4_14 
REMARK    4  A    between atoms: N4_14  and  C10_15 
ROOT
HETATM    1  C4  UNL     1      26.380   1.677  51.732  1.00  0.00     0.036 A 
HETATM    2  C5  UNL     1      26.714   2.840  51.132  1.00  0.00     0.032 A 
HETATM    3  C6  UNL     1      25.839   3.663  50.449  1.00  0.00     0.035 A 
HETATM    4  C7  UNL     1      24.498   3.287  50.357  1.00  0.00     0.072 A 
HETATM    5  N2  UNL     1      23.620   4.083  49.714  1.00  0.00    -0.241 NA
HETATM    6  C8  UNL     1      22.320   3.687  49.667  1.00  0.00     0.236 A 
HETATM    7  N3  UNL     1      21.940   2.543  50.245  1.00  0.00    -0.224 NA
HETATM    8  C9  UNL     1      22.759   1.697  50.903  1.00  0.00     0.142 A 
HETATM    9  C15 UNL     1      24.099   2.101  50.955  1.00  0.00     0.041 A 
HETATM   10  C16 UNL     1      25.026   1.356  51.605  1.00  0.00     0.047 A 
ENDROOT
BRANCH   8  11
HETATM   11  N4  UNL     1      22.316   0.507  51.528  1.00  0.00    -0.341 N 
HETATM   12  H8  UNL     1      22.278  -0.281  50.820  1.00  0.00     0.167 HD
BRANCH  11  13
HETATM   13  C10 UNL     1      21.917   0.224  52.848  1.00  0.00     0.029 A 
HETATM   14  C11 UNL     1      20.874   0.801  53.465  1.00  0.00     0.006 A 
HETATM   15  C12 UNL     1      20.792   0.232  54.845  1.00  0.00     0.056 A 
HETATM   16  C13 UNL     1      21.939  -0.725  54.877  1.00  0.00    -0.021 A 
HETATM   17  C14 UNL     1      22.584  -0.727  53.724  1.00  0.00     0.025 A 
ENDBRANCH  11  13
ENDBRANCH   8  11
BRANCH   1  18
HETATM   18  N1  UNL     1      27.185   0.787  52.448  1.00  0.00    -0.324 N 
HETATM   19  C3  UNL     1      27.865   1.019  53.663  1.00  0.00     0.244 C 
HETATM   20  O1  UNL     1      27.774   2.134  54.207  1.00  0.00    -0.268 OA
HETATM   21  H4  UNL     1      27.359  -0.190  52.122  1.00  0.00     0.169 HD
BRANCH  19  22
HETATM   22  C2  UNL     1      28.687   0.052  54.361  1.00  0.00     0.064 C 
HETATM   23  C1  UNL     1      29.691  -0.567  53.801  1.00  0.00     0.017 C 
ENDBRANCH  19  22
ENDBRANCH   1  18
TORSDOF 4
ENDMDL
MODEL 8
REMARK VINA RESULT:      -7.2      2.434      4.080
REMARK  4 active torsions:
REMARK  status: ('A' for Active; 'I' for Inactive)
REMARK    1  A    between atoms: C2_2  and  C3_3 
REMARK       I    between atoms: C3_3  and  N1_5 
REMARK    2  A    between atoms: N1_5  and  C4_6 
REMARK    3  A    between atoms: C9_13  and  N4_14 
REMARK    4  A    between atoms: N4_14  and  C10_15 
ROOT
HETATM    1  C4  UNL     1      26.314   0.928  52.325  1.00  0.00     0.036 A 
HETATM    2  C5  UNL     1      27.084   0.618  53.391  1.00  0.00     0.032 A 
HETATM    3  C6  UNL     1      26.650  -0.059  54.515  1.00  0.00     0.035 A 
HETATM    4  C7  UNL     1      25.317  -0.466  54.581  1.00  0.00     0.072 A 
HETATM    5  N2  UNL     1      24.874  -1.146  55.658  1.00  0.00    -0.241 NA
HETATM    6  C8  UNL     1      23.574  -1.541  55.670  1.00  0.00     0.236 A 
HETATM    7  N3  UNL     1      22.772  -1.257  54.639  1.00  0.00    -0.224 NA
HETATM    8  C9  UNL     1      23.141  -0.583  53.531  1.00  0.00     0.142 A 
HETATM    9  C15 UNL     1      24.481  -0.174  53.514  1.00  0.00     0.041 A 
HETATM   10  C16 UNL     1      24.992   0.493  52.451  1.00  0.00     0.047 A 
ENDROOT
BRANCH   8  11
HETATM   11  N4  UNL     1      22.271  -0.324  52.445  1.00  0.00    -0.341 N 
HETATM   12  H8  UNL     1      22.491  -0.977  51.641  1.00  0.00     0.167 HD
BRANCH  11  13
HETATM   13  C10 UNL     1      21.243   0.621  52.262  1.00  0.00     0.029 A 
HETATM   14  C11 UNL     1      20.045   0.343  51.722  1.00  0.00     0.006 A 
HETATM   15  C12 UNL     1      19.252   1.610  51.704  1.00  0.00     0.056 A 
HETATM   16  C13 UNL     1      20.195   2.600  52.306  1.00  0.00    -0.021 A 
HETATM   17  C14 UNL     1      21.340   2.026  52.627  1.00  0.00     0.025 A 
ENDBRANCH  11  13
ENDBRANCH   8  11
BRANCH   1  18
HETATM   18  N1  UNL     1      26.659   1.596  51.148  1.00  0.00    -0.324 N 
HETATM   19  C3  UNL     1      26.176   2.839  50.684  1.00  0.00     0.244 C 
HETATM   20  O1  UNL     1      25.339   3.458  51.364  1.00  0.00    -0.268 OA
HETATM   21  H4  UNL     1      27.351   1.207  50.470  1.00  0.00     0.169 HD
BRANCH  19  22
HETATM   22  C2  UNL     1      26.575   3.485  49.450  1.00  0.00     0.064 C 
HETATM   23  C1  UNL     1      26.442   4.768  49.242  1.00  0.00     0.017 C 
ENDBRANCH  19  22
ENDBRANCH   1  18
TORSDOF 4
ENDMDL
MODEL 9
REMARK VINA RESULT:      -7.1      2.851      5.602
REMARK  4 active torsions:
REMARK  status: ('A' for Active; 'I' for Inactive)
REMARK    1  A    between atoms: C2_2  and  C3_3 
REMARK       I    between atoms: C3_3  and  N1_5 
REMARK    2  A    between atoms: N1_5  and  C4_6 
REMARK    3  A    between atoms: C9_13  and  N4_14 
REMARK    4  A    between atoms: N4_14  and  C10_15 
ROOT
HETATM    1  C4  UNL     1      22.373   0.216  53.179  1.00  0.00     0.036 A 
HETATM    2  C5  UNL     1      22.897  -0.771  53.939  1.00  0.00     0.032 A 
HETATM    3  C6  UNL     1      24.221  -0.859  54.325  1.00  0.00     0.035 A 
HETATM    4  C7  UNL     1      25.108   0.137  53.914  1.00  0.00     0.072 A 
HETATM    5  N2  UNL     1      26.401   0.084  54.296  1.00  0.00    -0.241 NA
HETATM    6  C8  UNL     1      27.224   1.086  53.889  1.00  0.00     0.236 A 
HETATM    7  N3  UNL     1      26.754   2.085  53.136  1.00  0.00    -0.224 NA
HETATM    8  C9  UNL     1      25.477   2.204  52.715  1.00  0.00     0.142 A 
HETATM    9  C15 UNL     1      24.624   1.174  53.132  1.00  0.00     0.041 A 
HETATM   10  C16 UNL     1      23.310   1.181  52.801  1.00  0.00     0.047 A 
ENDROOT
BRANCH   8  11
HETATM   11  N4  UNL     1      25.007   3.291  51.941  1.00  0.00    -0.341 N 
HETATM   12  H8  UNL     1      24.086   3.643  52.330  1.00  0.00     0.167 HD
BRANCH  11  13
HETATM   13  C10 UNL     1      25.518   3.924  50.791  1.00  0.00     0.029 A 
HETATM   14  C11 UNL     1      25.014   5.048  50.257  1.00  0.00     0.006 A 
HETATM   15  C12 UNL     1      25.835   5.385  49.053  1.00  0.00     0.056 A 
HETATM   16  C13 UNL     1      26.843   4.282  49.021  1.00  0.00    -0.021 A 
HETATM   17  C14 UNL     1      26.658   3.444  50.024  1.00  0.00     0.025 A 
ENDBRANCH  11  13
ENDBRANCH   8  11
BRANCH   1  18
HETATM   18  N1  UNL     1      21.057   0.396  52.746  1.00  0.00    -0.324 N 
HETATM   19  C3  UNL     1      20.567   0.348  51.423  1.00  0.00     0.244 C 
HETATM   20  O1  UNL     1      21.358   0.123  50.489  1.00  0.00    -0.268 OA
HETATM   21  H4  UNL     1      20.275   0.592  53.410  1.00  0.00     0.169 HD
BRANCH  19  22
HETATM   22  C2  UNL     1      19.186   0.542  51.034  1.00  0.00     0.064 C 
HETATM   23  C1  UNL     1      18.177   0.127  51.753  1.00  0.00     0.017 C 
ENDBRANCH  19  22
ENDBRANCH   1  18
TORSDOF 4
ENDMDL
