MODEL 1
REMARK VINA RESULT:      -9.2      0.000      0.000
REMARK  4 active torsions:
REMARK  status: ('A' for Active; 'I' for Inactive)
REMARK    1  A    between atoms: O1_1  and  C1_2 
REMARK    2  A    between atoms: C5_6  and  C6_7 
REMARK    3  A    between atoms: C6_7  and  C7_8 
REMARK    4  A    between atoms: C8_10  and  N2_11 
ROOT
HETATM    1  C7  UNL     1      24.938   2.282  50.793  1.00  0.00     0.133 A 
HETATM    2  N1  UNL     1      26.063   1.864  51.390  1.00  0.00    -0.213 NA
HETATM    3  C8  UNL     1      26.030   0.956  52.407  1.00  0.00     0.164 A 
HETATM    4  C13 UNL     1      24.810   0.444  52.846  1.00  0.00     0.153 A 
HETATM    5  O3  UNL     1      24.473  -0.424  53.785  1.00  0.00    -0.285 OA
HETATM    6  C14 UNL     1      23.150  -0.567  53.798  1.00  0.00     0.182 A 
HETATM    7  N3  UNL     1      22.341  -1.340  54.577  1.00  0.00    -0.236 NA
HETATM    8  C15 UNL     1      20.991  -1.299  54.380  1.00  0.00     0.119 A 
HETATM    9  C16 UNL     1      20.410  -0.499  53.414  1.00  0.00     0.020 A 
HETATM   10  C17 UNL     1      21.232   0.282  52.627  1.00  0.00     0.020 A 
HETATM   11  C18 UNL     1      22.606   0.249  52.819  1.00  0.00     0.049 A 
HETATM   12  C19 UNL     1      23.662   0.895  52.211  1.00  0.00     0.111 A 
HETATM   13  N4  UNL     1      23.735   1.797  51.205  1.00  0.00    -0.229 NA
ENDROOT
BRANCH   1  14
HETATM   14  C6  UNL     1      24.948   3.269  49.685  1.00  0.00     0.114 C 
BRANCH  14  15
HETATM   15  C5  UNL     1      23.946   4.354  49.916  1.00  0.00    -0.070 C 
HETATM   16  C4  UNL     1      23.211   4.867  48.936  1.00  0.00    -0.019 C 
HETATM   17  C3  UNL     1      22.239   5.957  49.310  1.00  0.00     0.057 C 
HETATM   18  C2  UNL     1      23.012   6.873  50.218  1.00  0.00     0.009 C 
HETATM   19  C1  UNL     1      23.757   6.360  51.180  1.00  0.00     0.043 C 
HETATM   20  C20 UNL     1      23.783   4.860  51.307  1.00  0.00     0.098 C 
BRANCH  19  21
HETATM   21  O1  UNL     1      24.515   7.114  52.080  1.00  0.00    -0.365 OA
HETATM   22  H1  UNL     1      24.949   7.990  51.846  1.00  0.00     0.217 HD
ENDBRANCH  19  21
ENDBRANCH  14  15
ENDBRANCH   1  14
BRANCH   3  23
HETATM   23  N2  UNL     1      27.232   0.521  53.031  1.00  0.00    -0.359 N 
HETATM   24  C9  UNL     1      27.887   1.631  53.709  1.00  0.00     0.151 C 
HETATM   25  C10 UNL     1      29.201   1.209  54.280  1.00  0.00     0.187 C 
HETATM   26  O2  UNL     1      29.252  -0.144  54.582  1.00  0.00    -0.388 OA
HETATM   27  C11 UNL     1      29.120  -0.930  53.440  1.00  0.00     0.187 C 
HETATM   28  C12 UNL     1      27.699  -0.867  52.968  1.00  0.00     0.151 C 
ENDBRANCH   3  23
TORSDOF 4
ENDMDL
MODEL 2
REMARK VINA RESULT:      -9.0      2.104      4.933
REMARK  4 active torsions:
REMARK  status: ('A' for Active; 'I' for Inactive)
REMARK    1  A    between atoms: O1_1  and  C1_2 
REMARK    2  A    between atoms: C5_6  and  C6_7 
REMARK    3  A    between atoms: C6_7  and  C7_8 
REMARK    4  A    between atoms: C8_10  and  N2_11 
ROOT
HETATM    1  C7  UNL     1      23.749   0.443  52.927  1.00  0.00     0.133 A 
HETATM    2  N1  UNL     1      24.910  -0.164  53.207  1.00  0.00    -0.213 NA
HETATM    3  C8  UNL     1      26.087   0.277  52.676  1.00  0.00     0.164 A 
HETATM    4  C13 UNL     1      26.098   1.379  51.822  1.00  0.00     0.153 A 
HETATM    5  O3  UNL     1      27.056   2.018  51.173  1.00  0.00    -0.285 OA
HETATM    6  C14 UNL     1      26.526   3.024  50.482  1.00  0.00     0.182 A 
HETATM    7  N3  UNL     1      27.103   3.955  49.670  1.00  0.00    -0.236 NA
HETATM    8  C15 UNL     1      26.316   4.895  49.072  1.00  0.00     0.119 A 
HETATM    9  C16 UNL     1      24.947   4.940  49.259  1.00  0.00     0.020 A 
HETATM   10  C17 UNL     1      24.367   3.997  50.082  1.00  0.00     0.020 A 
HETATM   11  C18 UNL     1      25.157   3.036  50.696  1.00  0.00     0.049 A 
HETATM   12  C19 UNL     1      24.881   1.988  51.550  1.00  0.00     0.111 A 
HETATM   13  N4  UNL     1      23.734   1.522  52.096  1.00  0.00    -0.229 NA
ENDROOT
BRANCH   1  14
HETATM   14  C6  UNL     1      22.457  -0.017  53.492  1.00  0.00     0.114 C 
BRANCH  14  15
HETATM   15  C5  UNL     1      21.305   0.438  52.654  1.00  0.00    -0.070 C 
HETATM   16  C4  UNL     1      21.100  -0.011  51.421  1.00  0.00    -0.019 C 
HETATM   17  C3  UNL     1      19.899   0.532  50.688  1.00  0.00     0.057 C 
HETATM   18  C2  UNL     1      19.924   2.013  50.945  1.00  0.00     0.009 C 
HETATM   19  C1  UNL     1      20.148   2.458  52.168  1.00  0.00     0.043 C 
HETATM   20  C20 UNL     1      20.367   1.431  53.246  1.00  0.00     0.098 C 
BRANCH  19  21
HETATM   21  O1  UNL     1      20.192   3.810  52.522  1.00  0.00    -0.365 OA
HETATM   22  H1  UNL     1      21.026   4.277  52.832  1.00  0.00     0.217 HD
ENDBRANCH  19  21
ENDBRANCH  14  15
ENDBRANCH   1  14
BRANCH   3  23
HETATM   23  N2  UNL     1      27.312  -0.377  52.982  1.00  0.00    -0.359 N 
HETATM   24  C9  UNL     1      27.227  -1.797  52.667  1.00  0.00     0.151 C 
HETATM   25  C10 UNL     1      28.470  -2.512  53.080  1.00  0.00     0.187 C 
HETATM   26  O2  UNL     1      29.590  -1.693  53.093  1.00  0.00    -0.388 OA
HETATM   27  C11 UNL     1      29.467  -0.672  54.034  1.00  0.00     0.187 C 
HETATM   28  C12 UNL     1      28.470   0.330  53.537  1.00  0.00     0.151 C 
ENDBRANCH   3  23
TORSDOF 4
ENDMDL
MODEL 3
REMARK VINA RESULT:      -8.9      1.349      4.766
REMARK  4 active torsions:
REMARK  status: ('A' for Active; 'I' for Inactive)
REMARK    1  A    between atoms: O1_1  and  C1_2 
REMARK    2  A    between atoms: C5_6  and  C6_7 
REMARK    3  A    between atoms: C6_7  and  C7_8 
REMARK    4  A    between atoms: C8_10  and  N2_11 
ROOT
HETATM    1  C7  UNL     1      24.193   2.560  50.957  1.00  0.00     0.133 A 
HETATM    2  N1  UNL     1      23.190   1.837  51.475  1.00  0.00    -0.213 NA
HETATM    3  C8  UNL     1      23.402   0.966  52.504  1.00  0.00     0.164 A 
HETATM    4  C13 UNL     1      24.681   0.814  53.037  1.00  0.00     0.153 A 
HETATM    5  O3  UNL     1      25.179   0.067  54.008  1.00  0.00    -0.285 OA
HETATM    6  C14 UNL     1      26.484   0.300  54.119  1.00  0.00     0.182 A 
HETATM    7  N3  UNL     1      27.418  -0.221  54.964  1.00  0.00    -0.236 NA
HETATM    8  C15 UNL     1      28.712   0.199  54.865  1.00  0.00     0.119 A 
HETATM    9  C16 UNL     1      29.115   1.139  53.935  1.00  0.00     0.020 A 
HETATM   10  C17 UNL     1      28.166   1.665  53.082  1.00  0.00     0.020 A 
HETATM   11  C18 UNL     1      26.847   1.245  53.173  1.00  0.00     0.049 A 
HETATM   12  C19 UNL     1      25.700   1.574  52.481  1.00  0.00     0.111 A 
HETATM   13  N4  UNL     1      25.450   2.428  51.461  1.00  0.00    -0.229 NA
ENDROOT
BRANCH   1  14
HETATM   14  C6  UNL     1      23.988   3.514  49.839  1.00  0.00     0.114 C 
BRANCH  14  15
HETATM   15  C5  UNL     1      23.073   4.628  50.237  1.00  0.00    -0.070 C 
HETATM   16  C4  UNL     1      22.001   4.958  49.526  1.00  0.00    -0.019 C 
HETATM   17  C3  UNL     1      21.165   6.101  50.043  1.00  0.00     0.057 C 
HETATM   18  C2  UNL     1      22.156   7.163  50.431  1.00  0.00     0.009 C 
HETATM   19  C1  UNL     1      23.231   6.829  51.122  1.00  0.00     0.043 C 
HETATM   20  C20 UNL     1      23.395   5.377  51.483  1.00  0.00     0.098 C 
BRANCH  19  21
HETATM   21  O1  UNL     1      24.216   7.730  51.538  1.00  0.00    -0.365 OA
HETATM   22  H1  UNL     1      24.204   8.198  52.427  1.00  0.00     0.217 HD
ENDBRANCH  19  21
ENDBRANCH  14  15
ENDBRANCH   1  14
BRANCH   3  23
HETATM   23  N2  UNL     1      22.328   0.206  53.043  1.00  0.00    -0.359 N 
HETATM   24  C9  UNL     1      21.137   1.032  53.187  1.00  0.00     0.151 C 
HETATM   25  C10 UNL     1      20.035   0.272  53.848  1.00  0.00     0.187 C 
HETATM   26  O2  UNL     1      20.121  -1.097  53.643  1.00  0.00    -0.388 OA
HETATM   27  C11 UNL     1      21.276  -1.630  54.211  1.00  0.00     0.187 C 
HETATM   28  C12 UNL     1      22.458  -1.213  53.389  1.00  0.00     0.151 C 
ENDBRANCH   3  23
TORSDOF 4
ENDMDL
MODEL 4
REMARK VINA RESULT:      -8.8      2.283      5.136
REMARK  4 active torsions:
REMARK  status: ('A' for Active; 'I' for Inactive)
REMARK    1  A    between atoms: O1_1  and  C1_2 
REMARK    2  A    between atoms: C5_6  and  C6_7 
REMARK    3  A    between atoms: C6_7  and  C7_8 
REMARK    4  A    between atoms: C8_10  and  N2_11 
ROOT
HETATM    1  C7  UNL     1      26.198   3.474  50.074  1.00  0.00     0.133 A 
HETATM    2  N1  UNL     1      24.889   3.302  50.307  1.00  0.00    -0.213 NA
HETATM    3  C8  UNL     1      24.449   2.597  51.389  1.00  0.00     0.164 A 
HETATM    4  C13 UNL     1      25.365   2.038  52.278  1.00  0.00     0.153 A 
HETATM    5  O3  UNL     1      25.240   1.322  53.383  1.00  0.00    -0.285 OA
HETATM    6  C14 UNL     1      26.448   1.033  53.859  1.00  0.00     0.182 A 
HETATM    7  N3  UNL     1      26.830   0.327  54.961  1.00  0.00    -0.236 NA
HETATM    8  C15 UNL     1      28.160   0.177  55.227  1.00  0.00     0.119 A 
HETATM    9  C16 UNL     1      29.141   0.717  54.415  1.00  0.00     0.020 A 
HETATM   10  C17 UNL     1      28.750   1.431  53.301  1.00  0.00     0.020 A 
HETATM   11  C18 UNL     1      27.400   1.590  53.021  1.00  0.00     0.049 A 
HETATM   12  C19 UNL     1      26.713   2.231  52.011  1.00  0.00     0.111 A 
HETATM   13  N4  UNL     1      27.111   2.937  50.928  1.00  0.00    -0.229 NA
ENDROOT
BRANCH   1  14
HETATM   14  C6  UNL     1      26.702   4.237  48.906  1.00  0.00     0.114 C 
BRANCH  14  15
HETATM   15  C5  UNL     1      26.383   5.693  49.030  1.00  0.00    -0.070 C 
HETATM   16  C4  UNL     1      27.253   6.643  48.705  1.00  0.00    -0.019 C 
HETATM   17  C3  UNL     1      26.800   8.070  48.879  1.00  0.00     0.057 C 
HETATM   18  C2  UNL     1      26.129   8.104  50.225  1.00  0.00     0.009 C 
HETATM   19  C1  UNL     1      25.280   7.148  50.552  1.00  0.00     0.043 C 
HETATM   20  C20 UNL     1      25.034   6.065  49.537  1.00  0.00     0.098 C 
BRANCH  19  21
HETATM   21  O1  UNL     1      24.600   7.078  51.772  1.00  0.00    -0.365 OA
HETATM   22  H1  UNL     1      24.861   6.461  52.521  1.00  0.00     0.217 HD
ENDBRANCH  19  21
ENDBRANCH  14  15
ENDBRANCH   1  14
BRANCH   3  23
HETATM   23  N2  UNL     1      23.057   2.423  51.623  1.00  0.00    -0.359 N 
HETATM   24  C9  UNL     1      22.432   3.695  51.962  1.00  0.00     0.151 C 
HETATM   25  C10 UNL     1      20.992   3.508  52.311  1.00  0.00     0.187 C 
HETATM   26  O2  UNL     1      20.425   2.398  51.701  1.00  0.00    -0.388 OA
HETATM   27  C11 UNL     1      21.026   1.215  52.128  1.00  0.00     0.187 C 
HETATM   28  C12 UNL     1      22.394   1.120  51.524  1.00  0.00     0.151 C 
ENDBRANCH   3  23
TORSDOF 4
ENDMDL
MODEL 5
REMARK VINA RESULT:      -8.5      2.442      5.731
REMARK  4 active torsions:
REMARK  status: ('A' for Active; 'I' for Inactive)
REMARK    1  A    between atoms: O1_1  and  C1_2 
REMARK    2  A    between atoms: C5_6  and  C6_7 
REMARK    3  A    between atoms: C6_7  and  C7_8 
REMARK    4  A    between atoms: C8_10  and  N2_11 
ROOT
HETATM    1  C7  UNL     1      23.049   2.715  52.171  1.00  0.00     0.133 A 
HETATM    2  N1  UNL     1      23.901   1.807  52.667  1.00  0.00    -0.213 NA
HETATM    3  C8  UNL     1      25.209   1.778  52.281  1.00  0.00     0.164 A 
HETATM    4  C13 UNL     1      25.684   2.704  51.353  1.00  0.00     0.153 A 
HETATM    5  O3  UNL     1      26.868   2.915  50.803  1.00  0.00    -0.285 OA
HETATM    6  C14 UNL     1      26.786   3.943  49.963  1.00  0.00     0.182 A 
HETATM    7  N3  UNL     1      27.729   4.531  49.172  1.00  0.00    -0.236 NA
HETATM    8  C15 UNL     1      27.374   5.591  48.390  1.00  0.00     0.119 A 
HETATM    9  C16 UNL     1      26.088   6.096  48.370  1.00  0.00     0.020 A 
HETATM   10  C17 UNL     1      25.136   5.500  49.172  1.00  0.00     0.020 A 
HETATM   11  C18 UNL     1      25.485   4.420  49.971  1.00  0.00     0.049 A 
HETATM   12  C19 UNL     1      24.780   3.631  50.856  1.00  0.00     0.111 A 
HETATM   13  N4  UNL     1      23.490   3.629  51.263  1.00  0.00    -0.229 NA
ENDROOT
BRANCH   1  14
HETATM   14  C6  UNL     1      21.622   2.768  52.575  1.00  0.00     0.114 C 
BRANCH  14  15
HETATM   15  C5  UNL     1      20.833   1.679  51.921  1.00  0.00    -0.070 C 
HETATM   16  C4  UNL     1      20.092   1.886  50.839  1.00  0.00    -0.019 C 
HETATM   17  C3  UNL     1      19.348   0.699  50.283  1.00  0.00     0.057 C 
HETATM   18  C2  UNL     1      18.741   0.024  51.482  1.00  0.00     0.009 C 
HETATM   19  C1  UNL     1      19.475  -0.164  52.564  1.00  0.00     0.043 C 
HETATM   20  C20 UNL     1      20.900   0.319  52.524  1.00  0.00     0.098 C 
BRANCH  19  21
HETATM   21  O1  UNL     1      19.017  -0.779  53.733  1.00  0.00    -0.365 OA
HETATM   22  H1  UNL     1      18.934  -0.306  54.616  1.00  0.00     0.217 HD
ENDBRANCH  19  21
ENDBRANCH  14  15
ENDBRANCH   1  14
BRANCH   3  23
HETATM   23  N2  UNL     1      26.102   0.809  52.817  1.00  0.00    -0.359 N 
HETATM   24  C9  UNL     1      26.604   1.238  54.115  1.00  0.00     0.151 C 
HETATM   25  C10 UNL     1      27.621   0.279  54.639  1.00  0.00     0.187 C 
HETATM   26  O2  UNL     1      27.449  -1.011  54.159  1.00  0.00    -0.388 OA
HETATM   27  C11 UNL     1      27.618  -1.072  52.778  1.00  0.00     0.187 C 
HETATM   28  C12 UNL     1      26.436  -0.433  52.114  1.00  0.00     0.151 C 
ENDBRANCH   3  23
TORSDOF 4
ENDMDL
MODEL 6
REMARK VINA RESULT:      -8.5      1.861      6.328
REMARK  4 active torsions:
REMARK  status: ('A' for Active; 'I' for Inactive)
REMARK    1  A    between atoms: O1_1  and  C1_2 
REMARK    2  A    between atoms: C5_6  and  C6_7 
REMARK    3  A    between atoms: C6_7  and  C7_8 
REMARK    4  A    between atoms: C8_10  and  N2_11 
ROOT
HETATM    1  C7  UNL     1      25.313   1.889  51.618  1.00  0.00     0.133 A 
HETATM    2  N1  UNL     1      24.627   2.959  51.196  1.00  0.00    -0.213 NA
HETATM    3  C8  UNL     1      23.283   3.065  51.400  1.00  0.00     0.164 A 
HETATM    4  C13 UNL     1      22.594   2.047  52.058  1.00  0.00     0.153 A 
HETATM    5  O3  UNL     1      21.326   1.873  52.391  1.00  0.00    -0.285 OA
HETATM    6  C14 UNL     1      21.191   0.708  53.019  1.00  0.00     0.182 A 
HETATM    7  N3  UNL     1      20.092   0.098  53.546  1.00  0.00    -0.236 NA
HETATM    8  C15 UNL     1      20.232  -1.119  54.149  1.00  0.00     0.119 A 
HETATM    9  C16 UNL     1      21.453  -1.759  54.246  1.00  0.00     0.020 A 
HETATM   10  C17 UNL     1      22.563  -1.138  53.712  1.00  0.00     0.020 A 
HETATM   11  C18 UNL     1      22.434   0.100  53.097  1.00  0.00     0.049 A 
HETATM   12  C19 UNL     1      23.330   0.950  52.484  1.00  0.00     0.111 A 
HETATM   13  N4  UNL     1      24.663   0.882  52.264  1.00  0.00    -0.229 NA
ENDROOT
BRANCH   1  14
HETATM   14  C6  UNL     1      26.776   1.751  51.409  1.00  0.00     0.114 C 
BRANCH  14  15
HETATM   15  C5  UNL     1      27.466   1.326  52.666  1.00  0.00    -0.070 C 
HETATM   16  C4  UNL     1      28.367   2.087  53.277  1.00  0.00    -0.019 C 
HETATM   17  C3  UNL     1      28.984   1.536  54.537  1.00  0.00     0.057 C 
HETATM   18  C2  UNL     1      29.316   0.105  54.215  1.00  0.00     0.009 C 
HETATM   19  C1  UNL     1      28.425  -0.644  53.590  1.00  0.00     0.043 C 
HETATM   20  C20 UNL     1      27.110  -0.003  53.236  1.00  0.00     0.098 C 
BRANCH  19  21
HETATM   21  O1  UNL     1      28.624  -1.983  53.241  1.00  0.00    -0.365 OA
HETATM   22  H1  UNL     1      28.949  -2.281  52.338  1.00  0.00     0.217 HD
ENDBRANCH  19  21
ENDBRANCH  14  15
ENDBRANCH   1  14
BRANCH   3  23
HETATM   23  N2  UNL     1      22.567   4.207  50.946  1.00  0.00    -0.359 N 
HETATM   24  C9  UNL     1      22.174   4.045  49.553  1.00  0.00     0.151 C 
HETATM   25  C10 UNL     1      21.513   5.280  49.036  1.00  0.00     0.187 C 
HETATM   26  O2  UNL     1      20.893   6.021  50.031  1.00  0.00    -0.388 OA
HETATM   27  C11 UNL     1      21.812   6.502  50.961  1.00  0.00     0.187 C 
HETATM   28  C12 UNL     1      22.291   5.362  51.806  1.00  0.00     0.151 C 
ENDBRANCH   3  23
TORSDOF 4
ENDMDL
MODEL 7
REMARK VINA RESULT:      -8.5      2.170      5.773
REMARK  4 active torsions:
REMARK  status: ('A' for Active; 'I' for Inactive)
REMARK    1  A    between atoms: O1_1  and  C1_2 
REMARK    2  A    between atoms: C5_6  and  C6_7 
REMARK    3  A    between atoms: C6_7  and  C7_8 
REMARK    4  A    between atoms: C8_10  and  N2_11 
ROOT
HETATM    1  C7  UNL     1      23.827  -0.141  53.742  1.00  0.00     0.133 A 
HETATM    2  N1  UNL     1      23.984   1.003  53.061  1.00  0.00    -0.213 NA
HETATM    3  C8  UNL     1      22.931   1.604  52.435  1.00  0.00     0.164 A 
HETATM    4  C13 UNL     1      21.662   1.030  52.495  1.00  0.00     0.153 A 
HETATM    5  O3  UNL     1      20.484   1.373  52.001  1.00  0.00    -0.285 OA
HETATM    6  C14 UNL     1      19.578   0.466  52.355  1.00  0.00     0.182 A 
HETATM    7  N3  UNL     1      18.242   0.385  52.091  1.00  0.00    -0.236 NA
HETATM    8  C15 UNL     1      17.530  -0.669  52.584  1.00  0.00     0.119 A 
HETATM    9  C16 UNL     1      18.114  -1.663  53.347  1.00  0.00     0.020 A 
HETATM   10  C17 UNL     1      19.465  -1.577  53.613  1.00  0.00     0.020 A 
HETATM   11  C18 UNL     1      20.200  -0.510  53.116  1.00  0.00     0.049 A 
HETATM   12  C19 UNL     1      21.530  -0.153  53.206  1.00  0.00     0.111 A 
HETATM   13  N4  UNL     1      22.597  -0.720  53.815  1.00  0.00    -0.229 NA
ENDROOT
BRANCH   1  14
HETATM   14  C6  UNL     1      24.955  -0.814  54.432  1.00  0.00     0.114 C 
BRANCH  14  15
HETATM   15  C5  UNL     1      26.270  -0.248  54.000  1.00  0.00    -0.070 C 
HETATM   16  C4  UNL     1      27.153   0.242  54.863  1.00  0.00    -0.019 C 
HETATM   17  C3  UNL     1      28.439   0.781  54.292  1.00  0.00     0.057 C 
HETATM   18  C2  UNL     1      28.022   1.607  53.106  1.00  0.00     0.009 C 
HETATM   19  C1  UNL     1      27.130   1.126  52.260  1.00  0.00     0.043 C 
HETATM   20  C20 UNL     1      26.578  -0.246  52.544  1.00  0.00     0.098 C 
BRANCH  19  21
HETATM   21  O1  UNL     1      26.670   1.803  51.127  1.00  0.00    -0.365 OA
HETATM   22  H1  UNL     1      25.817   1.571  50.647  1.00  0.00     0.217 HD
ENDBRANCH  19  21
ENDBRANCH  14  15
ENDBRANCH   1  14
BRANCH   3  23
HETATM   23  N2  UNL     1      23.112   2.818  51.715  1.00  0.00    -0.359 N 
HETATM   24  C9  UNL     1      23.334   2.546  50.301  1.00  0.00     0.151 C 
HETATM   25  C10 UNL     1      23.628   3.805  49.554  1.00  0.00     0.187 C 
HETATM   26  O2  UNL     1      23.069   4.930  50.144  1.00  0.00    -0.388 OA
HETATM   27  C11 UNL     1      23.602   5.164  51.410  1.00  0.00     0.187 C 
HETATM   28  C12 UNL     1      23.070   4.134  52.359  1.00  0.00     0.151 C 
ENDBRANCH   3  23
TORSDOF 4
ENDMDL
MODEL 8
REMARK VINA RESULT:      -8.5      2.553      6.295
REMARK  4 active torsions:
REMARK  status: ('A' for Active; 'I' for Inactive)
REMARK    1  A    between atoms: O1_1  and  C1_2 
REMARK    2  A    between atoms: C5_6  and  C6_7 
REMARK    3  A    between atoms: C6_7  and  C7_8 
REMARK    4  A    between atoms: C8_10  and  N2_11 
ROOT
HETATM    1  C7  UNL     1      23.566   1.756  52.545  1.00  0.00     0.133 A 
HETATM    2  N1  UNL     1      23.482   2.376  51.360  1.00  0.00    -0.213 NA
HETATM    3  C8  UNL     1      22.368   2.264  50.580  1.00  0.00     0.164 A 
HETATM    4  C13 UNL     1      21.289   1.493  51.009  1.00  0.00     0.153 A 
HETATM    5  O3  UNL     1      20.110   1.206  50.485  1.00  0.00    -0.285 OA
HETATM    6  C14 UNL     1      19.439   0.412  51.315  1.00  0.00     0.182 A 
HETATM    7  N3  UNL     1      18.198  -0.143  51.216  1.00  0.00    -0.236 NA
HETATM    8  C15 UNL     1      17.741  -0.935  52.229  1.00  0.00     0.119 A 
HETATM    9  C16 UNL     1      18.493  -1.196  53.360  1.00  0.00     0.020 A 
HETATM   10  C17 UNL     1      19.748  -0.631  53.457  1.00  0.00     0.020 A 
HETATM   11  C18 UNL     1      20.224   0.175  52.432  1.00  0.00     0.049 A 
HETATM   12  C19 UNL     1      21.404   0.863  52.240  1.00  0.00     0.111 A 
HETATM   13  N4  UNL     1      22.525   0.997  52.986  1.00  0.00    -0.229 NA
ENDROOT
BRANCH   1  14
HETATM   14  C6  UNL     1      24.765   1.862  53.413  1.00  0.00     0.114 C 
BRANCH  14  15
HETATM   15  C5  UNL     1      25.830   0.903  52.985  1.00  0.00    -0.070 C 
HETATM   16  C4  UNL     1      25.755  -0.400  53.226  1.00  0.00    -0.019 C 
HETATM   17  C3  UNL     1      26.899  -1.253  52.739  1.00  0.00     0.057 C 
HETATM   18  C2  UNL     1      28.139  -0.495  53.125  1.00  0.00     0.009 C 
HETATM   19  C1  UNL     1      28.204   0.805  52.901  1.00  0.00     0.043 C 
HETATM   20  C20 UNL     1      27.008   1.455  52.260  1.00  0.00     0.098 C 
BRANCH  19  21
HETATM   21  O1  UNL     1      29.305   1.607  53.217  1.00  0.00    -0.365 OA
HETATM   22  H1  UNL     1      29.358   2.588  53.005  1.00  0.00     0.217 HD
ENDBRANCH  19  21
ENDBRANCH  14  15
ENDBRANCH   1  14
BRANCH   3  23
HETATM   23  N2  UNL     1      22.292   2.928  49.324  1.00  0.00    -0.359 N 
HETATM   24  C9  UNL     1      22.028   4.348  49.511  1.00  0.00     0.151 C 
HETATM   25  C10 UNL     1      21.844   5.036  48.199  1.00  0.00     0.187 C 
HETATM   26  O2  UNL     1      22.513   4.408  47.158  1.00  0.00    -0.388 OA
HETATM   27  C11 UNL     1      22.020   3.125  46.932  1.00  0.00     0.187 C 
HETATM   28  C12 UNL     1      22.465   2.229  48.047  1.00  0.00     0.151 C 
ENDBRANCH   3  23
TORSDOF 4
ENDMDL
MODEL 9
REMARK VINA RESULT:      -8.2      1.714      2.295
REMARK  4 active torsions:
REMARK  status: ('A' for Active; 'I' for Inactive)
REMARK    1  A    between atoms: O1_1  and  C1_2 
REMARK    2  A    between atoms: C5_6  and  C6_7 
REMARK    3  A    between atoms: C6_7  and  C7_8 
REMARK    4  A    between atoms: C8_10  and  N2_11 
ROOT
HETATM    1  C7  UNL     1      24.594   2.913  51.675  1.00  0.00     0.133 A 
HETATM    2  N1  UNL     1      25.711   2.283  52.067  1.00  0.00    -0.213 NA
HETATM    3  C8  UNL     1      25.656   1.109  52.759  1.00  0.00     0.164 A 
HETATM    4  C13 UNL     1      24.422   0.541  53.073  1.00  0.00     0.153 A 
HETATM    5  O3  UNL     1      24.063  -0.558  53.716  1.00  0.00    -0.285 OA
HETATM    6  C14 UNL     1      22.736  -0.639  53.742  1.00  0.00     0.182 A 
HETATM    7  N3  UNL     1      21.907  -1.578  54.282  1.00  0.00    -0.236 NA
HETATM    8  C15 UNL     1      20.557  -1.419  54.165  1.00  0.00     0.119 A 
HETATM    9  C16 UNL     1      19.994  -0.336  53.516  1.00  0.00     0.020 A 
HETATM   10  C17 UNL     1      20.836   0.611  52.970  1.00  0.00     0.020 A 
HETATM   11  C18 UNL     1      22.211   0.461  53.083  1.00  0.00     0.049 A 
HETATM   12  C19 UNL     1      23.283   1.215  52.656  1.00  0.00     0.111 A 
HETATM   13  N4  UNL     1      23.378   2.378  51.971  1.00  0.00    -0.229 NA
ENDROOT
BRANCH   1  14
HETATM   14  C6  UNL     1      24.628   4.191  50.921  1.00  0.00     0.114 C 
BRANCH  14  15
HETATM   15  C5  UNL     1      23.789   4.113  49.685  1.00  0.00    -0.070 C 
HETATM   16  C4  UNL     1      23.019   5.117  49.282  1.00  0.00    -0.019 C 
HETATM   17  C3  UNL     1      22.226   4.904  48.018  1.00  0.00     0.057 C 
HETATM   18  C2  UNL     1      21.640   3.526  48.154  1.00  0.00     0.009 C 
HETATM   19  C1  UNL     1      22.403   2.533  48.574  1.00  0.00     0.043 C 
HETATM   20  C20 UNL     1      23.838   2.853  48.894  1.00  0.00     0.098 C 
BRANCH  19  21
HETATM   21  O1  UNL     1      21.966   1.215  48.737  1.00  0.00    -0.365 OA
HETATM   22  H1  UNL     1      22.580   0.420  48.728  1.00  0.00     0.217 HD
ENDBRANCH  19  21
ENDBRANCH  14  15
ENDBRANCH   1  14
BRANCH   3  23
HETATM   23  N2  UNL     1      26.849   0.451  53.168  1.00  0.00    -0.359 N 
HETATM   24  C9  UNL     1      27.005  -0.812  52.459  1.00  0.00     0.151 C 
HETATM   25  C10 UNL     1      28.199  -1.559  52.955  1.00  0.00     0.187 C 
HETATM   26  O2  UNL     1      29.181  -0.730  53.476  1.00  0.00    -0.388 OA
HETATM   27  C11 UNL     1      28.730  -0.043  54.601  1.00  0.00     0.187 C 
HETATM   28  C12 UNL     1      27.760   1.014  54.169  1.00  0.00     0.151 C 
ENDBRANCH   3  23
TORSDOF 4
ENDMDL
