MODEL 1
REMARK VINA RESULT:      -9.0      0.000      0.000
REMARK  2 active torsions:
REMARK  status: ('A' for Active; 'I' for Inactive)
REMARK    1  A    between atoms: N1_7  and  C7_8 
REMARK    2  A    between atoms: C12_15  and  C13_16 
ROOT
HETATM    1  C1  UNL     1      29.360  -2.071  53.243  1.00  0.00     0.017 C 
HETATM    2  C2  UNL     1      28.585  -1.146  53.310  1.00  0.00    -0.080 C 
HETATM    3  C3  UNL     1      27.666  -0.027  53.387  1.00  0.00     0.023 C 
HETATM    4  C4  UNL     1      28.075   1.082  52.821  1.00  0.00    -0.011 C 
HETATM    5  C5  UNL     1      27.551   2.197  53.303  1.00  0.00     0.006 C 
HETATM    6  C6  UNL     1      26.238   2.234  54.001  1.00  0.00     0.153 C 
HETATM    7  N1  UNL     1      25.557   1.000  53.620  1.00  0.00    -0.357 N 
HETATM    8  C19 UNL     1      26.337  -0.163  54.082  1.00  0.00     0.173 C 
ENDROOT
BRANCH   7   9
HETATM    9  C7  UNL     1      24.326   0.814  52.911  1.00  0.00     0.140 A 
HETATM   10  N2  UNL     1      23.460  -0.086  53.460  1.00  0.00    -0.224 NA
HETATM   11  C8  UNL     1      22.272  -0.319  52.851  1.00  0.00     0.236 A 
HETATM   12  N3  UNL     1      21.913   0.315  51.707  1.00  0.00    -0.241 NA
HETATM   13  C9  UNL     1      22.751   1.208  51.146  1.00  0.00     0.072 A 
HETATM   14  C10 UNL     1      22.465   1.884  50.003  1.00  0.00     0.033 A 
HETATM   15  C18 UNL     1      23.969   1.470  51.741  1.00  0.00     0.039 A 
HETATM   16  C11 UNL     1      23.319   2.801  49.423  1.00  0.00     0.014 A 
HETATM   17  C12 UNL     1      24.539   3.034  50.058  1.00  0.00    -0.022 A 
HETATM   18  C17 UNL     1      24.898   2.380  51.226  1.00  0.00     0.030 A 
BRANCH  17  19
HETATM   19  C13 UNL     1      25.527   3.989  49.528  1.00  0.00     0.010 A 
HETATM   20  C14 UNL     1      26.867   3.958  49.209  1.00  0.00     0.152 A 
HETATM   21  N4  UNL     1      27.233   5.171  48.755  1.00  0.00    -0.185 NA
HETATM   22  N5  UNL     1      26.183   5.975  48.770  1.00  0.00    -0.285 N 
HETATM   23  C15 UNL     1      26.169   7.374  48.351  1.00  0.00     0.179 C 
HETATM   24  C16 UNL     1      25.119   5.294  49.235  1.00  0.00     0.125 A 
ENDBRANCH  17  19
ENDBRANCH   7   9
TORSDOF 2
ENDMDL
MODEL 2
REMARK VINA RESULT:      -8.8      2.862      6.192
REMARK  2 active torsions:
REMARK  status: ('A' for Active; 'I' for Inactive)
REMARK    1  A    between atoms: N1_7  and  C7_8 
REMARK    2  A    between atoms: C12_15  and  C13_16 
ROOT
HETATM    1  C1  UNL     1      23.467   5.504  51.582  1.00  0.00     0.017 C 
HETATM    2  C2  UNL     1      22.908   4.509  51.183  1.00  0.00    -0.080 C 
HETATM    3  C3  UNL     1      22.246   3.315  50.694  1.00  0.00     0.023 C 
HETATM    4  C4  UNL     1      22.973   2.538  49.928  1.00  0.00    -0.011 C 
HETATM    5  C5  UNL     1      22.298   1.780  49.080  1.00  0.00     0.006 C 
HETATM    6  C6  UNL     1      20.883   1.383  49.304  1.00  0.00     0.153 C 
HETATM    7  N1  UNL     1      20.638   1.592  50.728  1.00  0.00    -0.357 N 
HETATM    8  C19 UNL     1      20.816   3.018  51.060  1.00  0.00     0.173 C 
ENDROOT
BRANCH   7   9
HETATM    9  C7  UNL     1      20.277   0.649  51.743  1.00  0.00     0.140 A 
HETATM   10  N2  UNL     1      18.952   0.326  51.803  1.00  0.00    -0.224 NA
HETATM   11  C8  UNL     1      18.528  -0.561  52.736  1.00  0.00     0.236 A 
HETATM   12  N3  UNL     1      19.379  -1.141  53.618  1.00  0.00    -0.241 NA
HETATM   13  C9  UNL     1      20.692  -0.837  53.580  1.00  0.00     0.072 A 
HETATM   14  C10 UNL     1      21.607  -1.374  54.427  1.00  0.00     0.033 A 
HETATM   15  C18 UNL     1      21.158   0.062  52.641  1.00  0.00     0.039 A 
HETATM   16  C11 UNL     1      22.952  -1.069  54.393  1.00  0.00     0.014 A 
HETATM   17  C12 UNL     1      23.379  -0.155  53.429  1.00  0.00    -0.022 A 
HETATM   18  C17 UNL     1      22.502   0.433  52.532  1.00  0.00     0.030 A 
BRANCH  17  19
HETATM   19  C13 UNL     1      24.791   0.246  53.302  1.00  0.00     0.010 A 
HETATM   20  C14 UNL     1      25.545   0.950  52.389  1.00  0.00     0.152 A 
HETATM   21  N4  UNL     1      26.819   0.993  52.821  1.00  0.00    -0.185 NA
HETATM   22  N5  UNL     1      26.911   0.345  53.971  1.00  0.00    -0.285 N 
HETATM   23  C15 UNL     1      28.126   0.168  54.760  1.00  0.00     0.179 C 
HETATM   24  C16 UNL     1      25.694  -0.128  54.302  1.00  0.00     0.125 A 
ENDBRANCH  17  19
ENDBRANCH   7   9
TORSDOF 2
ENDMDL
MODEL 3
REMARK VINA RESULT:      -8.8      2.238      3.835
REMARK  2 active torsions:
REMARK  status: ('A' for Active; 'I' for Inactive)
REMARK    1  A    between atoms: N1_7  and  C7_8 
REMARK    2  A    between atoms: C12_15  and  C13_16 
ROOT
HETATM    1  C1  UNL     1      26.445   3.188  49.803  1.00  0.00     0.017 C 
HETATM    2  C2  UNL     1      26.577   2.494  50.785  1.00  0.00    -0.080 C 
HETATM    3  C3  UNL     1      26.747   1.671  51.967  1.00  0.00     0.023 C 
HETATM    4  C4  UNL     1      27.354   2.246  52.976  1.00  0.00    -0.011 C 
HETATM    5  C5  UNL     1      27.971   1.429  53.813  1.00  0.00     0.006 C 
HETATM    6  C6  UNL     1      27.587   0.001  53.974  1.00  0.00     0.153 C 
HETATM    7  N1  UNL     1      26.236  -0.105  53.430  1.00  0.00    -0.357 N 
HETATM    8  C19 UNL     1      26.247   0.251  51.999  1.00  0.00     0.173 C 
ENDROOT
BRANCH   7   9
HETATM    9  C7  UNL     1      25.015  -0.484  54.076  1.00  0.00     0.140 A 
HETATM   10  N2  UNL     1      25.157  -1.160  55.253  1.00  0.00    -0.224 NA
HETATM   11  C8  UNL     1      24.050  -1.554  55.928  1.00  0.00     0.236 A 
HETATM   12  N3  UNL     1      22.798  -1.298  55.471  1.00  0.00    -0.241 NA
HETATM   13  C9  UNL     1      22.633  -0.632  54.311  1.00  0.00     0.072 A 
HETATM   14  C10 UNL     1      21.415  -0.337  53.786  1.00  0.00     0.033 A 
HETATM   15  C18 UNL     1      23.740  -0.216  53.598  1.00  0.00     0.039 A 
HETATM   16  C11 UNL     1      21.238   0.345  52.600  1.00  0.00     0.014 A 
HETATM   17  C12 UNL     1      22.384   0.746  51.913  1.00  0.00    -0.022 A 
HETATM   18  C17 UNL     1      23.659   0.479  52.387  1.00  0.00     0.030 A 
BRANCH  17  19
HETATM   19  C13 UNL     1      22.315   1.478  50.636  1.00  0.00     0.010 A 
HETATM   20  C14 UNL     1      21.821   1.231  49.374  1.00  0.00     0.152 A 
HETATM   21  N4  UNL     1      22.056   2.305  48.598  1.00  0.00    -0.185 NA
HETATM   22  N5  UNL     1      22.681   3.228  49.311  1.00  0.00    -0.285 N 
HETATM   23  C15 UNL     1      23.109   4.538  48.830  1.00  0.00     0.179 C 
HETATM   24  C16 UNL     1      22.859   2.764  50.563  1.00  0.00     0.125 A 
ENDBRANCH  17  19
ENDBRANCH   7   9
TORSDOF 2
ENDMDL
MODEL 4
REMARK VINA RESULT:      -8.8      2.225      5.447
REMARK  2 active torsions:
REMARK  status: ('A' for Active; 'I' for Inactive)
REMARK    1  A    between atoms: N1_7  and  C7_8 
REMARK    2  A    between atoms: C12_15  and  C13_16 
ROOT
HETATM    1  C1  UNL     1      22.005   5.664  51.580  1.00  0.00     0.017 C 
HETATM    2  C2  UNL     1      21.797   4.487  51.394  1.00  0.00    -0.080 C 
HETATM    3  C3  UNL     1      21.552   3.077  51.157  1.00  0.00     0.023 C 
HETATM    4  C4  UNL     1      22.249   2.536  50.188  1.00  0.00    -0.011 C 
HETATM    5  C5  UNL     1      21.707   1.473  49.618  1.00  0.00     0.006 C 
HETATM    6  C6  UNL     1      20.718   0.605  50.311  1.00  0.00     0.153 C 
HETATM    7  N1  UNL     1      20.869   0.896  51.734  1.00  0.00    -0.357 N 
HETATM    8  C19 UNL     1      20.554   2.315  51.988  1.00  0.00     0.173 C 
ENDROOT
BRANCH   7   9
HETATM    9  C7  UNL     1      21.254   0.033  52.810  1.00  0.00     0.140 A 
HETATM   10  N2  UNL     1      20.248  -0.706  53.361  1.00  0.00    -0.224 NA
HETATM   11  C8  UNL     1      20.529  -1.549  54.384  1.00  0.00     0.236 A 
HETATM   12  N3  UNL     1      21.784  -1.684  54.883  1.00  0.00    -0.241 NA
HETATM   13  C9  UNL     1      22.793  -0.964  54.355  1.00  0.00     0.072 A 
HETATM   14  C10 UNL     1      24.075  -1.042  54.797  1.00  0.00     0.033 A 
HETATM   15  C18 UNL     1      22.542  -0.096  53.312  1.00  0.00     0.039 A 
HETATM   16  C11 UNL     1      25.115  -0.309  54.262  1.00  0.00     0.014 A 
HETATM   17  C12 UNL     1      24.815   0.556  53.209  1.00  0.00    -0.022 A 
HETATM   18  C17 UNL     1      23.530   0.687  52.707  1.00  0.00     0.030 A 
BRANCH  17  19
HETATM   19  C13 UNL     1      25.844   1.388  52.562  1.00  0.00     0.010 A 
HETATM   20  C14 UNL     1      27.175   1.671  52.781  1.00  0.00     0.152 A 
HETATM   21  N4  UNL     1      27.597   2.527  51.833  1.00  0.00    -0.185 NA
HETATM   22  N5  UNL     1      26.593   2.803  51.018  1.00  0.00    -0.285 N 
HETATM   23  C15 UNL     1      26.648   3.692  49.861  1.00  0.00     0.179 C 
HETATM   24  C16 UNL     1      25.502   2.128  51.427  1.00  0.00     0.125 A 
ENDBRANCH  17  19
ENDBRANCH   7   9
TORSDOF 2
ENDMDL
MODEL 5
REMARK VINA RESULT:      -8.7      3.070      6.736
REMARK  2 active torsions:
REMARK  status: ('A' for Active; 'I' for Inactive)
REMARK    1  A    between atoms: N1_7  and  C7_8 
REMARK    2  A    between atoms: C12_15  and  C13_16 
ROOT
HETATM    1  C1  UNL     1      21.652   1.640  48.378  1.00  0.00     0.017 C 
HETATM    2  C2  UNL     1      22.174   1.943  49.426  1.00  0.00    -0.080 C 
HETATM    3  C3  UNL     1      22.792   2.318  50.683  1.00  0.00     0.023 C 
HETATM    4  C4  UNL     1      22.082   3.110  51.449  1.00  0.00    -0.011 C 
HETATM    5  C5  UNL     1      22.772   3.862  52.291  1.00  0.00     0.006 C 
HETATM    6  C6  UNL     1      24.133   3.495  52.767  1.00  0.00     0.153 C 
HETATM    7  N1  UNL     1      24.269   2.066  52.503  1.00  0.00    -0.357 N 
HETATM    8  C19 UNL     1      24.162   1.814  51.053  1.00  0.00     0.173 C 
ENDROOT
BRANCH   7   9
HETATM    9  C7  UNL     1      24.476   0.981  53.415  1.00  0.00     0.140 A 
HETATM   10  N2  UNL     1      25.737   0.875  53.927  1.00  0.00    -0.224 NA
HETATM   11  C8  UNL     1      26.016  -0.124  54.798  1.00  0.00     0.236 A 
HETATM   12  N3  UNL     1      25.080  -1.028  55.182  1.00  0.00    -0.241 NA
HETATM   13  C9  UNL     1      23.828  -0.944  54.690  1.00  0.00     0.072 A 
HETATM   14  C10 UNL     1      22.836  -1.809  55.024  1.00  0.00     0.033 A 
HETATM   15  C18 UNL     1      23.510   0.062  53.800  1.00  0.00     0.039 A 
HETATM   16  C11 UNL     1      21.552  -1.729  54.524  1.00  0.00     0.014 A 
HETATM   17  C12 UNL     1      21.274  -0.697  53.628  1.00  0.00    -0.022 A 
HETATM   18  C17 UNL     1      22.237   0.222  53.242  1.00  0.00     0.030 A 
BRANCH  17  19
HETATM   19  C13 UNL     1      19.940  -0.516  53.031  1.00  0.00     0.010 A 
HETATM   20  C14 UNL     1      18.656  -0.918  53.328  1.00  0.00     0.152 A 
HETATM   21  N4  UNL     1      17.822  -0.432  52.390  1.00  0.00    -0.185 NA
HETATM   22  N5  UNL     1      18.519   0.263  51.507  1.00  0.00    -0.285 N 
HETATM   23  C15 UNL     1      17.978   0.950  50.338  1.00  0.00     0.179 C 
HETATM   24  C16 UNL     1      19.818   0.239  51.860  1.00  0.00     0.125 A 
ENDBRANCH  17  19
ENDBRANCH   7   9
TORSDOF 2
ENDMDL
MODEL 6
REMARK VINA RESULT:      -8.6      1.274      2.032
REMARK  2 active torsions:
REMARK  status: ('A' for Active; 'I' for Inactive)
REMARK    1  A    between atoms: N1_7  and  C7_8 
REMARK    2  A    between atoms: C12_15  and  C13_16 
ROOT
HETATM    1  C1  UNL     1      29.958  -1.550  53.614  1.00  0.00     0.017 C 
HETATM    2  C2  UNL     1      29.000  -0.812  53.605  1.00  0.00    -0.080 C 
HETATM    3  C3  UNL     1      27.859   0.082  53.587  1.00  0.00     0.023 C 
HETATM    4  C4  UNL     1      27.826   0.939  52.595  1.00  0.00    -0.011 C 
HETATM    5  C5  UNL     1      27.145   2.050  52.822  1.00  0.00     0.006 C 
HETATM    6  C6  UNL     1      26.055   2.135  53.830  1.00  0.00     0.153 C 
HETATM    7  N1  UNL     1      25.658   0.755  54.095  1.00  0.00    -0.357 N 
HETATM    8  C19 UNL     1      26.798   0.006  54.653  1.00  0.00     0.173 C 
ENDROOT
BRANCH   7   9
HETATM    9  C7  UNL     1      24.395   0.110  53.889  1.00  0.00     0.140 A 
HETATM   10  N2  UNL     1      24.082  -0.871  54.784  1.00  0.00    -0.224 NA
HETATM   11  C8  UNL     1      22.905  -1.530  54.659  1.00  0.00     0.236 A 
HETATM   12  N3  UNL     1      22.021  -1.246  53.669  1.00  0.00    -0.241 NA
HETATM   13  C9  UNL     1      22.308  -0.282  52.773  1.00  0.00     0.072 A 
HETATM   14  C10 UNL     1      21.478   0.062  51.754  1.00  0.00     0.033 A 
HETATM   15  C18 UNL     1      23.500   0.410  52.871  1.00  0.00     0.039 A 
HETATM   16  C11 UNL     1      21.765   1.049  50.834  1.00  0.00     0.014 A 
HETATM   17  C12 UNL     1      22.980   1.721  50.971  1.00  0.00    -0.022 A 
HETATM   18  C17 UNL     1      23.876   1.424  51.985  1.00  0.00     0.030 A 
BRANCH  17  19
HETATM   19  C13 UNL     1      23.391   2.791  50.045  1.00  0.00     0.010 A 
HETATM   20  C14 UNL     1      22.860   3.396  48.926  1.00  0.00     0.152 A 
HETATM   21  N4  UNL     1      23.718   4.339  48.495  1.00  0.00    -0.185 NA
HETATM   22  N5  UNL     1      24.774   4.362  49.291  1.00  0.00    -0.285 N 
HETATM   23  C15 UNL     1      25.927   5.247  49.158  1.00  0.00     0.179 C 
HETATM   24  C16 UNL     1      24.616   3.432  50.252  1.00  0.00     0.125 A 
ENDBRANCH  17  19
ENDBRANCH   7   9
TORSDOF 2
ENDMDL
MODEL 7
REMARK VINA RESULT:      -8.5      2.349      6.652
REMARK  2 active torsions:
REMARK  status: ('A' for Active; 'I' for Inactive)
REMARK    1  A    between atoms: N1_7  and  C7_8 
REMARK    2  A    between atoms: C12_15  and  C13_16 
ROOT
HETATM    1  C1  UNL     1      22.305   2.106  47.419  1.00  0.00     0.017 C 
HETATM    2  C2  UNL     1      22.728   2.506  48.480  1.00  0.00    -0.080 C 
HETATM    3  C3  UNL     1      23.221   2.992  49.754  1.00  0.00     0.023 C 
HETATM    4  C4  UNL     1      22.308   3.214  50.667  1.00  0.00    -0.011 C 
HETATM    5  C5  UNL     1      22.628   4.106  51.590  1.00  0.00     0.006 C 
HETATM    6  C6  UNL     1      24.035   4.431  51.942  1.00  0.00     0.153 C 
HETATM    7  N1  UNL     1      24.832   3.314  51.444  1.00  0.00    -0.357 N 
HETATM    8  C19 UNL     1      24.693   3.217  49.979  1.00  0.00     0.173 C 
ENDROOT
BRANCH   7   9
HETATM    9  C7  UNL     1      25.659   2.388  52.158  1.00  0.00     0.140 A 
HETATM   10  N2  UNL     1      26.994   2.666  52.154  1.00  0.00    -0.224 NA
HETATM   11  C8  UNL     1      27.845   1.838  52.808  1.00  0.00     0.236 A 
HETATM   12  N3  UNL     1      27.412   0.736  53.471  1.00  0.00    -0.241 NA
HETATM   13  C9  UNL     1      26.097   0.440  53.489  1.00  0.00     0.072 A 
HETATM   14  C10 UNL     1      25.584  -0.643  54.128  1.00  0.00     0.033 A 
HETATM   15  C18 UNL     1      25.203   1.263  52.832  1.00  0.00     0.039 A 
HETATM   16  C11 UNL     1      24.239  -0.951  54.151  1.00  0.00     0.014 A 
HETATM   17  C12 UNL     1      23.372  -0.093  53.475  1.00  0.00    -0.022 A 
HETATM   18  C17 UNL     1      23.824   1.030  52.801  1.00  0.00     0.030 A 
BRANCH  17  19
HETATM   19  C13 UNL     1      21.918  -0.324  53.432  1.00  0.00     0.010 A 
HETATM   20  C14 UNL     1      20.998  -1.013  54.193  1.00  0.00     0.152 A 
HETATM   21  N4  UNL     1      19.779  -0.857  53.645  1.00  0.00    -0.185 NA
HETATM   22  N5  UNL     1      19.881  -0.099  52.565  1.00  0.00    -0.285 N 
HETATM   23  C15 UNL     1      18.781   0.301  51.693  1.00  0.00     0.179 C 
HETATM   24  C16 UNL     1      21.171   0.249  52.398  1.00  0.00     0.125 A 
ENDBRANCH  17  19
ENDBRANCH   7   9
TORSDOF 2
ENDMDL
MODEL 8
REMARK VINA RESULT:      -8.4      2.523      6.361
REMARK  2 active torsions:
REMARK  status: ('A' for Active; 'I' for Inactive)
REMARK    1  A    between atoms: N1_7  and  C7_8 
REMARK    2  A    between atoms: C12_15  and  C13_16 
ROOT
HETATM    1  C1  UNL     1      22.329   5.820  46.879  1.00  0.00     0.017 C 
HETATM    2  C2  UNL     1      22.632   5.451  47.991  1.00  0.00    -0.080 C 
HETATM    3  C3  UNL     1      23.000   5.022  49.326  1.00  0.00     0.023 C 
HETATM    4  C4  UNL     1      23.117   5.977  50.215  1.00  0.00    -0.011 C 
HETATM    5  C5  UNL     1      23.921   5.714  51.233  1.00  0.00     0.006 C 
HETATM    6  C6  UNL     1      24.233   4.329  51.676  1.00  0.00     0.153 C 
HETATM    7  N1  UNL     1      23.183   3.490  51.107  1.00  0.00    -0.357 N 
HETATM    8  C19 UNL     1      23.226   3.565  49.635  1.00  0.00     0.173 C 
ENDROOT
BRANCH   7   9
HETATM    9  C7  UNL     1      22.205   2.675  51.765  1.00  0.00     0.140 A 
HETATM   10  N2  UNL     1      20.911   3.089  51.636  1.00  0.00    -0.224 NA
HETATM   11  C8  UNL     1      19.925   2.373  52.229  1.00  0.00     0.236 A 
HETATM   12  N3  UNL     1      20.181   1.253  52.950  1.00  0.00    -0.241 NA
HETATM   13  C9  UNL     1      21.451   0.824  53.091  1.00  0.00     0.072 A 
HETATM   14  C10 UNL     1      21.790  -0.286  53.796  1.00  0.00     0.033 A 
HETATM   15  C18 UNL     1      22.480   1.531  52.500  1.00  0.00     0.039 A 
HETATM   16  C11 UNL     1      23.088  -0.731  53.945  1.00  0.00     0.014 A 
HETATM   17  C12 UNL     1      24.096   0.013  53.331  1.00  0.00    -0.022 A 
HETATM   18  C17 UNL     1      23.824   1.157  52.597  1.00  0.00     0.030 A 
BRANCH  17  19
HETATM   19  C13 UNL     1      25.516  -0.367  53.424  1.00  0.00     0.010 A 
HETATM   20  C14 UNL     1      26.313  -1.367  52.911  1.00  0.00     0.152 A 
HETATM   21  N4  UNL     1      27.569  -1.194  53.361  1.00  0.00    -0.185 NA
HETATM   22  N5  UNL     1      27.609  -0.127  54.140  1.00  0.00    -0.285 N 
HETATM   23  C15 UNL     1      28.791   0.394  54.821  1.00  0.00     0.179 C 
HETATM   24  C16 UNL     1      26.376   0.410  54.207  1.00  0.00     0.125 A 
ENDBRANCH  17  19
ENDBRANCH   7   9
TORSDOF 2
ENDMDL
MODEL 9
REMARK VINA RESULT:      -8.4      2.409      7.274
REMARK  2 active torsions:
REMARK  status: ('A' for Active; 'I' for Inactive)
REMARK    1  A    between atoms: N1_7  and  C7_8 
REMARK    2  A    between atoms: C12_15  and  C13_16 
ROOT
HETATM    1  C1  UNL     1      19.312   2.765  48.189  1.00  0.00     0.017 C 
HETATM    2  C2  UNL     1      20.056   3.061  49.096  1.00  0.00    -0.080 C 
HETATM    3  C3  UNL     1      20.937   3.414  50.193  1.00  0.00     0.023 C 
HETATM    4  C4  UNL     1      20.548   3.020  51.381  1.00  0.00    -0.011 C 
HETATM    5  C5  UNL     1      21.003   3.735  52.397  1.00  0.00     0.006 C 
HETATM    6  C6  UNL     1      22.252   4.538  52.321  1.00  0.00     0.153 C 
HETATM    7  N1  UNL     1      22.993   4.004  51.182  1.00  0.00    -0.357 N 
HETATM    8  C19 UNL     1      22.207   4.185  49.948  1.00  0.00     0.173 C 
ENDROOT
BRANCH   7   9
HETATM    9  C7  UNL     1      24.282   3.382  51.139  1.00  0.00     0.140 A 
HETATM   10  N2  UNL     1      25.250   4.078  50.474  1.00  0.00    -0.224 NA
HETATM   11  C8  UNL     1      26.499   3.559  50.388  1.00  0.00     0.236 A 
HETATM   12  N3  UNL     1      26.821   2.363  50.942  1.00  0.00    -0.241 NA
HETATM   13  C9  UNL     1      25.883   1.657  51.603  1.00  0.00     0.072 A 
HETATM   14  C10 UNL     1      26.125   0.454  52.185  1.00  0.00     0.033 A 
HETATM   15  C18 UNL     1      24.600   2.158  51.710  1.00  0.00     0.039 A 
HETATM   16  C11 UNL     1      25.170  -0.274  52.864  1.00  0.00     0.014 A 
HETATM   17  C12 UNL     1      23.888   0.270  52.947  1.00  0.00    -0.022 A 
HETATM   18  C17 UNL     1      23.567   1.492  52.377  1.00  0.00     0.030 A 
BRANCH  17  19
HETATM   19  C13 UNL     1      22.789  -0.419  53.646  1.00  0.00     0.010 A 
HETATM   20  C14 UNL     1      22.655  -1.157  54.802  1.00  0.00     0.152 A 
HETATM   21  N4  UNL     1      21.370  -1.541  54.924  1.00  0.00    -0.185 NA
HETATM   22  N5  UNL     1      20.679  -1.081  53.894  1.00  0.00    -0.285 N 
HETATM   23  C15 UNL     1      19.252  -1.282  53.662  1.00  0.00     0.179 C 
HETATM   24  C16 UNL     1      21.507  -0.389  53.088  1.00  0.00     0.125 A 
ENDBRANCH  17  19
ENDBRANCH   7   9
TORSDOF 2
ENDMDL
