MODEL 1
REMARK VINA RESULT:     -10.2      0.000      0.000
REMARK  0 active torsions:
REMARK  status: ('A' for Active; 'I' for Inactive)
ROOT
HETATM    1  O1  UNL     1      24.733   3.246  52.665  1.00  0.00    -0.291 OA
HETATM    2  C1  UNL     1      24.371   3.283  51.425  1.00  0.00     0.166 C 
HETATM    3  C2  UNL     1      23.068   3.596  51.842  1.00  0.00     0.053 C 
HETATM    4  C3  UNL     1      22.163   3.712  50.923  1.00  0.00     0.020 C 
HETATM    5  C4  UNL     1      20.741   4.009  50.879  1.00  0.00     0.029 A 
HETATM    6  C5  UNL     1      19.906   4.914  50.294  1.00  0.00     0.133 A 
HETATM    7  N1  UNL     1      18.560   4.840  50.517  1.00  0.00    -0.253 NA
HETATM    8  C6  UNL     1      18.095   3.845  51.331  1.00  0.00     0.235 A 
HETATM    9  N2  UNL     1      18.892   2.935  51.925  1.00  0.00    -0.222 NA
HETATM   10  C7  UNL     1      20.243   2.998  51.711  1.00  0.00     0.162 A 
HETATM   11  N3  UNL     1      20.927   2.005  52.415  1.00  0.00    -0.241 NA
HETATM   12  C8  UNL     1      20.522   1.205  53.301  1.00  0.00     0.119 C 
HETATM   13  C9  UNL     1      21.251   0.183  54.023  1.00  0.00     0.019 C 
HETATM   14  C10 UNL     1      22.273  -0.565  54.392  1.00  0.00     0.001 C 
HETATM   15  C11 UNL     1      23.690  -0.857  54.198  1.00  0.00    -0.004 C 
HETATM   16  C12 UNL     1      24.892  -0.674  53.616  1.00  0.00    -0.022 C 
HETATM   17  C13 UNL     1      25.768   0.014  52.644  1.00  0.00     0.068 C 
HETATM   18  C14 UNL     1      26.924   0.723  53.190  1.00  0.00    -0.028 A 
HETATM   19  C15 UNL     1      27.632   0.016  54.125  1.00  0.00     0.010 A 
HETATM   20  C16 UNL     1      28.762   0.515  54.738  1.00  0.00     0.001 A 
HETATM   21  C17 UNL     1      29.281   1.765  54.469  1.00  0.00     0.002 A 
HETATM   22  C18 UNL     1      28.604   2.528  53.530  1.00  0.00     0.029 A 
HETATM   23  C19 UNL     1      27.493   1.990  52.951  1.00  0.00     0.035 A 
HETATM   24  N4  UNL     1      26.617   2.465  51.964  1.00  0.00    -0.382 N 
HETATM   25  C20 UNL     1      25.723   2.957  50.963  1.00  0.00     0.202 C 
HETATM   26  H16 UNL     1      26.516   3.373  52.531  1.00  0.00     0.160 HD
ENDROOT
TORSDOF 0
ENDMDL
MODEL 2
REMARK VINA RESULT:      -9.7      2.295      7.923
REMARK  0 active torsions:
REMARK  status: ('A' for Active; 'I' for Inactive)
ROOT
HETATM    1  O1  UNL     1      22.430   1.167  52.893  1.00  0.00    -0.291 OA
HETATM    2  C1  UNL     1      23.150   0.097  52.981  1.00  0.00     0.166 C 
HETATM    3  C2  UNL     1      24.246   0.896  53.340  1.00  0.00     0.053 C 
HETATM    4  C3  UNL     1      25.381   0.299  53.523  1.00  0.00     0.020 C 
HETATM    5  C4  UNL     1      26.732   0.696  53.885  1.00  0.00     0.029 A 
HETATM    6  C5  UNL     1      27.657   0.405  54.842  1.00  0.00     0.133 A 
HETATM    7  N1  UNL     1      28.874   1.027  54.822  1.00  0.00    -0.253 NA
HETATM    8  C6  UNL     1      29.119   1.931  53.827  1.00  0.00     0.235 A 
HETATM    9  N2  UNL     1      28.227   2.242  52.865  1.00  0.00    -0.222 NA
HETATM   10  C7  UNL     1      27.004   1.626  52.874  1.00  0.00     0.162 A 
HETATM   11  N3  UNL     1      26.190   2.075  51.831  1.00  0.00    -0.241 NA
HETATM   12  C8  UNL     1      26.346   3.031  51.026  1.00  0.00     0.119 C 
HETATM   13  C9  UNL     1      25.485   3.483  49.953  1.00  0.00     0.019 C 
HETATM   14  C10 UNL     1      24.440   3.513  49.149  1.00  0.00     0.001 C 
HETATM   15  C11 UNL     1      23.166   2.891  48.799  1.00  0.00    -0.004 C 
HETATM   16  C12 UNL     1      22.191   1.972  48.945  1.00  0.00    -0.022 C 
HETATM   17  C13 UNL     1      21.618   0.789  49.620  1.00  0.00     0.068 C 
HETATM   18  C14 UNL     1      20.316   0.964  50.260  1.00  0.00    -0.028 A 
HETATM   19  C15 UNL     1      19.394   1.629  49.497  1.00  0.00     0.010 A 
HETATM   20  C16 UNL     1      18.107   1.874  49.927  1.00  0.00     0.001 A 
HETATM   21  C17 UNL     1      17.631   1.476  51.159  1.00  0.00     0.002 A 
HETATM   22  C18 UNL     1      18.521   0.798  51.978  1.00  0.00     0.029 A 
HETATM   23  C19 UNL     1      19.782   0.580  51.507  1.00  0.00     0.035 A 
HETATM   24  N4  UNL     1      20.891  -0.086  52.048  1.00  0.00    -0.382 N 
HETATM   25  C20 UNL     1      22.021  -0.760  52.608  1.00  0.00     0.202 C 
HETATM   26  H16 UNL     1      20.769   0.496  52.944  1.00  0.00     0.160 HD
ENDROOT
TORSDOF 0
ENDMDL
MODEL 3
REMARK VINA RESULT:      -9.6      2.005      7.296
REMARK  0 active torsions:
REMARK  status: ('A' for Active; 'I' for Inactive)
ROOT
HETATM    1  O1  UNL     1      23.276   1.596  51.230  1.00  0.00    -0.291 OA
HETATM    2  C1  UNL     1      23.876   2.580  51.814  1.00  0.00     0.166 C 
HETATM    3  C2  UNL     1      24.924   1.709  52.148  1.00  0.00     0.053 C 
HETATM    4  C3  UNL     1      25.892   2.190  52.860  1.00  0.00     0.020 C 
HETATM    5  C4  UNL     1      27.134   1.688  53.424  1.00  0.00     0.029 A 
HETATM    6  C5  UNL     1      28.465   1.979  53.382  1.00  0.00     0.133 A 
HETATM    7  N1  UNL     1      29.349   1.225  54.101  1.00  0.00    -0.253 NA
HETATM    8  C6  UNL     1      28.857   0.191  54.847  1.00  0.00     0.235 A 
HETATM    9  N2  UNL     1      27.547  -0.124  54.912  1.00  0.00    -0.222 NA
HETATM   10  C7  UNL     1      26.651   0.622  54.196  1.00  0.00     0.162 A 
HETATM   11  N3  UNL     1      25.345   0.152  54.349  1.00  0.00    -0.241 NA
HETATM   12  C8  UNL     1      24.914  -0.901  54.889  1.00  0.00     0.119 C 
HETATM   13  C9  UNL     1      23.552  -1.373  55.033  1.00  0.00     0.019 C 
HETATM   14  C10 UNL     1      22.237  -1.375  54.925  1.00  0.00     0.001 C 
HETATM   15  C11 UNL     1      21.063  -0.658  54.439  1.00  0.00    -0.004 C 
HETATM   16  C12 UNL     1      20.444   0.376  53.836  1.00  0.00    -0.022 C 
HETATM   17  C13 UNL     1      20.480   1.686  53.153  1.00  0.00     0.068 C 
HETATM   18  C14 UNL     1      19.943   1.733  51.794  1.00  0.00    -0.028 A 
HETATM   19  C15 UNL     1      18.742   1.094  51.637  1.00  0.00     0.010 A 
HETATM   20  C16 UNL     1      18.075   1.048  50.431  1.00  0.00     0.001 A 
HETATM   21  C17 UNL     1      18.551   1.635  49.278  1.00  0.00     0.002 A 
HETATM   22  C18 UNL     1      19.766   2.297  49.375  1.00  0.00     0.029 A 
HETATM   23  C19 UNL     1      20.386   2.316  50.589  1.00  0.00     0.035 A 
HETATM   24  N4  UNL     1      21.577   2.910  51.034  1.00  0.00    -0.382 N 
HETATM   25  C20 UNL     1      22.795   3.511  51.479  1.00  0.00     0.202 C 
HETATM   26  H16 UNL     1      22.082   2.452  50.203  1.00  0.00     0.160 HD
ENDROOT
TORSDOF 0
ENDMDL
MODEL 4
REMARK VINA RESULT:      -9.2      2.197      6.497
REMARK  0 active torsions:
REMARK  status: ('A' for Active; 'I' for Inactive)
ROOT
HETATM    1  O1  UNL     1      21.691   1.917  50.813  1.00  0.00    -0.291 OA
HETATM    2  C1  UNL     1      21.879   3.151  51.149  1.00  0.00     0.166 C 
HETATM    3  C2  UNL     1      23.026   3.169  50.342  1.00  0.00     0.053 C 
HETATM    4  C3  UNL     1      23.726   4.258  50.330  1.00  0.00     0.020 C 
HETATM    5  C4  UNL     1      24.940   4.722  49.678  1.00  0.00     0.029 A 
HETATM    6  C5  UNL     1      25.334   5.743  48.866  1.00  0.00     0.133 A 
HETATM    7  N1  UNL     1      26.636   5.825  48.460  1.00  0.00    -0.253 NA
HETATM    8  C6  UNL     1      27.507   4.863  48.891  1.00  0.00     0.235 A 
HETATM    9  N2  UNL     1      27.150   3.840  49.694  1.00  0.00    -0.222 NA
HETATM   10  C7  UNL     1      25.849   3.747  50.107  1.00  0.00     0.162 A 
HETATM   11  N3  UNL     1      25.639   2.622  50.908  1.00  0.00    -0.241 NA
HETATM   12  C8  UNL     1      26.393   1.644  51.158  1.00  0.00     0.119 C 
HETATM   13  C9  UNL     1      26.153   0.483  51.990  1.00  0.00     0.019 C 
HETATM   14  C10 UNL     1      25.506  -0.332  52.800  1.00  0.00     0.001 C 
HETATM   15  C11 UNL     1      24.270  -0.574  53.537  1.00  0.00    -0.004 C 
HETATM   16  C12 UNL     1      23.024  -0.257  53.943  1.00  0.00    -0.022 C 
HETATM   17  C13 UNL     1      21.861   0.655  53.959  1.00  0.00     0.068 C 
HETATM   18  C14 UNL     1      20.597   0.117  53.460  1.00  0.00    -0.028 A 
HETATM   19  C15 UNL     1      20.289  -1.133  53.928  1.00  0.00     0.010 A 
HETATM   20  C16 UNL     1      19.130  -1.794  53.580  1.00  0.00     0.001 A 
HETATM   21  C17 UNL     1      18.180  -1.263  52.733  1.00  0.00     0.002 A 
HETATM   22  C18 UNL     1      18.438   0.001  52.226  1.00  0.00     0.029 A 
HETATM   23  C19 UNL     1      19.597   0.614  52.600  1.00  0.00     0.035 A 
HETATM   24  N4  UNL     1      20.137   1.875  52.308  1.00  0.00    -0.382 N 
HETATM   25  C20 UNL     1      20.685   3.159  51.999  1.00  0.00     0.202 C 
HETATM   26  H16 UNL     1      19.974   1.672  51.264  1.00  0.00     0.160 HD
ENDROOT
TORSDOF 0
ENDMDL
MODEL 5
REMARK VINA RESULT:      -9.0      2.869      5.615
REMARK  0 active torsions:
REMARK  status: ('A' for Active; 'I' for Inactive)
ROOT
HETATM    1  O1  UNL     1      25.776   2.106  52.421  1.00  0.00    -0.291 OA
HETATM    2  C1  UNL     1      26.319   1.839  51.279  1.00  0.00     0.166 C 
HETATM    3  C2  UNL     1      26.312   3.211  50.983  1.00  0.00     0.053 C 
HETATM    4  C3  UNL     1      26.742   3.569  49.816  1.00  0.00     0.020 C 
HETATM    5  C4  UNL     1      26.911   4.820  49.095  1.00  0.00     0.029 A 
HETATM    6  C5  UNL     1      27.909   5.514  48.478  1.00  0.00     0.133 A 
HETATM    7  N1  UNL     1      27.635   6.714  47.884  1.00  0.00    -0.253 NA
HETATM    8  C6  UNL     1      26.351   7.179  47.933  1.00  0.00     0.235 A 
HETATM    9  N2  UNL     1      25.341   6.519  48.535  1.00  0.00    -0.222 NA
HETATM   10  C7  UNL     1      25.601   5.316  49.134  1.00  0.00     0.162 A 
HETATM   11  N3  UNL     1      24.460   4.776  49.731  1.00  0.00    -0.241 NA
HETATM   12  C8  UNL     1      23.325   5.283  49.931  1.00  0.00     0.119 C 
HETATM   13  C9  UNL     1      22.154   4.706  50.558  1.00  0.00     0.019 C 
HETATM   14  C10 UNL     1      21.406   3.803  51.163  1.00  0.00     0.001 C 
HETATM   15  C11 UNL     1      21.345   2.447  51.699  1.00  0.00    -0.004 C 
HETATM   16  C12 UNL     1      21.861   1.232  51.971  1.00  0.00    -0.022 C 
HETATM   17  C13 UNL     1      22.972   0.258  51.928  1.00  0.00     0.068 C 
HETATM   18  C14 UNL     1      23.465  -0.233  53.214  1.00  0.00    -0.028 A 
HETATM   19  C15 UNL     1      22.482  -0.598  54.095  1.00  0.00     0.010 A 
HETATM   20  C16 UNL     1      22.755  -1.100  55.350  1.00  0.00     0.001 A 
HETATM   21  C17 UNL     1      24.035  -1.278  55.833  1.00  0.00     0.002 A 
HETATM   22  C18 UNL     1      25.073  -0.924  54.985  1.00  0.00     0.029 A 
HETATM   23  C19 UNL     1      24.752  -0.433  53.754  1.00  0.00     0.035 A 
HETATM   24  N4  UNL     1      25.535  -0.023  52.665  1.00  0.00    -0.382 N 
HETATM   25  C20 UNL     1      26.339   0.401  51.562  1.00  0.00     0.202 C 
HETATM   26  H16 UNL     1      26.094   0.601  53.339  1.00  0.00     0.160 HD
ENDROOT
TORSDOF 0
ENDMDL
MODEL 6
REMARK VINA RESULT:      -8.7      2.890      4.726
REMARK  0 active torsions:
REMARK  status: ('A' for Active; 'I' for Inactive)
ROOT
HETATM    1  O1  UNL     1      22.435  -1.250  52.912  1.00  0.00    -0.291 OA
HETATM    2  C1  UNL     1      21.605  -0.882  53.832  1.00  0.00     0.166 C 
HETATM    3  C2  UNL     1      20.548  -1.152  52.950  1.00  0.00     0.053 C 
HETATM    4  C3  UNL     1      19.349  -0.892  53.364  1.00  0.00     0.020 C 
HETATM    5  C4  UNL     1      18.004  -0.999  52.824  1.00  0.00     0.029 A 
HETATM    6  C5  UNL     1      16.820  -1.592  53.148  1.00  0.00     0.133 A 
HETATM    7  N1  UNL     1      15.735  -1.433  52.332  1.00  0.00    -0.253 NA
HETATM    8  C6  UNL     1      15.881  -0.673  51.206  1.00  0.00     0.235 A 
HETATM    9  N2  UNL     1      17.037  -0.073  50.857  1.00  0.00    -0.222 NA
HETATM   10  C7  UNL     1      18.131  -0.224  51.664  1.00  0.00     0.162 A 
HETATM   11  N3  UNL     1      19.250   0.436  51.151  1.00  0.00    -0.241 NA
HETATM   12  C8  UNL     1      19.433   0.983  50.031  1.00  0.00     0.119 C 
HETATM   13  C9  UNL     1      20.606   1.659  49.516  1.00  0.00     0.019 C 
HETATM   14  C10 UNL     1      21.832   2.146  49.497  1.00  0.00     0.001 C 
HETATM   15  C11 UNL     1      23.075   2.319  50.242  1.00  0.00    -0.004 C 
HETATM   16  C12 UNL     1      23.862   2.178  51.328  1.00  0.00    -0.022 C 
HETATM   17  C13 UNL     1      24.087   1.708  52.711  1.00  0.00     0.068 C 
HETATM   18  C14 UNL     1      25.168   0.744  52.909  1.00  0.00    -0.028 A 
HETATM   19  C15 UNL     1      26.335   1.061  52.267  1.00  0.00     0.010 A 
HETATM   20  C16 UNL     1      27.468   0.280  52.351  1.00  0.00     0.001 A 
HETATM   21  C17 UNL     1      27.531  -0.888  53.083  1.00  0.00     0.002 A 
HETATM   22  C18 UNL     1      26.378  -1.262  53.754  1.00  0.00     0.029 A 
HETATM   23  C19 UNL     1      25.284  -0.456  53.641  1.00  0.00     0.035 A 
HETATM   24  N4  UNL     1      24.000  -0.518  54.203  1.00  0.00    -0.382 N 
HETATM   25  C20 UNL     1      22.691  -0.592  54.773  1.00  0.00     0.202 C 
HETATM   26  H16 UNL     1      23.930  -1.535  53.859  1.00  0.00     0.160 HD
ENDROOT
TORSDOF 0
ENDMDL
MODEL 7
REMARK VINA RESULT:      -8.6      1.809      7.993
REMARK  0 active torsions:
REMARK  status: ('A' for Active; 'I' for Inactive)
ROOT
HETATM    1  O1  UNL     1      22.221   2.201  52.599  1.00  0.00    -0.291 OA
HETATM    2  C1  UNL     1      22.545   0.950  52.617  1.00  0.00     0.166 C 
HETATM    3  C2  UNL     1      23.804   1.309  53.121  1.00  0.00     0.053 C 
HETATM    4  C3  UNL     1      24.662   0.357  53.306  1.00  0.00     0.020 C 
HETATM    5  C4  UNL     1      26.030   0.254  53.786  1.00  0.00     0.029 A 
HETATM    6  C5  UNL     1      26.722  -0.402  54.761  1.00  0.00     0.133 A 
HETATM    7  N1  UNL     1      28.071  -0.219  54.877  1.00  0.00    -0.253 NA
HETATM    8  C6  UNL     1      28.685   0.629  53.997  1.00  0.00     0.235 A 
HETATM    9  N2  UNL     1      28.031   1.293  53.022  1.00  0.00    -0.222 NA
HETATM   10  C7  UNL     1      26.680   1.118  52.895  1.00  0.00     0.162 A 
HETATM   11  N3  UNL     1      26.152   1.893  51.860  1.00  0.00    -0.241 NA
HETATM   12  C8  UNL     1      26.681   2.803  51.169  1.00  0.00     0.119 C 
HETATM   13  C9  UNL     1      26.113   3.599  50.100  1.00  0.00     0.019 C 
HETATM   14  C10 UNL     1      25.210   4.037  49.244  1.00  0.00     0.001 C 
HETATM   15  C11 UNL     1      23.841   3.902  48.757  1.00  0.00    -0.004 C 
HETATM   16  C12 UNL     1      22.611   3.350  48.749  1.00  0.00    -0.022 C 
HETATM   17  C13 UNL     1      21.627   2.374  49.262  1.00  0.00     0.068 C 
HETATM   18  C14 UNL     1      20.401   2.920  49.840  1.00  0.00    -0.028 A 
HETATM   19  C15 UNL     1      19.817   3.911  49.097  1.00  0.00     0.010 A 
HETATM   20  C16 UNL     1      18.646   4.533  49.475  1.00  0.00     0.001 A 
HETATM   21  C17 UNL     1      17.958   4.219  50.629  1.00  0.00     0.002 A 
HETATM   22  C18 UNL     1      18.503   3.223  51.424  1.00  0.00     0.029 A 
HETATM   23  C19 UNL     1      19.662   2.637  51.007  1.00  0.00     0.035 A 
HETATM   24  N4  UNL     1      20.442   1.600  51.539  1.00  0.00    -0.382 N 
HETATM   25  C20 UNL     1      21.237   0.548  52.092  1.00  0.00     0.202 C 
HETATM   26  H16 UNL     1      20.435   2.117  52.482  1.00  0.00     0.160 HD
ENDROOT
TORSDOF 0
ENDMDL
MODEL 8
REMARK VINA RESULT:      -8.3      6.759      8.701
REMARK  0 active torsions:
REMARK  status: ('A' for Active; 'I' for Inactive)
ROOT
HETATM    1  O1  UNL     1      26.636   9.601  49.908  1.00  0.00    -0.291 OA
HETATM    2  C1  UNL     1      25.499   9.681  49.300  1.00  0.00     0.166 C 
HETATM    3  C2  UNL     1      25.053   8.578  50.043  1.00  0.00     0.053 C 
HETATM    4  C3  UNL     1      23.864   8.132  49.788  1.00  0.00     0.020 C 
HETATM    5  C4  UNL     1      23.016   7.059  50.280  1.00  0.00     0.029 A 
HETATM    6  C5  UNL     1      21.777   6.909  50.830  1.00  0.00     0.133 A 
HETATM    7  N1  UNL     1      21.328   5.663  51.163  1.00  0.00    -0.253 NA
HETATM    8  C6  UNL     1      22.151   4.597  50.928  1.00  0.00     0.235 A 
HETATM    9  N2  UNL     1      23.380   4.709  50.386  1.00  0.00    -0.222 NA
HETATM   10  C7  UNL     1      23.843   5.953  50.048  1.00  0.00     0.162 A 
HETATM   11  N3  UNL     1      25.137   5.900  49.525  1.00  0.00    -0.241 NA
HETATM   12  C8  UNL     1      25.959   4.948  49.474  1.00  0.00     0.119 C 
HETATM   13  C9  UNL     1      27.302   4.916  48.931  1.00  0.00     0.019 C 
HETATM   14  C10 UNL     1      28.398   5.357  48.344  1.00  0.00     0.001 C 
HETATM   15  C11 UNL     1      29.060   6.499  47.722  1.00  0.00    -0.004 C 
HETATM   16  C12 UNL     1      29.118   7.778  47.298  1.00  0.00    -0.022 C 
HETATM   17  C13 UNL     1      28.506   9.111  47.119  1.00  0.00     0.068 C 
HETATM   18  C14 UNL     1      29.177  10.235  47.768  1.00  0.00    -0.028 A 
HETATM   19  C15 UNL     1      30.537  10.256  47.600  1.00  0.00     0.010 A 
HETATM   20  C16 UNL     1      31.337  11.249  48.126  1.00  0.00     0.001 A 
HETATM   21  C17 UNL     1      30.847  12.305  48.865  1.00  0.00     0.002 A 
HETATM   22  C18 UNL     1      29.476  12.337  49.069  1.00  0.00     0.029 A 
HETATM   23  C19 UNL     1      28.727  11.333  48.529  1.00  0.00     0.035 A 
HETATM   24  N4  UNL     1      27.347  11.085  48.514  1.00  0.00    -0.382 N 
HETATM   25  C20 UNL     1      25.940  10.834  48.510  1.00  0.00     0.202 C 
HETATM   26  H16 UNL     1      27.341  11.216  49.582  1.00  0.00     0.160 HD
ENDROOT
TORSDOF 0
ENDMDL
MODEL 9
REMARK VINA RESULT:      -8.1      3.292      6.379
REMARK  0 active torsions:
REMARK  status: ('A' for Active; 'I' for Inactive)
ROOT
HETATM    1  O1  UNL     1      23.456   3.065  51.840  1.00  0.00    -0.291 OA
HETATM    2  C1  UNL     1      24.515   2.849  51.132  1.00  0.00     0.166 C 
HETATM    3  C2  UNL     1      24.449   4.175  50.676  1.00  0.00     0.053 C 
HETATM    4  C3  UNL     1      25.331   4.547  49.804  1.00  0.00     0.020 C 
HETATM    5  C4  UNL     1      25.641   5.766  49.076  1.00  0.00     0.029 A 
HETATM    6  C5  UNL     1      26.698   6.609  48.901  1.00  0.00     0.133 A 
HETATM    7  N1  UNL     1      26.571   7.698  48.086  1.00  0.00    -0.253 NA
HETATM    8  C6  UNL     1      25.371   7.903  47.467  1.00  0.00     0.235 A 
HETATM    9  N2  UNL     1      24.305   7.090  47.617  1.00  0.00    -0.222 NA
HETATM   10  C7  UNL     1      24.418   5.997  48.432  1.00  0.00     0.162 A 
HETATM   11  N3  UNL     1      23.224   5.276  48.501  1.00  0.00    -0.241 NA
HETATM   12  C8  UNL     1      22.072   5.560  48.077  1.00  0.00     0.119 C 
HETATM   13  C9  UNL     1      20.844   4.798  48.163  1.00  0.00     0.019 C 
HETATM   14  C10 UNL     1      20.039   3.799  48.472  1.00  0.00     0.001 C 
HETATM   15  C11 UNL     1      19.927   2.488  49.104  1.00  0.00    -0.004 C 
HETATM   16  C12 UNL     1      20.420   1.415  49.753  1.00  0.00    -0.022 C 
HETATM   17  C13 UNL     1      21.544   0.678  50.369  1.00  0.00     0.068 C 
HETATM   18  C14 UNL     1      21.421   0.364  51.791  1.00  0.00    -0.028 A 
HETATM   19  C15 UNL     1      20.201  -0.140  52.157  1.00  0.00     0.010 A 
HETATM   20  C16 UNL     1      19.906  -0.510  53.452  1.00  0.00     0.001 A 
HETATM   21  C17 UNL     1      20.805  -0.407  54.494  1.00  0.00     0.002 A 
HETATM   22  C18 UNL     1      22.058   0.098  54.184  1.00  0.00     0.029 A 
HETATM   23  C19 UNL     1      22.302   0.449  52.889  1.00  0.00     0.035 A 
HETATM   24  N4  UNL     1      23.443   0.947  52.243  1.00  0.00    -0.382 N 
HETATM   25  C20 UNL     1      24.607   1.461  51.592  1.00  0.00     0.202 C 
HETATM   26  H16 UNL     1      23.509   1.703  53.004  1.00  0.00     0.160 HD
ENDROOT
TORSDOF 0
ENDMDL
