MODEL 1
REMARK VINA RESULT:      -6.8      0.000      0.000
REMARK  9 active torsions:
REMARK  status: ('A' for Active; 'I' for Inactive)
REMARK    1  A    between atoms: C3_3  and  C4_5 
REMARK    2  A    between atoms: C5_6  and  C6_7 
REMARK    3  A    between atoms: C6_7  and  N1_8 
REMARK    4  A    between atoms: N1_8  and  C7_9 
REMARK    5  A    between atoms: C8_11  and  N3_12 
REMARK    6  A    between atoms: N3_12  and  C9_13 
REMARK    7  A    between atoms: C9_13  and  C10_14 
REMARK    8  A    between atoms: C10_14  and  N4_15 
REMARK    9  A    between atoms: C15_22  and  O2_23 
ROOT
HETATM    1  C7  UNL     1      26.784   1.322  53.792  1.00  0.00     0.436 A 
HETATM    2  N2  UNL     1      25.364   1.204  53.522  1.00  0.00    -0.060 NA
HETATM    3  C8  UNL     1      25.052  -0.052  53.542  1.00  0.00     0.722 A 
HETATM    4  N5  UNL     1      26.216  -0.858  53.822  1.00  0.00    -0.039 NA
HETATM    5  C15 UNL     1      27.255  -0.078  53.975  1.00  0.00     0.215 A 
ENDROOT
BRANCH   3   6
HETATM    6  N3  UNL     1      23.719  -0.560  53.314  1.00  0.00    -0.221 N 
HETATM    7  H11 UNL     1      23.629  -1.588  53.106  1.00  0.00     0.177 HD
BRANCH   6   8
HETATM    8  C9  UNL     1      22.604   0.397  53.393  1.00  0.00     0.168 C 
BRANCH   8   9
HETATM    9  C10 UNL     1      21.793   0.334  52.147  1.00  0.00     0.292 C 
BRANCH   9  10
HETATM   10  N4  UNL     1      21.873   1.472  51.288  1.00  0.00     0.094 N 
HETATM   11  C11 UNL     1      20.546   1.703  50.742  1.00  0.00     0.298 C 
HETATM   12  C12 UNL     1      19.541   1.985  51.818  1.00  0.00     0.198 C 
HETATM   13  O1  UNL     1      19.978   2.958  52.714  1.00  0.00    -0.388 OA
HETATM   14  C13 UNL     1      21.110   3.622  52.245  1.00  0.00     0.198 C 
HETATM   15  C14 UNL     1      22.256   2.615  52.096  1.00  0.00     0.298 C 
ENDBRANCH   9  10
ENDBRANCH   8   9
ENDBRANCH   6   8
ENDBRANCH   3   6
BRANCH   1  16
HETATM   16  N1  UNL     1      27.479   2.027  52.748  1.00  0.00     0.120 N 
HETATM   17  H9  UNL     1      28.424   1.621  52.678  1.00  0.00     0.319 HD
BRANCH  16  18
HETATM   18  C6  UNL     1      26.797   1.780  51.495  1.00  0.00     0.300 C 
BRANCH  18  19
HETATM   19  C5  UNL     1      26.420   3.089  50.852  1.00  0.00     0.005 C 
HETATM   20  C4  UNL     1      26.406   3.447  49.580  1.00  0.00     0.021 C 
BRANCH  20  21
HETATM   21  C3  UNL     1      25.997   4.793  49.178  1.00  0.00     0.029 C 
HETATM   22  C2  UNL     1      26.932   5.556  48.649  1.00  0.00    -0.007 C 
HETATM   23  C1  UNL     1      28.347   5.107  48.462  1.00  0.00     0.038 C 
HETATM   24 CL1  UNL     1      24.338   5.273  49.416  1.00  0.00    -0.085 Cl
ENDBRANCH  20  21
ENDBRANCH  18  19
ENDBRANCH  16  18
ENDBRANCH   1  16
BRANCH   5  25
HETATM   25  O2  UNL     1      28.401  -0.805  54.247  1.00  0.00    -0.339 OA
HETATM   26  C16 UNL     1      29.606  -0.683  53.508  1.00  0.00     0.211 C 
ENDBRANCH   5  25
TORSDOF 9
ENDMDL
MODEL 2
REMARK VINA RESULT:      -6.6      3.978      7.102
REMARK  9 active torsions:
REMARK  status: ('A' for Active; 'I' for Inactive)
REMARK    1  A    between atoms: C3_3  and  C4_5 
REMARK    2  A    between atoms: C5_6  and  C6_7 
REMARK    3  A    between atoms: C6_7  and  N1_8 
REMARK    4  A    between atoms: N1_8  and  C7_9 
REMARK    5  A    between atoms: C8_11  and  N3_12 
REMARK    6  A    between atoms: N3_12  and  C9_13 
REMARK    7  A    between atoms: C9_13  and  C10_14 
REMARK    8  A    between atoms: C10_14  and  N4_15 
REMARK    9  A    between atoms: C15_22  and  O2_23 
ROOT
HETATM    1  C7  UNL     1      27.822   5.345  48.499  1.00  0.00     0.436 A 
HETATM    2  N2  UNL     1      27.558   3.985  48.927  1.00  0.00    -0.060 NA
HETATM    3  C8  UNL     1      26.450   3.979  49.597  1.00  0.00     0.722 A 
HETATM    4  N5  UNL     1      25.895   5.310  49.668  1.00  0.00    -0.039 NA
HETATM    5  C15 UNL     1      26.680   6.140  49.030  1.00  0.00     0.215 A 
ENDROOT
BRANCH   3   6
HETATM    6  N3  UNL     1      25.863   2.797  50.185  1.00  0.00    -0.221 N 
HETATM    7  H11 UNL     1      25.473   2.079  49.523  1.00  0.00     0.177 HD
BRANCH   6   8
HETATM    8  C9  UNL     1      25.863   2.698  51.653  1.00  0.00     0.168 C 
BRANCH   8   9
HETATM    9  C10 UNL     1      27.025   1.887  52.106  1.00  0.00     0.292 C 
BRANCH   9  10
HETATM   10  N4  UNL     1      27.352   1.979  53.493  1.00  0.00     0.094 N 
HETATM   11  C11 UNL     1      26.352   1.222  54.229  1.00  0.00     0.298 C 
HETATM   12  C12 UNL     1      26.344  -0.224  53.833  1.00  0.00     0.198 C 
HETATM   13  O1  UNL     1      27.618  -0.786  53.839  1.00  0.00    -0.388 OA
HETATM   14  C13 UNL     1      28.546   0.043  54.466  1.00  0.00     0.198 C 
HETATM   15  C14 UNL     1      28.650   1.359  53.688  1.00  0.00     0.298 C 
ENDBRANCH   9  10
ENDBRANCH   8   9
ENDBRANCH   6   8
ENDBRANCH   3   6
BRANCH   1  16
HETATM   16  N1  UNL     1      29.105   5.817  48.948  1.00  0.00     0.120 N 
HETATM   17  H9  UNL     1      29.619   5.004  49.318  1.00  0.00     0.319 HD
BRANCH  16  18
HETATM   18  C6  UNL     1      29.834   6.320  47.804  1.00  0.00     0.300 C 
BRANCH  18  19
HETATM   19  C5  UNL     1      31.187   5.661  47.731  1.00  0.00     0.005 C 
HETATM   20  C4  UNL     1      31.516   4.407  47.473  1.00  0.00     0.021 C 
BRANCH  20  21
HETATM   21  C3  UNL     1      32.916   3.982  47.454  1.00  0.00     0.029 C 
HETATM   22  C2  UNL     1      33.147   2.745  47.067  1.00  0.00    -0.007 C 
HETATM   23  C1  UNL     1      32.062   1.794  46.670  1.00  0.00     0.038 C 
HETATM   24 CL1  UNL     1      34.147   5.124  47.926  1.00  0.00    -0.085 Cl
ENDBRANCH  20  21
ENDBRANCH  18  19
ENDBRANCH  16  18
ENDBRANCH   1  16
BRANCH   5  25
HETATM   25  O2  UNL     1      26.191   7.434  49.069  1.00  0.00    -0.339 OA
HETATM   26  C16 UNL     1      26.680   8.436  49.946  1.00  0.00     0.211 C 
ENDBRANCH   5  25
TORSDOF 9
ENDMDL
MODEL 3
REMARK VINA RESULT:      -6.6      2.732      5.272
REMARK  9 active torsions:
REMARK  status: ('A' for Active; 'I' for Inactive)
REMARK    1  A    between atoms: C3_3  and  C4_5 
REMARK    2  A    between atoms: C5_6  and  C6_7 
REMARK    3  A    between atoms: C6_7  and  N1_8 
REMARK    4  A    between atoms: N1_8  and  C7_9 
REMARK    5  A    between atoms: C8_11  and  N3_12 
REMARK    6  A    between atoms: N3_12  and  C9_13 
REMARK    7  A    between atoms: C9_13  and  C10_14 
REMARK    8  A    between atoms: C10_14  and  N4_15 
REMARK    9  A    between atoms: C15_22  and  O2_23 
ROOT
HETATM    1  C7  UNL     1      26.704  -0.581  52.285  1.00  0.00     0.436 A 
HETATM    2  N2  UNL     1      26.309   0.659  51.644  1.00  0.00    -0.060 NA
HETATM    3  C8  UNL     1      27.062   1.607  52.101  1.00  0.00     0.722 A 
HETATM    4  N5  UNL     1      28.002   1.088  53.065  1.00  0.00    -0.039 NA
HETATM    5  C15 UNL     1      27.817  -0.201  53.197  1.00  0.00     0.215 A 
ENDROOT
BRANCH   3   6
HETATM    6  N3  UNL     1      26.962   2.990  51.692  1.00  0.00    -0.221 N 
HETATM    7  H11 UNL     1      27.191   3.719  52.416  1.00  0.00     0.177 HD
BRANCH   6   8
HETATM    8  C9  UNL     1      26.552   3.260  50.305  1.00  0.00     0.168 C 
BRANCH   8   9
HETATM    9  C10 UNL     1      25.197   3.873  50.288  1.00  0.00     0.292 C 
BRANCH   9  10
HETATM   10  N4  UNL     1      24.968   4.862  49.283  1.00  0.00     0.094 N 
HETATM   11  C11 UNL     1      23.682   5.481  49.563  1.00  0.00     0.298 C 
HETATM   12  C12 UNL     1      23.665   6.148  50.905  1.00  0.00     0.198 C 
HETATM   13  O1  UNL     1      24.764   6.979  51.102  1.00  0.00    -0.388 OA
HETATM   14  C13 UNL     1      25.464   7.201  49.918  1.00  0.00     0.198 C 
HETATM   15  C14 UNL     1      26.009   5.866  49.400  1.00  0.00     0.298 C 
ENDBRANCH   9  10
ENDBRANCH   8   9
ENDBRANCH   6   8
ENDBRANCH   3   6
BRANCH   1  16
HETATM   16  N1  UNL     1      25.604  -1.218  52.960  1.00  0.00     0.120 N 
HETATM   17  H9  UNL     1      25.974  -2.061  53.423  1.00  0.00     0.319 HD
BRANCH  16  18
HETATM   18  C6  UNL     1      25.118  -0.324  53.990  1.00  0.00     0.300 C 
BRANCH  18  19
HETATM   19  C5  UNL     1      23.625  -0.168  53.868  1.00  0.00     0.005 C 
HETATM   20  C4  UNL     1      22.888   0.260  52.858  1.00  0.00     0.021 C 
BRANCH  20  21
HETATM   21  C3  UNL     1      21.430   0.328  52.963  1.00  0.00     0.029 C 
HETATM   22  C2  UNL     1      20.767   0.457  51.832  1.00  0.00    -0.007 C 
HETATM   23  C1  UNL     1      21.434   0.540  50.495  1.00  0.00     0.038 C 
HETATM   24 CL1  UNL     1      20.695   0.229  54.541  1.00  0.00    -0.085 Cl
ENDBRANCH  20  21
ENDBRANCH  18  19
ENDBRANCH  16  18
ENDBRANCH   1  16
BRANCH   5  25
HETATM   25  O2  UNL     1      28.697  -0.749  54.114  1.00  0.00    -0.339 OA
HETATM   26  C16 UNL     1      30.058  -1.029  53.830  1.00  0.00     0.211 C 
ENDBRANCH   5  25
TORSDOF 9
ENDMDL
MODEL 4
REMARK VINA RESULT:      -6.5      1.864      2.485
REMARK  9 active torsions:
REMARK  status: ('A' for Active; 'I' for Inactive)
REMARK    1  A    between atoms: C3_3  and  C4_5 
REMARK    2  A    between atoms: C5_6  and  C6_7 
REMARK    3  A    between atoms: C6_7  and  N1_8 
REMARK    4  A    between atoms: N1_8  and  C7_9 
REMARK    5  A    between atoms: C8_11  and  N3_12 
REMARK    6  A    between atoms: N3_12  and  C9_13 
REMARK    7  A    between atoms: C9_13  and  C10_14 
REMARK    8  A    between atoms: C10_14  and  N4_15 
REMARK    9  A    between atoms: C15_22  and  O2_23 
ROOT
HETATM    1  C7  UNL     1      25.519   0.718  53.384  1.00  0.00     0.436 A 
HETATM    2  N2  UNL     1      24.127   0.328  53.498  1.00  0.00    -0.060 NA
HETATM    3  C8  UNL     1      24.054  -0.673  54.314  1.00  0.00     0.722 A 
HETATM    4  N5  UNL     1      25.365  -1.026  54.803  1.00  0.00    -0.039 NA
HETATM    5  C15 UNL     1      26.253  -0.224  54.273  1.00  0.00     0.215 A 
ENDROOT
BRANCH   3   6
HETATM    6  N3  UNL     1      22.822  -1.336  54.676  1.00  0.00    -0.221 N 
HETATM    7  H11 UNL     1      22.864  -2.379  54.815  1.00  0.00     0.177 HD
BRANCH   6   8
HETATM    8  C9  UNL     1      21.619  -0.501  54.822  1.00  0.00     0.168 C 
BRANCH   8   9
HETATM    9  C10 UNL     1      20.660  -0.800  53.724  1.00  0.00     0.292 C 
BRANCH   9  10
HETATM   10  N4  UNL     1      19.695   0.214  53.441  1.00  0.00     0.094 N 
HETATM   11  C11 UNL     1      20.410   1.365  52.914  1.00  0.00     0.298 C 
HETATM   12  C12 UNL     1      21.143   1.035  51.649  1.00  0.00     0.198 C 
HETATM   13  O1  UNL     1      20.338   0.377  50.722  1.00  0.00    -0.388 OA
HETATM   14  C13 UNL     1      18.992   0.427  51.079  1.00  0.00     0.198 C 
HETATM   15  C14 UNL     1      18.801  -0.294  52.417  1.00  0.00     0.298 C 
ENDBRANCH   9  10
ENDBRANCH   8   9
ENDBRANCH   6   8
ENDBRANCH   3   6
BRANCH   1  16
HETATM   16  N1  UNL     1      25.981   0.695  52.021  1.00  0.00     0.120 N 
HETATM   17  H9  UNL     1      25.173   0.911  51.419  1.00  0.00     0.319 HD
BRANCH  16  18
HETATM   18  C6  UNL     1      26.957   1.750  51.850  1.00  0.00     0.300 C 
BRANCH  18  19
HETATM   19  C5  UNL     1      26.520   2.674  50.743  1.00  0.00     0.005 C 
HETATM   20  C4  UNL     1      25.501   3.513  50.678  1.00  0.00     0.021 C 
BRANCH  20  21
HETATM   21  C3  UNL     1      25.265   4.325  49.484  1.00  0.00     0.029 C 
HETATM   22  C2  UNL     1      24.090   4.185  48.904  1.00  0.00    -0.007 C 
HETATM   23  C1  UNL     1      23.034   3.251  49.405  1.00  0.00     0.038 C 
HETATM   24 CL1  UNL     1      26.524   5.398  48.935  1.00  0.00    -0.085 Cl
ENDBRANCH  20  21
ENDBRANCH  18  19
ENDBRANCH  16  18
ENDBRANCH   1  16
BRANCH   5  25
HETATM   25  O2  UNL     1      27.532  -0.521  54.712  1.00  0.00    -0.339 OA
HETATM   26  C16 UNL     1      28.595   0.418  54.736  1.00  0.00     0.211 C 
ENDBRANCH   5  25
TORSDOF 9
ENDMDL
MODEL 5
REMARK VINA RESULT:      -6.5      2.905      7.231
REMARK  9 active torsions:
REMARK  status: ('A' for Active; 'I' for Inactive)
REMARK    1  A    between atoms: C3_3  and  C4_5 
REMARK    2  A    between atoms: C5_6  and  C6_7 
REMARK    3  A    between atoms: C6_7  and  N1_8 
REMARK    4  A    between atoms: N1_8  and  C7_9 
REMARK    5  A    between atoms: C8_11  and  N3_12 
REMARK    6  A    between atoms: N3_12  and  C9_13 
REMARK    7  A    between atoms: C9_13  and  C10_14 
REMARK    8  A    between atoms: C10_14  and  N4_15 
REMARK    9  A    between atoms: C15_22  and  O2_23 
ROOT
HETATM    1  C7  UNL     1      23.120   3.668  50.944  1.00  0.00     0.436 A 
HETATM    2  N2  UNL     1      24.391   3.669  51.642  1.00  0.00    -0.060 NA
HETATM    3  C8  UNL     1      25.323   3.399  50.785  1.00  0.00     0.722 A 
HETATM    4  N5  UNL     1      24.759   3.199  49.471  1.00  0.00    -0.039 NA
HETATM    5  C15 UNL     1      23.461   3.351  49.530  1.00  0.00     0.215 A 
ENDROOT
BRANCH   3   6
HETATM    6  N3  UNL     1      26.727   3.311  51.113  1.00  0.00    -0.221 N 
HETATM    7  H11 UNL     1      27.379   3.954  50.594  1.00  0.00     0.177 HD
BRANCH   6   8
HETATM    8  C9  UNL     1      27.124   2.337  52.141  1.00  0.00     0.168 C 
BRANCH   8   9
HETATM    9  C10 UNL     1      26.715   0.968  51.727  1.00  0.00     0.292 C 
BRANCH   9  10
HETATM   10  N4  UNL     1      25.914   0.243  52.661  1.00  0.00     0.094 N 
HETATM   11  C11 UNL     1      26.440  -1.111  52.731  1.00  0.00     0.298 C 
HETATM   12  C12 UNL     1      27.863  -1.133  53.202  1.00  0.00     0.198 C 
HETATM   13  O1  UNL     1      28.055  -0.374  54.354  1.00  0.00    -0.388 OA
HETATM   14  C13 UNL     1      26.845  -0.007  54.939  1.00  0.00     0.198 C 
HETATM   15  C14 UNL     1      26.061   0.874  53.959  1.00  0.00     0.298 C 
ENDBRANCH   9  10
ENDBRANCH   8   9
ENDBRANCH   6   8
ENDBRANCH   3   6
BRANCH   1  16
HETATM   16  N1  UNL     1      22.181   2.745  51.527  1.00  0.00     0.120 N 
HETATM   17  H9  UNL     1      21.963   2.036  50.812  1.00  0.00     0.319 HD
BRANCH  16  18
HETATM   18  C6  UNL     1      22.825   2.074  52.635  1.00  0.00     0.300 C 
BRANCH  18  19
HETATM   19  C5  UNL     1      21.952   0.951  53.129  1.00  0.00     0.005 C 
HETATM   20  C4  UNL     1      20.770   0.536  52.708  1.00  0.00     0.021 C 
BRANCH  20  21
HETATM   21  C3  UNL     1      20.094  -0.594  53.346  1.00  0.00     0.029 C 
HETATM   22  C2  UNL     1      18.842  -0.802  52.994  1.00  0.00    -0.007 C 
HETATM   23  C1  UNL     1      18.115   0.053  52.006  1.00  0.00     0.038 C 
HETATM   24 CL1  UNL     1      20.980  -1.563  54.494  1.00  0.00    -0.085 Cl
ENDBRANCH  20  21
ENDBRANCH  18  19
ENDBRANCH  16  18
ENDBRANCH   1  16
BRANCH   5  25
HETATM   25  O2  UNL     1      22.870   3.169  48.291  1.00  0.00    -0.339 OA
HETATM   26  C16 UNL     1      22.241   1.964  47.887  1.00  0.00     0.211 C 
ENDBRANCH   5  25
TORSDOF 9
ENDMDL
MODEL 6
REMARK VINA RESULT:      -6.5      3.896      8.428
REMARK  9 active torsions:
REMARK  status: ('A' for Active; 'I' for Inactive)
REMARK    1  A    between atoms: C3_3  and  C4_5 
REMARK    2  A    between atoms: C5_6  and  C6_7 
REMARK    3  A    between atoms: C6_7  and  N1_8 
REMARK    4  A    between atoms: N1_8  and  C7_9 
REMARK    5  A    between atoms: C8_11  and  N3_12 
REMARK    6  A    between atoms: N3_12  and  C9_13 
REMARK    7  A    between atoms: C9_13  and  C10_14 
REMARK    8  A    between atoms: C10_14  and  N4_15 
REMARK    9  A    between atoms: C15_22  and  O2_23 
ROOT
HETATM    1  C7  UNL     1      24.891   3.801  50.600  1.00  0.00     0.436 A 
HETATM    2  N2  UNL     1      25.241   4.910  49.733  1.00  0.00    -0.060 NA
HETATM    3  C8  UNL     1      26.477   4.767  49.374  1.00  0.00     0.722 A 
HETATM    4  N5  UNL     1      27.040   3.574  49.959  1.00  0.00    -0.039 NA
HETATM    5  C15 UNL     1      26.130   2.980  50.689  1.00  0.00     0.215 A 
ENDROOT
BRANCH   3   6
HETATM    6  N3  UNL     1      27.180   5.683  48.506  1.00  0.00    -0.221 N 
HETATM    7  H11 UNL     1      26.620   6.471  48.090  1.00  0.00     0.177 HD
BRANCH   6   8
HETATM    8  C9  UNL     1      28.614   5.440  48.280  1.00  0.00     0.168 C 
BRANCH   8   9
HETATM    9  C10 UNL     1      29.291   6.712  47.912  1.00  0.00     0.292 C 
BRANCH   9  10
HETATM   10  N4  UNL     1      30.599   6.587  47.352  1.00  0.00     0.094 N 
HETATM   11  C11 UNL     1      31.423   7.640  47.923  1.00  0.00     0.298 C 
HETATM   12  C12 UNL     1      31.527   7.521  49.414  1.00  0.00     0.198 C 
HETATM   13  O1  UNL     1      31.864   6.234  49.824  1.00  0.00    -0.388 OA
HETATM   14  C13 UNL     1      32.286   5.445  48.756  1.00  0.00     0.198 C 
HETATM   15  C14 UNL     1      31.135   5.299  47.754  1.00  0.00     0.298 C 
ENDBRANCH   9  10
ENDBRANCH   8   9
ENDBRANCH   6   8
ENDBRANCH   3   6
BRANCH   1  16
HETATM   16  N1  UNL     1      24.406   4.244  51.880  1.00  0.00     0.120 N 
HETATM   17  H9  UNL     1      24.211   5.253  51.803  1.00  0.00     0.319 HD
BRANCH  16  18
HETATM   18  C6  UNL     1      23.154   3.570  52.154  1.00  0.00     0.300 C 
BRANCH  18  19
HETATM   19  C5  UNL     1      23.422   2.254  52.835  1.00  0.00     0.005 C 
HETATM   20  C4  UNL     1      22.776   1.103  52.761  1.00  0.00     0.021 C 
BRANCH  20  21
HETATM   21  C3  UNL     1      23.222  -0.064  53.522  1.00  0.00     0.029 C 
HETATM   22  C2  UNL     1      22.357  -0.571  54.377  1.00  0.00    -0.007 C 
HETATM   23  C1  UNL     1      20.989  -0.005  54.592  1.00  0.00     0.038 C 
HETATM   24 CL1  UNL     1      24.825  -0.689  53.240  1.00  0.00    -0.085 Cl
ENDBRANCH  20  21
ENDBRANCH  18  19
ENDBRANCH  16  18
ENDBRANCH   1  16
BRANCH   5  25
HETATM   25  O2  UNL     1      26.622   1.826  51.275  1.00  0.00    -0.339 OA
HETATM   26  C16 UNL     1      27.242   1.792  52.550  1.00  0.00     0.211 C 
ENDBRANCH   5  25
TORSDOF 9
ENDMDL
MODEL 7
REMARK VINA RESULT:      -6.5      2.909      5.912
REMARK  9 active torsions:
REMARK  status: ('A' for Active; 'I' for Inactive)
REMARK    1  A    between atoms: C3_3  and  C4_5 
REMARK    2  A    between atoms: C5_6  and  C6_7 
REMARK    3  A    between atoms: C6_7  and  N1_8 
REMARK    4  A    between atoms: N1_8  and  C7_9 
REMARK    5  A    between atoms: C8_11  and  N3_12 
REMARK    6  A    between atoms: N3_12  and  C9_13 
REMARK    7  A    between atoms: C9_13  and  C10_14 
REMARK    8  A    between atoms: C10_14  and  N4_15 
REMARK    9  A    between atoms: C15_22  and  O2_23 
ROOT
HETATM    1  C7  UNL     1      23.728   0.533  53.126  1.00  0.00     0.436 A 
HETATM    2  N2  UNL     1      24.139   1.454  52.083  1.00  0.00    -0.060 NA
HETATM    3  C8  UNL     1      23.147   1.609  51.267  1.00  0.00     0.722 A 
HETATM    4  N5  UNL     1      22.015   0.820  51.690  1.00  0.00    -0.039 NA
HETATM    5  C15 UNL     1      22.324   0.173  52.784  1.00  0.00     0.215 A 
ENDROOT
BRANCH   3   6
HETATM    6  N3  UNL     1      23.184   2.457  50.098  1.00  0.00    -0.221 N 
HETATM    7  H11 UNL     1      22.291   2.550  49.548  1.00  0.00     0.177 HD
BRANCH   6   8
HETATM    8  C9  UNL     1      24.459   3.118  49.778  1.00  0.00     0.168 C 
BRANCH   8   9
HETATM    9  C10 UNL     1      24.339   4.584  49.997  1.00  0.00     0.292 C 
BRANCH   9  10
HETATM   10  N4  UNL     1      24.697   5.415  48.892  1.00  0.00     0.094 N 
HETATM   11  C11 UNL     1      24.019   6.690  49.065  1.00  0.00     0.298 C 
HETATM   12  C12 UNL     1      24.433   7.374  50.332  1.00  0.00     0.198 C 
HETATM   13  O1  UNL     1      25.816   7.427  50.483  1.00  0.00    -0.388 OA
HETATM   14  C13 UNL     1      26.478   7.081  49.307  1.00  0.00     0.198 C 
HETATM   15  C14 UNL     1      26.131   5.633  48.943  1.00  0.00     0.298 C 
ENDBRANCH   9  10
ENDBRANCH   8   9
ENDBRANCH   6   8
ENDBRANCH   3   6
BRANCH   1  16
HETATM   16  N1  UNL     1      24.603  -0.605  53.222  1.00  0.00     0.120 N 
HETATM   17  H9  UNL     1      25.347  -0.482  52.520  1.00  0.00     0.319 HD
BRANCH  16  18
HETATM   18  C6  UNL     1      25.222  -0.598  54.530  1.00  0.00     0.300 C 
BRANCH  18  19
HETATM   19  C5  UNL     1      26.579   0.051  54.448  1.00  0.00     0.005 C 
HETATM   20  C4  UNL     1      27.423   0.148  53.436  1.00  0.00     0.021 C 
BRANCH  20  21
HETATM   21  C3  UNL     1      28.707   0.835  53.585  1.00  0.00     0.029 C 
HETATM   22  C2  UNL     1      29.780   0.071  53.612  1.00  0.00    -0.007 C 
HETATM   23  C1  UNL     1      29.727  -1.421  53.508  1.00  0.00     0.038 C 
HETATM   24 CL1  UNL     1      28.719   2.574  53.704  1.00  0.00    -0.085 Cl
ENDBRANCH  20  21
ENDBRANCH  18  19
ENDBRANCH  16  18
ENDBRANCH   1  16
BRANCH   5  25
HETATM   25  O2  UNL     1      21.268  -0.601  53.233  1.00  0.00    -0.339 OA
HETATM   26  C16 UNL     1      21.382  -1.569  54.263  1.00  0.00     0.211 C 
ENDBRANCH   5  25
TORSDOF 9
ENDMDL
MODEL 8
REMARK VINA RESULT:      -6.4      2.654      5.689
REMARK  9 active torsions:
REMARK  status: ('A' for Active; 'I' for Inactive)
REMARK    1  A    between atoms: C3_3  and  C4_5 
REMARK    2  A    between atoms: C5_6  and  C6_7 
REMARK    3  A    between atoms: C6_7  and  N1_8 
REMARK    4  A    between atoms: N1_8  and  C7_9 
REMARK    5  A    between atoms: C8_11  and  N3_12 
REMARK    6  A    between atoms: N3_12  and  C9_13 
REMARK    7  A    between atoms: C9_13  and  C10_14 
REMARK    8  A    between atoms: C10_14  and  N4_15 
REMARK    9  A    between atoms: C15_22  and  O2_23 
ROOT
HETATM    1  C7  UNL     1      24.712   4.419  50.001  1.00  0.00     0.436 A 
HETATM    2  N2  UNL     1      24.589   2.978  50.116  1.00  0.00    -0.060 NA
HETATM    3  C8  UNL     1      23.706   2.719  51.026  1.00  0.00     0.722 A 
HETATM    4  N5  UNL     1      23.178   3.942  51.581  1.00  0.00    -0.039 NA
HETATM    5  C15 UNL     1      23.750   4.964  50.998  1.00  0.00     0.215 A 
ENDROOT
BRANCH   3   6
HETATM    6  N3  UNL     1      23.314   1.386  51.421  1.00  0.00    -0.221 N 
HETATM    7  H11 UNL     1      22.978   0.742  50.659  1.00  0.00     0.177 HD
BRANCH   6   8
HETATM    8  C9  UNL     1      23.419   1.041  52.847  1.00  0.00     0.168 C 
BRANCH   8   9
HETATM    9  C10 UNL     1      24.795   1.325  53.337  1.00  0.00     0.292 C 
BRANCH   9  10
HETATM   10  N4  UNL     1      25.753   0.281  53.156  1.00  0.00     0.094 N 
HETATM   11  C11 UNL     1      26.802   0.795  52.291  1.00  0.00     0.298 C 
HETATM   12  C12 UNL     1      27.494   1.980  52.896  1.00  0.00     0.198 C 
HETATM   13  O1  UNL     1      27.885   1.754  54.213  1.00  0.00    -0.388 OA
HETATM   14  C13 UNL     1      27.787   0.407  54.558  1.00  0.00     0.198 C 
HETATM   15  C14 UNL     1      26.322  -0.032  54.453  1.00  0.00     0.298 C 
ENDBRANCH   9  10
ENDBRANCH   8   9
ENDBRANCH   6   8
ENDBRANCH   3   6
BRANCH   1  16
HETATM   16  N1  UNL     1      26.064   4.867  50.206  1.00  0.00     0.120 N 
HETATM   17  H9  UNL     1      26.393   4.457  51.092  1.00  0.00     0.319 HD
BRANCH  16  18
HETATM   18  C6  UNL     1      26.888   4.339  49.140  1.00  0.00     0.300 C 
BRANCH  18  19
HETATM   19  C5  UNL     1      27.741   5.438  48.563  1.00  0.00     0.005 C 
HETATM   20  C4  UNL     1      29.014   5.440  48.209  1.00  0.00     0.021 C 
BRANCH  20  21
HETATM   21  C3  UNL     1      29.645   6.641  47.661  1.00  0.00     0.029 C 
HETATM   22  C2  UNL     1      30.883   6.879  48.043  1.00  0.00    -0.007 C 
HETATM   23  C1  UNL     1      31.632   5.997  48.992  1.00  0.00     0.038 C 
HETATM   24 CL1  UNL     1      28.734   7.640  46.560  1.00  0.00    -0.085 Cl
ENDBRANCH  20  21
ENDBRANCH  18  19
ENDBRANCH  16  18
ENDBRANCH   1  16
BRANCH   5  25
HETATM   25  O2  UNL     1      23.276   6.165  51.497  1.00  0.00    -0.339 OA
HETATM   26  C16 UNL     1      23.249   7.372  50.752  1.00  0.00     0.211 C 
ENDBRANCH   5  25
TORSDOF 9
ENDMDL
MODEL 9
REMARK VINA RESULT:      -6.4      3.214      5.761
REMARK  9 active torsions:
REMARK  status: ('A' for Active; 'I' for Inactive)
REMARK    1  A    between atoms: C3_3  and  C4_5 
REMARK    2  A    between atoms: C5_6  and  C6_7 
REMARK    3  A    between atoms: C6_7  and  N1_8 
REMARK    4  A    between atoms: N1_8  and  C7_9 
REMARK    5  A    between atoms: C8_11  and  N3_12 
REMARK    6  A    between atoms: N3_12  and  C9_13 
REMARK    7  A    between atoms: C9_13  and  C10_14 
REMARK    8  A    between atoms: C10_14  and  N4_15 
REMARK    9  A    between atoms: C15_22  and  O2_23 
ROOT
HETATM    1  C7  UNL     1      25.945   4.199  49.877  1.00  0.00     0.436 A 
HETATM    2  N2  UNL     1      24.917   3.425  49.208  1.00  0.00    -0.060 NA
HETATM    3  C8  UNL     1      23.936   4.219  48.921  1.00  0.00     0.722 A 
HETATM    4  N5  UNL     1      24.224   5.561  49.367  1.00  0.00    -0.039 NA
HETATM    5  C15 UNL     1      25.403   5.584  49.935  1.00  0.00     0.215 A 
ENDROOT
BRANCH   3   6
HETATM    6  N3  UNL     1      22.726   3.805  48.249  1.00  0.00    -0.221 N 
HETATM    7  H11 UNL     1      22.830   3.413  47.278  1.00  0.00     0.177 HD
BRANCH   6   8
HETATM    8  C9  UNL     1      21.456   3.963  48.976  1.00  0.00     0.168 C 
BRANCH   8   9
HETATM    9  C10 UNL     1      21.345   2.922  50.033  1.00  0.00     0.292 C 
BRANCH   9  10
HETATM   10  N4  UNL     1      20.894   3.371  51.312  1.00  0.00     0.094 N 
HETATM   11  C11 UNL     1      21.454   2.478  52.312  1.00  0.00     0.298 C 
HETATM   12  C12 UNL     1      22.953   2.496  52.300  1.00  0.00     0.198 C 
HETATM   13  O1  UNL     1      23.470   3.789  52.320  1.00  0.00    -0.388 OA
HETATM   14  C13 UNL     1      22.491   4.734  52.619  1.00  0.00     0.198 C 
HETATM   15  C14 UNL     1      21.417   4.707  51.526  1.00  0.00     0.298 C 
ENDBRANCH   9  10
ENDBRANCH   8   9
ENDBRANCH   6   8
ENDBRANCH   3   6
BRANCH   1  16
HETATM   16  N1  UNL     1      26.276   3.660  51.169  1.00  0.00     0.120 N 
HETATM   17  H9  UNL     1      25.443   3.760  51.768  1.00  0.00     0.319 HD
BRANCH  16  18
HETATM   18  C6  UNL     1      26.547   2.246  51.021  1.00  0.00     0.300 C 
BRANCH  18  19
HETATM   19  C5  UNL     1      26.851   1.641  52.366  1.00  0.00     0.005 C 
HETATM   20  C4  UNL     1      27.419   0.489  52.680  1.00  0.00     0.021 C 
BRANCH  20  21
HETATM   21  C3  UNL     1      27.618   0.100  54.076  1.00  0.00     0.029 C 
HETATM   22  C2  UNL     1      28.844  -0.232  54.423  1.00  0.00    -0.007 C 
HETATM   23  C1  UNL     1      29.995  -0.231  53.466  1.00  0.00     0.038 C 
HETATM   24 CL1  UNL     1      26.248   0.112  55.155  1.00  0.00    -0.085 Cl
ENDBRANCH  20  21
ENDBRANCH  18  19
ENDBRANCH  16  18
ENDBRANCH   1  16
BRANCH   5  25
HETATM   25  O2  UNL     1      25.728   6.853  50.381  1.00  0.00    -0.339 OA
HETATM   26  C16 UNL     1      25.576   8.027  49.598  1.00  0.00     0.211 C 
ENDBRANCH   5  25
TORSDOF 9
ENDMDL
