MODEL 1
REMARK VINA RESULT:      -7.9      0.000      0.000
REMARK  5 active torsions:
REMARK  status: ('A' for Active; 'I' for Inactive)
REMARK    1  A    between atoms: C2_2  and  C3_3 
REMARK    2  A    between atoms: C3_3  and  C4_4 
REMARK    3  A    between atoms: C4_4  and  C5_5 
REMARK    4  A    between atoms: C5_5  and  C6_6 
REMARK    5  A    between atoms: C6_6  and  C7_8 
ROOT
HETATM    1  C7  UNL     1      23.440  -0.047  53.201  1.00  0.00    -0.008 C 
HETATM    2  C8  UNL     1      22.523  -0.681  53.920  1.00  0.00     0.011 C 
HETATM    3  C9  UNL     1      21.052  -0.860  53.792  1.00  0.00    -0.003 C 
HETATM    4  C10 UNL     1      19.765  -1.052  53.732  1.00  0.00    -0.024 C 
HETATM    5  C11 UNL     1      18.530  -0.779  52.967  1.00  0.00     0.066 C 
HETATM    6  C12 UNL     1      18.852  -0.043  51.731  1.00  0.00     0.664 C 
HETATM    7  N1  UNL     1      18.496   0.603  50.653  1.00  0.00     0.029 NA
HETATM    8  C13 UNL     1      19.622   1.088  49.829  1.00  0.00     0.261 C 
HETATM    9  C14 UNL     1      20.909   1.595  49.915  1.00  0.00     0.147 A 
HETATM   10  C15 UNL     1      22.208   2.132  49.398  1.00  0.00     0.110 A 
HETATM   11  N2  UNL     1      21.268   1.748  48.784  1.00  0.00    -0.395 N 
HETATM   12  C16 UNL     1      22.715   2.440  50.693  1.00  0.00    -0.001 A 
HETATM   13  C17 UNL     1      22.658   3.798  50.391  1.00  0.00     0.126 A 
HETATM   14  N3  UNL     1      22.996   4.839  51.146  1.00  0.00    -0.272 NA
HETATM   15  C18 UNL     1      23.463   4.509  52.402  1.00  0.00     0.116 A 
HETATM   16  C19 UNL     1      23.551   3.157  52.789  1.00  0.00     0.027 A 
HETATM   17  C20 UNL     1      23.177   2.091  51.941  1.00  0.00    -0.042 A 
HETATM   18  C21 UNL     1      23.096   0.636  51.904  1.00  0.00     0.081 C 
HETATM   19  H20 UNL     1      20.898   1.602  47.865  1.00  0.00     0.155 HD
ENDROOT
BRANCH   1  20
HETATM   20  C6  UNL     1      24.736  -0.205  53.805  1.00  0.00     0.155 C 
HETATM   21  O1  UNL     1      24.305  -0.976  54.713  1.00  0.00    -0.293 OA
BRANCH  20  22
HETATM   22  C5  UNL     1      26.081  -0.235  54.248  1.00  0.00     0.083 C 
BRANCH  22  23
HETATM   23  C4  UNL     1      27.180  -0.285  53.189  1.00  0.00     0.008 C 
BRANCH  23  24
HETATM   24  C3  UNL     1      26.701   0.495  51.960  1.00  0.00     0.000 C 
BRANCH  24  25
HETATM   25  C2  UNL     1      27.032   1.949  52.021  1.00  0.00    -0.005 C 
HETATM   26  C1  UNL     1      26.550   2.626  50.735  1.00  0.00     0.005 C 
ENDBRANCH  24  25
ENDBRANCH  23  24
ENDBRANCH  22  23
ENDBRANCH  20  22
ENDBRANCH   1  20
TORSDOF 5
ENDMDL
MODEL 2
REMARK VINA RESULT:      -7.9      1.579      2.453
REMARK  5 active torsions:
REMARK  status: ('A' for Active; 'I' for Inactive)
REMARK    1  A    between atoms: C2_2  and  C3_3 
REMARK    2  A    between atoms: C3_3  and  C4_4 
REMARK    3  A    between atoms: C4_4  and  C5_5 
REMARK    4  A    between atoms: C5_5  and  C6_6 
REMARK    5  A    between atoms: C6_6  and  C7_8 
ROOT
HETATM    1  C7  UNL     1      24.848   0.887  52.522  1.00  0.00    -0.008 C 
HETATM    2  C8  UNL     1      24.663   0.014  53.504  1.00  0.00     0.011 C 
HETATM    3  C9  UNL     1      23.467  -0.662  54.074  1.00  0.00    -0.003 C 
HETATM    4  C10 UNL     1      22.458  -1.283  54.614  1.00  0.00    -0.024 C 
HETATM    5  C11 UNL     1      20.994  -1.484  54.576  1.00  0.00     0.066 C 
HETATM    6  C12 UNL     1      20.409  -0.743  53.445  1.00  0.00     0.664 C 
HETATM    7  N1  UNL     1      19.382  -0.309  52.763  1.00  0.00     0.029 NA
HETATM    8  C13 UNL     1      19.732   0.490  51.571  1.00  0.00     0.261 C 
HETATM    9  C14 UNL     1      20.654   1.409  51.095  1.00  0.00     0.147 A 
HETATM   10  C15 UNL     1      21.278   2.331  50.093  1.00  0.00     0.110 A 
HETATM   11  N2  UNL     1      20.337   1.620  49.961  1.00  0.00    -0.395 N 
HETATM   12  C16 UNL     1      22.229   2.855  51.015  1.00  0.00    -0.001 A 
HETATM   13  C17 UNL     1      21.600   4.096  50.956  1.00  0.00     0.126 A 
HETATM   14  N3  UNL     1      21.915   5.225  51.585  1.00  0.00    -0.272 NA
HETATM   15  C18 UNL     1      23.018   5.134  52.408  1.00  0.00     0.116 A 
HETATM   16  C19 UNL     1      23.712   3.914  52.527  1.00  0.00     0.027 A 
HETATM   17  C20 UNL     1      23.331   2.745  51.831  1.00  0.00    -0.042 A 
HETATM   18  C21 UNL     1      23.710   1.350  51.650  1.00  0.00     0.081 C 
HETATM   19  H20 UNL     1      19.629   1.314  49.321  1.00  0.00     0.155 HD
ENDROOT
BRANCH   1  20
HETATM   20  C6  UNL     1      26.244   1.210  52.405  1.00  0.00     0.155 C 
HETATM   21  O1  UNL     1      26.523   0.130  51.805  1.00  0.00    -0.293 OA
BRANCH  20  22
HETATM   22  C5  UNL     1      27.571   1.706  52.387  1.00  0.00     0.083 C 
BRANCH  22  23
HETATM   23  C4  UNL     1      28.201   2.110  53.717  1.00  0.00     0.008 C 
BRANCH  23  24
HETATM   24  C3  UNL     1      28.763   0.851  54.387  1.00  0.00     0.000 C 
BRANCH  24  25
HETATM   25  C2  UNL     1      29.748   0.123  53.534  1.00  0.00    -0.005 C 
HETATM   26  C1  UNL     1      29.370  -1.360  53.490  1.00  0.00     0.005 C 
ENDBRANCH  24  25
ENDBRANCH  23  24
ENDBRANCH  22  23
ENDBRANCH  20  22
ENDBRANCH   1  20
TORSDOF 5
ENDMDL
MODEL 3
REMARK VINA RESULT:      -7.8      1.944      5.566
REMARK  5 active torsions:
REMARK  status: ('A' for Active; 'I' for Inactive)
REMARK    1  A    between atoms: C2_2  and  C3_3 
REMARK    2  A    between atoms: C3_3  and  C4_4 
REMARK    3  A    between atoms: C4_4  and  C5_5 
REMARK    4  A    between atoms: C5_5  and  C6_6 
REMARK    5  A    between atoms: C6_6  and  C7_8 
ROOT
HETATM    1  C7  UNL     1      25.344   1.880  51.893  1.00  0.00    -0.008 C 
HETATM    2  C8  UNL     1      26.364   2.145  51.089  1.00  0.00     0.011 C 
HETATM    3  C9  UNL     1      26.676   3.251  50.144  1.00  0.00    -0.003 C 
HETATM    4  C10 UNL     1      27.002   4.190  49.303  1.00  0.00    -0.024 C 
HETATM    5  C11 UNL     1      26.587   5.469  48.690  1.00  0.00     0.066 C 
HETATM    6  C12 UNL     1      25.323   5.934  49.289  1.00  0.00     0.664 C 
HETATM    7  N1  UNL     1      24.309   6.756  49.340  1.00  0.00     0.029 NA
HETATM    8  C13 UNL     1      23.339   6.466  50.416  1.00  0.00     0.261 C 
HETATM    9  C14 UNL     1      22.750   5.424  51.114  1.00  0.00     0.147 A 
HETATM   10  C15 UNL     1      21.851   4.791  52.132  1.00  0.00     0.110 A 
HETATM   11  N2  UNL     1      22.038   5.944  51.923  1.00  0.00    -0.395 N 
HETATM   12  C16 UNL     1      22.111   3.463  51.686  1.00  0.00    -0.001 A 
HETATM   13  C17 UNL     1      20.792   3.353  51.251  1.00  0.00     0.126 A 
HETATM   14  N3  UNL     1      20.186   2.322  50.671  1.00  0.00    -0.272 NA
HETATM   15  C18 UNL     1      20.990   1.218  50.478  1.00  0.00     0.116 A 
HETATM   16  C19 UNL     1      22.338   1.246  50.888  1.00  0.00     0.027 A 
HETATM   17  C20 UNL     1      22.929   2.373  51.502  1.00  0.00    -0.042 A 
HETATM   18  C21 UNL     1      24.193   2.839  52.055  1.00  0.00     0.081 C 
HETATM   19  H20 UNL     1      21.791   6.874  52.202  1.00  0.00     0.155 HD
ENDROOT
BRANCH   1  20
HETATM   20  C6  UNL     1      25.574   0.644  52.592  1.00  0.00     0.155 C 
HETATM   21  O1  UNL     1      26.412   0.227  51.738  1.00  0.00    -0.293 OA
BRANCH  20  22
HETATM   22  C5  UNL     1      25.663  -0.502  53.420  1.00  0.00     0.083 C 
BRANCH  22  23
HETATM   23  C4  UNL     1      24.547  -0.739  54.434  1.00  0.00     0.008 C 
BRANCH  23  24
HETATM   24  C3  UNL     1      23.212  -0.773  53.682  1.00  0.00     0.000 C 
BRANCH  24  25
HETATM   25  C2  UNL     1      22.031  -0.884  54.587  1.00  0.00    -0.005 C 
HETATM   26  C1  UNL     1      21.069   0.272  54.297  1.00  0.00     0.005 C 
ENDBRANCH  24  25
ENDBRANCH  23  24
ENDBRANCH  22  23
ENDBRANCH  20  22
ENDBRANCH   1  20
TORSDOF 5
ENDMDL
MODEL 4
REMARK VINA RESULT:      -7.7      2.278      5.348
REMARK  5 active torsions:
REMARK  status: ('A' for Active; 'I' for Inactive)
REMARK    1  A    between atoms: C2_2  and  C3_3 
REMARK    2  A    between atoms: C3_3  and  C4_4 
REMARK    3  A    between atoms: C4_4  and  C5_5 
REMARK    4  A    between atoms: C5_5  and  C6_6 
REMARK    5  A    between atoms: C6_6  and  C7_8 
ROOT
HETATM    1  C7  UNL     1      25.433   2.026  51.606  1.00  0.00    -0.008 C 
HETATM    2  C8  UNL     1      26.451   2.340  50.816  1.00  0.00     0.011 C 
HETATM    3  C9  UNL     1      26.745   3.488  49.916  1.00  0.00    -0.003 C 
HETATM    4  C10 UNL     1      27.056   4.466  49.114  1.00  0.00    -0.024 C 
HETATM    5  C11 UNL     1      26.621   5.761  48.551  1.00  0.00     0.066 C 
HETATM    6  C12 UNL     1      25.347   6.179  49.165  1.00  0.00     0.664 C 
HETATM    7  N1  UNL     1      24.319   6.981  49.245  1.00  0.00     0.029 NA
HETATM    8  C13 UNL     1      23.352   6.632  50.307  1.00  0.00     0.261 C 
HETATM    9  C14 UNL     1      22.780   5.553  50.961  1.00  0.00     0.147 A 
HETATM   10  C15 UNL     1      21.890   4.865  51.951  1.00  0.00     0.110 A 
HETATM   11  N2  UNL     1      22.058   6.028  51.788  1.00  0.00    -0.395 N 
HETATM   12  C16 UNL     1      22.174   3.560  51.453  1.00  0.00    -0.001 A 
HETATM   13  C17 UNL     1      20.858   3.445  51.011  1.00  0.00     0.126 A 
HETATM   14  N3  UNL     1      20.271   2.427  50.389  1.00  0.00    -0.272 NA
HETATM   15  C18 UNL     1      21.095   1.345  50.154  1.00  0.00     0.116 A 
HETATM   16  C19 UNL     1      22.441   1.381  50.568  1.00  0.00     0.027 A 
HETATM   17  C20 UNL     1      23.011   2.492  51.228  1.00  0.00    -0.042 A 
HETATM   18  C21 UNL     1      24.266   2.958  51.803  1.00  0.00     0.081 C 
HETATM   19  H20 UNL     1      21.794   6.942  52.103  1.00  0.00     0.155 HD
ENDROOT
BRANCH   1  20
HETATM   20  C6  UNL     1      25.683   0.767  52.256  1.00  0.00     0.155 C 
HETATM   21  O1  UNL     1      24.985   1.063  53.270  1.00  0.00    -0.293 OA
BRANCH  20  22
HETATM   22  C5  UNL     1      26.042  -0.520  52.726  1.00  0.00     0.083 C 
BRANCH  22  23
HETATM   23  C4  UNL     1      27.529  -0.846  52.849  1.00  0.00     0.008 C 
BRANCH  23  24
HETATM   24  C3  UNL     1      28.099  -0.059  54.034  1.00  0.00     0.000 C 
BRANCH  24  25
HETATM   25  C2  UNL     1      29.204   0.866  53.647  1.00  0.00    -0.005 C 
HETATM   26  C1  UNL     1      28.693   2.308  53.708  1.00  0.00     0.005 C 
ENDBRANCH  24  25
ENDBRANCH  23  24
ENDBRANCH  22  23
ENDBRANCH  20  22
ENDBRANCH   1  20
TORSDOF 5
ENDMDL
MODEL 5
REMARK VINA RESULT:      -7.7      2.697      4.555
REMARK  5 active torsions:
REMARK  status: ('A' for Active; 'I' for Inactive)
REMARK    1  A    between atoms: C2_2  and  C3_3 
REMARK    2  A    between atoms: C3_3  and  C4_4 
REMARK    3  A    between atoms: C4_4  and  C5_5 
REMARK    4  A    between atoms: C5_5  and  C6_6 
REMARK    5  A    between atoms: C6_6  and  C7_8 
ROOT
HETATM    1  C7  UNL     1      25.271   1.755  51.675  1.00  0.00    -0.008 C 
HETATM    2  C8  UNL     1      26.093   1.311  52.615  1.00  0.00     0.011 C 
HETATM    3  C9  UNL     1      25.920   0.456  53.820  1.00  0.00    -0.003 C 
HETATM    4  C10 UNL     1      25.830  -0.288  54.886  1.00  0.00    -0.024 C 
HETATM    5  C11 UNL     1      24.922  -1.084  55.738  1.00  0.00     0.066 C 
HETATM    6  C12 UNL     1      23.574  -1.128  55.142  1.00  0.00     0.664 C 
HETATM    7  N1  UNL     1      22.309  -1.448  55.186  1.00  0.00     0.029 NA
HETATM    8  C13 UNL     1      21.540  -1.073  53.981  1.00  0.00     0.261 C 
HETATM    9  C14 UNL     1      21.436  -0.096  53.004  1.00  0.00     0.147 A 
HETATM   10  C15 UNL     1      20.877   0.566  51.782  1.00  0.00     0.110 A 
HETATM   11  N2  UNL     1      20.565  -0.468  52.273  1.00  0.00    -0.395 N 
HETATM   12  C16 UNL     1      21.674   1.738  51.927  1.00  0.00    -0.001 A 
HETATM   13  C17 UNL     1      20.527   2.483  52.191  1.00  0.00     0.126 A 
HETATM   14  N3  UNL     1      20.414   3.782  52.450  1.00  0.00    -0.272 NA
HETATM   15  C18 UNL     1      21.610   4.472  52.457  1.00  0.00     0.116 A 
HETATM   16  C19 UNL     1      22.817   3.793  52.201  1.00  0.00     0.027 A 
HETATM   17  C20 UNL     1      22.876   2.408  51.930  1.00  0.00    -0.042 A 
HETATM   18  C21 UNL     1      23.823   1.342  51.629  1.00  0.00     0.081 C 
HETATM   19  H20 UNL     1      19.948  -1.253  52.198  1.00  0.00     0.155 HD
ENDROOT
BRANCH   1  20
HETATM   20  C6  UNL     1      25.992   2.568  50.732  1.00  0.00     0.155 C 
HETATM   21  O1  UNL     1      27.090   2.450  51.352  1.00  0.00    -0.293 OA
BRANCH  20  22
HETATM   22  C5  UNL     1      26.520   3.384  49.702  1.00  0.00     0.083 C 
BRANCH  22  23
HETATM   23  C4  UNL     1      25.852   4.732  49.445  1.00  0.00     0.008 C 
BRANCH  23  24
HETATM   24  C3  UNL     1      26.852   5.634  48.714  1.00  0.00     0.000 C 
BRANCH  24  25
HETATM   25  C2  UNL     1      28.180   4.987  48.500  1.00  0.00    -0.005 C 
HETATM   26  C1  UNL     1      29.183   6.045  48.034  1.00  0.00     0.005 C 
ENDBRANCH  24  25
ENDBRANCH  23  24
ENDBRANCH  22  23
ENDBRANCH  20  22
ENDBRANCH   1  20
TORSDOF 5
ENDMDL
MODEL 6
REMARK VINA RESULT:      -7.1      2.961      5.937
REMARK  5 active torsions:
REMARK  status: ('A' for Active; 'I' for Inactive)
REMARK    1  A    between atoms: C2_2  and  C3_3 
REMARK    2  A    between atoms: C3_3  and  C4_4 
REMARK    3  A    between atoms: C4_4  and  C5_5 
REMARK    4  A    between atoms: C5_5  and  C6_6 
REMARK    5  A    between atoms: C6_6  and  C7_8 
ROOT
HETATM    1  C7  UNL     1      22.134   2.342  51.071  1.00  0.00    -0.008 C 
HETATM    2  C8  UNL     1      21.317   3.378  51.207  1.00  0.00     0.011 C 
HETATM    3  C9  UNL     1      21.486   4.851  51.083  1.00  0.00    -0.003 C 
HETATM    4  C10 UNL     1      21.574   6.147  50.988  1.00  0.00    -0.024 C 
HETATM    5  C11 UNL     1      22.471   7.286  50.704  1.00  0.00     0.066 C 
HETATM    6  C12 UNL     1      23.803   6.796  50.304  1.00  0.00     0.664 C 
HETATM    7  N1  UNL     1      25.057   6.997  49.998  1.00  0.00     0.029 NA
HETATM    8  C13 UNL     1      25.811   5.769  49.670  1.00  0.00     0.261 C 
HETATM    9  C14 UNL     1      25.928   4.430  50.003  1.00  0.00     0.147 A 
HETATM   10  C15 UNL     1      26.483   3.040  49.921  1.00  0.00     0.110 A 
HETATM   11  N2  UNL     1      26.769   3.992  49.273  1.00  0.00    -0.395 N 
HETATM   12  C16 UNL     1      25.732   2.564  51.034  1.00  0.00    -0.001 A 
HETATM   13  C17 UNL     1      26.911   2.408  51.760  1.00  0.00     0.126 A 
HETATM   14  N3  UNL     1      27.076   1.964  53.002  1.00  0.00    -0.272 NA
HETATM   15  C18 UNL     1      25.906   1.617  53.648  1.00  0.00     0.116 A 
HETATM   16  C19 UNL     1      24.670   1.746  52.985  1.00  0.00     0.027 A 
HETATM   17  C20 UNL     1      24.556   2.224  51.661  1.00  0.00    -0.042 A 
HETATM   18  C21 UNL     1      23.565   2.514  50.633  1.00  0.00     0.081 C 
HETATM   19  H20 UNL     1      27.356   4.330  48.534  1.00  0.00     0.155 HD
ENDROOT
BRANCH   1  20
HETATM   20  C6  UNL     1      21.421   1.117  51.315  1.00  0.00     0.155 C 
HETATM   21  O1  UNL     1      21.344   0.826  50.085  1.00  0.00    -0.293 OA
BRANCH  20  22
HETATM   22  C5  UNL     1      20.735  -0.041  51.757  1.00  0.00     0.083 C 
BRANCH  22  23
HETATM   23  C4  UNL     1      19.992   0.034  53.088  1.00  0.00     0.008 C 
BRANCH  23  24
HETATM   24  C3  UNL     1      21.015   0.304  54.197  1.00  0.00     0.000 C 
BRANCH  24  25
HETATM   25  C2  UNL     1      21.536  -0.943  54.831  1.00  0.00    -0.005 C 
HETATM   26  C1  UNL     1      23.042  -1.042  54.576  1.00  0.00     0.005 C 
ENDBRANCH  24  25
ENDBRANCH  23  24
ENDBRANCH  22  23
ENDBRANCH  20  22
ENDBRANCH   1  20
TORSDOF 5
ENDMDL
MODEL 7
REMARK VINA RESULT:      -6.7      7.386     10.058
REMARK  5 active torsions:
REMARK  status: ('A' for Active; 'I' for Inactive)
REMARK    1  A    between atoms: C2_2  and  C3_3 
REMARK    2  A    between atoms: C3_3  and  C4_4 
REMARK    3  A    between atoms: C4_4  and  C5_5 
REMARK    4  A    between atoms: C5_5  and  C6_6 
REMARK    5  A    between atoms: C6_6  and  C7_8 
ROOT
HETATM    1  C7  UNL     1      29.616   5.982  47.839  1.00  0.00    -0.008 C 
HETATM    2  C8  UNL     1      28.753   5.155  48.414  1.00  0.00     0.011 C 
HETATM    3  C9  UNL     1      27.291   5.211  48.683  1.00  0.00    -0.003 C 
HETATM    4  C10 UNL     1      26.015   5.203  48.945  1.00  0.00    -0.024 C 
HETATM    5  C11 UNL     1      24.747   5.953  48.833  1.00  0.00     0.066 C 
HETATM    6  C12 UNL     1      24.959   7.196  48.068  1.00  0.00     0.664 C 
HETATM    7  N1  UNL     1      24.544   8.344  47.603  1.00  0.00     0.029 NA
HETATM    8  C13 UNL     1      25.546   9.080  46.806  1.00  0.00     0.261 C 
HETATM    9  C14 UNL     1      26.904   9.341  46.717  1.00  0.00     0.147 A 
HETATM   10  C15 UNL     1      28.149   9.944  46.141  1.00  0.00     0.110 A 
HETATM   11  N2  UNL     1      27.033  10.032  45.748  1.00  0.00    -0.395 N 
HETATM   12  C16 UNL     1      28.986   9.473  47.194  1.00  0.00    -0.001 A 
HETATM   13  C17 UNL     1      29.195  10.785  47.612  1.00  0.00     0.126 A 
HETATM   14  N3  UNL     1      29.932  11.234  48.624  1.00  0.00    -0.272 NA
HETATM   15  C18 UNL     1      30.568  10.249  49.351  1.00  0.00     0.116 A 
HETATM   16  C19 UNL     1      30.409   8.895  48.996  1.00  0.00     0.027 A 
HETATM   17  C20 UNL     1      29.611   8.477  47.907  1.00  0.00    -0.042 A 
HETATM   18  C21 UNL     1      29.173   7.276  47.208  1.00  0.00     0.081 C 
HETATM   19  H20 UNL     1      26.447  10.429  45.040  1.00  0.00     0.155 HD
ENDROOT
BRANCH   1  20
HETATM   20  C6  UNL     1      30.935   5.408  47.855  1.00  0.00     0.155 C 
HETATM   21  O1  UNL     1      30.964   5.314  49.117  1.00  0.00    -0.293 OA
BRANCH  20  22
HETATM   22  C5  UNL     1      32.226   4.857  47.662  1.00  0.00     0.083 C 
BRANCH  22  23
HETATM   23  C4  UNL     1      32.446   3.965  46.443  1.00  0.00     0.008 C 
BRANCH  23  24
HETATM   24  C3  UNL     1      33.458   2.877  46.819  1.00  0.00     0.000 C 
BRANCH  24  25
HETATM   25  C2  UNL     1      34.872   3.273  46.553  1.00  0.00    -0.005 C 
HETATM   26  C1  UNL     1      34.948   3.974  45.194  1.00  0.00     0.005 C 
ENDBRANCH  24  25
ENDBRANCH  23  24
ENDBRANCH  22  23
ENDBRANCH  20  22
ENDBRANCH   1  20
TORSDOF 5
ENDMDL
MODEL 8
REMARK VINA RESULT:      -6.7      3.260      5.231
REMARK  5 active torsions:
REMARK  status: ('A' for Active; 'I' for Inactive)
REMARK    1  A    between atoms: C2_2  and  C3_3 
REMARK    2  A    between atoms: C3_3  and  C4_4 
REMARK    3  A    between atoms: C4_4  and  C5_5 
REMARK    4  A    between atoms: C5_5  and  C6_6 
REMARK    5  A    between atoms: C6_6  and  C7_8 
ROOT
HETATM    1  C7  UNL     1      25.721   3.328  50.258  1.00  0.00    -0.008 C 
HETATM    2  C8  UNL     1      26.544   2.788  51.147  1.00  0.00     0.011 C 
HETATM    3  C9  UNL     1      26.385   1.765  52.215  1.00  0.00    -0.003 C 
HETATM    4  C10 UNL     1      26.306   0.876  53.165  1.00  0.00    -0.024 C 
HETATM    5  C11 UNL     1      25.417  -0.066  53.875  1.00  0.00     0.066 C 
HETATM    6  C12 UNL     1      24.083  -0.077  53.247  1.00  0.00     0.664 C 
HETATM    7  N1  UNL     1      22.831  -0.449  53.216  1.00  0.00     0.029 NA
HETATM    8  C13 UNL     1      22.070   0.062  52.057  1.00  0.00     0.261 C 
HETATM    9  C14 UNL     1      21.943   1.162  51.224  1.00  0.00     0.147 A 
HETATM   10  C15 UNL     1      21.379   1.967  50.093  1.00  0.00     0.110 A 
HETATM   11  N2  UNL     1      21.101   0.864  50.428  1.00  0.00    -0.395 N 
HETATM   12  C16 UNL     1      22.124   3.137  50.420  1.00  0.00    -0.001 A 
HETATM   13  C17 UNL     1      20.943   3.793  50.758  1.00  0.00     0.126 A 
HETATM   14  N3  UNL     1      20.772   5.037  51.193  1.00  0.00    -0.272 NA
HETATM   15  C18 UNL     1      21.937   5.765  51.325  1.00  0.00     0.116 A 
HETATM   16  C19 UNL     1      23.176   5.176  51.005  1.00  0.00     0.027 A 
HETATM   17  C20 UNL     1      23.297   3.845  50.545  1.00  0.00    -0.042 A 
HETATM   18  C21 UNL     1      24.293   2.870  50.121  1.00  0.00     0.081 C 
HETATM   19  H20 UNL     1      20.519   0.073  50.229  1.00  0.00     0.155 HD
ENDROOT
BRANCH   1  20
HETATM   20  C6  UNL     1      26.425   4.291  49.455  1.00  0.00     0.155 C 
HETATM   21  O1  UNL     1      27.371   3.493  49.187  1.00  0.00    -0.293 OA
BRANCH  20  22
HETATM   22  C5  UNL     1      26.960   5.370  48.709  1.00  0.00     0.083 C 
BRANCH  22  23
HETATM   23  C4  UNL     1      28.449   5.337  48.374  1.00  0.00     0.008 C 
BRANCH  23  24
HETATM   24  C3  UNL     1      28.814   6.648  47.669  1.00  0.00     0.000 C 
BRANCH  24  25
HETATM   25  C2  UNL     1      29.582   7.588  48.538  1.00  0.00    -0.005 C 
HETATM   26  C1  UNL     1      28.677   8.759  48.929  1.00  0.00     0.005 C 
ENDBRANCH  24  25
ENDBRANCH  23  24
ENDBRANCH  22  23
ENDBRANCH  20  22
ENDBRANCH   1  20
TORSDOF 5
ENDMDL
MODEL 9
REMARK VINA RESULT:      -6.5      6.485     10.196
REMARK  5 active torsions:
REMARK  status: ('A' for Active; 'I' for Inactive)
REMARK    1  A    between atoms: C2_2  and  C3_3 
REMARK    2  A    between atoms: C3_3  and  C4_4 
REMARK    3  A    between atoms: C4_4  and  C5_5 
REMARK    4  A    between atoms: C5_5  and  C6_6 
REMARK    5  A    between atoms: C6_6  and  C7_8 
ROOT
HETATM    1  C7  UNL     1      26.878   5.872  48.823  1.00  0.00    -0.008 C 
HETATM    2  C8  UNL     1      27.896   5.083  48.509  1.00  0.00     0.011 C 
HETATM    3  C9  UNL     1      29.324   5.324  48.171  1.00  0.00    -0.003 C 
HETATM    4  C10 UNL     1      30.583   5.473  47.867  1.00  0.00    -0.024 C 
HETATM    5  C11 UNL     1      31.678   6.446  47.672  1.00  0.00     0.066 C 
HETATM    6  C12 UNL     1      31.213   7.806  48.000  1.00  0.00     0.664 C 
HETATM    7  N1  UNL     1      31.389   9.100  48.048  1.00  0.00     0.029 NA
HETATM    8  C13 UNL     1      30.247   9.852  48.608  1.00  0.00     0.261 C 
HETATM    9  C14 UNL     1      28.863   9.864  48.670  1.00  0.00     0.147 A 
HETATM   10  C15 UNL     1      27.513  10.374  49.074  1.00  0.00     0.110 A 
HETATM   11  N2  UNL     1      28.583  10.796  49.366  1.00  0.00    -0.395 N 
HETATM   12  C16 UNL     1      26.804   9.435  48.271  1.00  0.00    -0.001 A 
HETATM   13  C17 UNL     1      26.352  10.473  47.459  1.00  0.00     0.126 A 
HETATM   14  N3  UNL     1      25.562  10.416  46.392  1.00  0.00    -0.272 NA
HETATM   15  C18 UNL     1      25.144   9.146  46.053  1.00  0.00     0.116 A 
HETATM   16  C19 UNL     1      25.557   8.039  46.821  1.00  0.00     0.027 A 
HETATM   17  C20 UNL     1      26.399   8.160  47.949  1.00  0.00    -0.042 A 
HETATM   18  C21 UNL     1      27.049   7.361  48.979  1.00  0.00     0.081 C 
HETATM   19  H20 UNL     1      29.067  11.507  49.880  1.00  0.00     0.155 HD
ENDROOT
BRANCH   1  20
HETATM   20  C6  UNL     1      25.697   5.085  49.055  1.00  0.00     0.155 C 
HETATM   21  O1  UNL     1      26.347   4.106  49.526  1.00  0.00    -0.293 OA
BRANCH  20  22
HETATM   22  C5  UNL     1      24.428   4.473  49.208  1.00  0.00     0.083 C 
BRANCH  22  23
HETATM   23  C4  UNL     1      23.297   5.312  49.799  1.00  0.00     0.008 C 
BRANCH  23  24
HETATM   24  C3  UNL     1      23.057   6.513  48.878  1.00  0.00     0.000 C 
BRANCH  24  25
HETATM   25  C2  UNL     1      22.866   7.794  49.621  1.00  0.00    -0.005 C 
HETATM   26  C1  UNL     1      23.847   7.841  50.796  1.00  0.00     0.005 C 
ENDBRANCH  24  25
ENDBRANCH  23  24
ENDBRANCH  22  23
ENDBRANCH  20  22
ENDBRANCH   1  20
TORSDOF 5
ENDMDL
