MODEL 1
REMARK VINA RESULT:      -9.6      0.000      0.000
REMARK  1 active torsions:
REMARK  status: ('A' for Active; 'I' for Inactive)
REMARK    1  A    between atoms: O1_2  and  C2_3 
ROOT
HETATM    1  C2  UNL     1      22.093   2.426  50.129  1.00  0.00     0.123 C 
HETATM    2  C3  UNL     1      21.493   3.663  50.208  1.00  0.00     0.086 C 
HETATM    3  C4  UNL     1      20.275   3.960  51.084  1.00  0.00     0.151 C 
HETATM    4  N1  UNL     1      19.599   3.200  51.988  1.00  0.00    -0.243 NA
HETATM    5  C5  UNL     1      19.910   1.791  52.280  1.00  0.00     0.125 C 
HETATM    6  N2  UNL     1      20.495   1.535  53.450  1.00  0.00    -0.255 NA
HETATM    7  C6  UNL     1      21.737   0.683  53.597  1.00  0.00     0.281 C 
HETATM    8  N3  UNL     1      22.545   0.872  52.347  1.00  0.00    -0.324 N 
HETATM    9  C7  UNL     1      23.934   0.703  52.596  1.00  0.00     0.071 C 
HETATM   10  C8  UNL     1      24.064  -0.195  53.561  1.00  0.00     0.032 C 
HETATM   11  C9  UNL     1      25.276  -0.719  54.178  1.00  0.00    -0.001 C 
HETATM   12  C10 UNL     1      26.442  -0.784  53.546  1.00  0.00    -0.023 C 
HETATM   13  C11 UNL     1      26.859  -0.399  52.176  1.00  0.00     0.057 C 
HETATM   14  C12 UNL     1      26.249   0.906  51.743  1.00  0.00     0.017 C 
HETATM   15  C13 UNL     1      25.013   1.409  51.902  1.00  0.00     0.108 C 
HETATM   16  O2  UNL     1      25.002   2.632  51.312  1.00  0.00    -0.272 OA
HETATM   17  S1  UNL     1      24.107   4.026  51.728  1.00  0.00     0.038 SA
HETATM   18  C14 UNL     1      24.092   5.083  50.288  1.00  0.00     0.055 A 
HETATM   19  C15 UNL     1      25.311   5.648  49.977  1.00  0.00     0.023 A 
HETATM   20  C16 UNL     1      25.520   6.500  48.900  1.00  0.00     0.002 A 
HETATM   21  C17 UNL     1      24.447   6.805  48.084  1.00  0.00     0.002 A 
HETATM   22  C18 UNL     1      23.237   6.229  48.412  1.00  0.00     0.031 A 
HETATM   23  C19 UNL     1      23.029   5.385  49.479  1.00  0.00     0.051 A 
HETATM   24  N4  UNL     1      21.706   4.889  49.660  1.00  0.00    -0.352 N 
HETATM   25  C20 UNL     1      21.912   1.208  51.036  1.00  0.00     0.069 C 
HETATM   26  C21 UNL     1      20.961   0.322  50.572  1.00  0.00     0.013 C 
HETATM   27  C22 UNL     1      19.665   0.622  51.333  1.00  0.00     0.109 C 
HETATM   28  H17 UNL     1      20.835   5.411  49.401  1.00  0.00     0.166 HD
ENDROOT
BRANCH   1  29
HETATM   29  O1  UNL     1      22.931   2.482  49.026  1.00  0.00    -0.351 OA
HETATM   30  C1  UNL     1      22.463   2.080  47.733  1.00  0.00     0.210 C 
ENDBRANCH   1  29
TORSDOF 1
ENDMDL
MODEL 2
REMARK VINA RESULT:      -8.5      2.288      4.641
REMARK  1 active torsions:
REMARK  status: ('A' for Active; 'I' for Inactive)
REMARK    1  A    between atoms: O1_2  and  C2_3 
ROOT
HETATM    1  C2  UNL     1      24.265   3.347  51.789  1.00  0.00     0.123 C 
HETATM    2  C3  UNL     1      24.850   3.635  50.577  1.00  0.00     0.086 C 
HETATM    3  C4  UNL     1      26.201   3.070  50.133  1.00  0.00     0.151 C 
HETATM    4  N1  UNL     1      27.039   2.163  50.705  1.00  0.00    -0.243 NA
HETATM    5  C5  UNL     1      26.806   1.535  52.016  1.00  0.00     0.125 C 
HETATM    6  N2  UNL     1      26.443   0.252  52.011  1.00  0.00    -0.255 NA
HETATM    7  C6  UNL     1      25.260  -0.287  52.785  1.00  0.00     0.281 C 
HETATM    8  N3  UNL     1      24.239   0.810  52.840  1.00  0.00    -0.324 N 
HETATM    9  C7  UNL     1      22.920   0.289  52.922  1.00  0.00     0.071 C 
HETATM   10  C8  UNL     1      22.977  -0.849  53.598  1.00  0.00     0.032 C 
HETATM   11  C9  UNL     1      21.904  -1.766  53.955  1.00  0.00    -0.001 C 
HETATM   12  C10 UNL     1      20.645  -1.380  54.122  1.00  0.00    -0.023 C 
HETATM   13  C11 UNL     1      19.983  -0.057  54.019  1.00  0.00     0.057 C 
HETATM   14  C12 UNL     1      20.487   0.740  52.847  1.00  0.00     0.017 C 
HETATM   15  C13 UNL     1      21.724   0.911  52.351  1.00  0.00     0.108 C 
HETATM   16  O2  UNL     1      21.611   1.734  51.276  1.00  0.00    -0.272 OA
HETATM   17  S1  UNL     1      22.545   1.783  49.848  1.00  0.00     0.038 SA
HETATM   18  C14 UNL     1      22.287   3.389  49.112  1.00  0.00     0.055 A 
HETATM   19  C15 UNL     1      21.024   3.589  48.595  1.00  0.00     0.023 A 
HETATM   20  C16 UNL     1      20.613   4.765  47.980  1.00  0.00     0.002 A 
HETATM   21  C17 UNL     1      21.518   5.804  47.875  1.00  0.00     0.002 A 
HETATM   22  C18 UNL     1      22.776   5.585  48.398  1.00  0.00     0.031 A 
HETATM   23  C19 UNL     1      23.184   4.420  49.008  1.00  0.00     0.051 A 
HETATM   24  N4  UNL     1      24.525   4.379  49.486  1.00  0.00    -0.352 N 
HETATM   25  C20 UNL     1      24.622   2.254  52.797  1.00  0.00     0.069 C 
HETATM   26  C21 UNL     1      25.488   2.686  53.782  1.00  0.00     0.013 C 
HETATM   27  C22 UNL     1      26.895   2.247  53.361  1.00  0.00     0.109 C 
HETATM   28  H17 UNL     1      25.328   4.891  49.049  1.00  0.00     0.166 HD
ENDROOT
BRANCH   1  29
HETATM   29  O1  UNL     1      23.242   4.271  51.943  1.00  0.00    -0.351 OA
HETATM   30  C1  UNL     1      23.331   5.299  52.937  1.00  0.00     0.210 C 
ENDBRANCH   1  29
TORSDOF 1
ENDMDL
MODEL 3
REMARK VINA RESULT:      -8.1      8.207     12.002
REMARK  1 active torsions:
REMARK  status: ('A' for Active; 'I' for Inactive)
REMARK    1  A    between atoms: O1_2  and  C2_3 
ROOT
HETATM    1  C2  UNL     1      32.098   8.015  46.038  1.00  0.00     0.123 C 
HETATM    2  C3  UNL     1      33.441   7.939  46.331  1.00  0.00     0.086 C 
HETATM    3  C4  UNL     1      34.260   9.116  46.866  1.00  0.00     0.151 C 
HETATM    4  N1  UNL     1      33.903  10.373  47.245  1.00  0.00    -0.243 NA
HETATM    5  C5  UNL     1      32.534  10.909  47.148  1.00  0.00     0.125 C 
HETATM    6  N2  UNL     1      31.865  11.055  48.292  1.00  0.00    -0.255 NA
HETATM    7  C6  UNL     1      30.458  10.542  48.511  1.00  0.00     0.281 C 
HETATM    8  N3  UNL     1      30.310   9.305  47.675  1.00  0.00    -0.324 N 
HETATM    9  C7  UNL     1      29.374   8.401  48.246  1.00  0.00     0.071 C 
HETATM   10  C8  UNL     1      28.451   9.118  48.869  1.00  0.00     0.032 C 
HETATM   11  C9  UNL     1      27.277   8.671  49.608  1.00  0.00    -0.001 C 
HETATM   12  C10 UNL     1      26.651   7.528  49.353  1.00  0.00    -0.023 C 
HETATM   13  C11 UNL     1      26.895   6.455  48.359  1.00  0.00     0.057 C 
HETATM   14  C12 UNL     1      28.359   6.144  48.208  1.00  0.00     0.017 C 
HETATM   15  C13 UNL     1      29.439   6.941  48.155  1.00  0.00     0.108 C 
HETATM   16  O2  UNL     1      30.522   6.135  48.010  1.00  0.00    -0.272 OA
HETATM   17  S1  UNL     1      32.119   6.356  48.572  1.00  0.00     0.038 SA
HETATM   18  C14 UNL     1      33.165   5.279  47.605  1.00  0.00     0.055 A 
HETATM   19  C15 UNL     1      32.993   3.934  47.855  1.00  0.00     0.023 A 
HETATM   20  C16 UNL     1      33.704   2.927  47.215  1.00  0.00     0.002 A 
HETATM   21  C17 UNL     1      34.643   3.285  46.266  1.00  0.00     0.002 A 
HETATM   22  C18 UNL     1      34.800   4.636  46.030  1.00  0.00     0.031 A 
HETATM   23  C19 UNL     1      34.096   5.634  46.665  1.00  0.00     0.051 A 
HETATM   24  N4  UNL     1      34.398   6.974  46.288  1.00  0.00    -0.352 N 
HETATM   25  C20 UNL     1      31.088   9.100  46.416  1.00  0.00     0.069 C 
HETATM   26  C21 UNL     1      30.937  10.064  45.440  1.00  0.00     0.013 C 
HETATM   27  C22 UNL     1      31.814  11.253  45.850  1.00  0.00     0.109 C 
HETATM   28  H17 UNL     1      35.340   7.304  45.969  1.00  0.00     0.166 HD
ENDROOT
BRANCH   1  29
HETATM   29  O1  UNL     1      31.807   6.877  45.301  1.00  0.00    -0.351 OA
HETATM   30  C1  UNL     1      32.066   6.833  43.893  1.00  0.00     0.210 C 
ENDBRANCH   1  29
TORSDOF 1
ENDMDL
MODEL 4
REMARK VINA RESULT:      -8.1      2.205      2.963
REMARK  1 active torsions:
REMARK  status: ('A' for Active; 'I' for Inactive)
REMARK    1  A    between atoms: O1_2  and  C2_3 
ROOT
HETATM    1  C2  UNL     1      20.529   3.760  49.521  1.00  0.00     0.123 C 
HETATM    2  C3  UNL     1      19.532   4.531  50.074  1.00  0.00     0.086 C 
HETATM    3  C4  UNL     1      18.616   4.050  51.202  1.00  0.00     0.151 C 
HETATM    4  N1  UNL     1      18.607   2.906  51.939  1.00  0.00    -0.243 NA
HETATM    5  C5  UNL     1      19.534   1.781  51.731  1.00  0.00     0.125 C 
HETATM    6  N2  UNL     1      20.490   1.613  52.645  1.00  0.00    -0.255 NA
HETATM    7  C6  UNL     1      21.953   1.434  52.304  1.00  0.00     0.281 C 
HETATM    8  N3  UNL     1      22.207   2.212  51.048  1.00  0.00    -0.324 N 
HETATM    9  C7  UNL     1      23.549   2.672  50.983  1.00  0.00     0.071 C 
HETATM   10  C8  UNL     1      24.311   1.776  51.592  1.00  0.00     0.032 C 
HETATM   11  C9  UNL     1      25.754   1.775  51.796  1.00  0.00    -0.001 C 
HETATM   12  C10 UNL     1      26.602   2.386  50.978  1.00  0.00    -0.023 C 
HETATM   13  C11 UNL     1      26.403   3.173  49.737  1.00  0.00     0.057 C 
HETATM   14  C12 UNL     1      25.218   4.094  49.834  1.00  0.00     0.017 C 
HETATM   15  C13 UNL     1      23.992   3.917  50.354  1.00  0.00     0.108 C 
HETATM   16  O2  UNL     1      23.312   5.079  50.174  1.00  0.00    -0.272 OA
HETATM   17  S1  UNL     1      22.095   5.783  51.143  1.00  0.00     0.038 SA
HETATM   18  C14 UNL     1      21.228   6.960  50.117  1.00  0.00     0.055 A 
HETATM   19  C15 UNL     1      21.961   8.078  49.779  1.00  0.00     0.023 A 
HETATM   20  C16 UNL     1      21.478   9.115  48.991  1.00  0.00     0.002 A 
HETATM   21  C17 UNL     1      20.186   9.029  48.510  1.00  0.00     0.002 A 
HETATM   22  C18 UNL     1      19.469   7.902  48.858  1.00  0.00     0.031 A 
HETATM   23  C19 UNL     1      19.947   6.874  49.640  1.00  0.00     0.051 A 
HETATM   24  N4  UNL     1      19.057   5.792  49.894  1.00  0.00    -0.352 N 
HETATM   25  C20 UNL     1      21.136   2.453  50.034  1.00  0.00     0.069 C 
HETATM   26  C21 UNL     1      20.535   1.330  49.500  1.00  0.00     0.013 C 
HETATM   27  C22 UNL     1      19.517   0.837  50.534  1.00  0.00     0.109 C 
HETATM   28  H17 UNL     1      18.015   5.882  49.963  1.00  0.00     0.166 HD
ENDROOT
BRANCH   1  29
HETATM   29  O1  UNL     1      20.906   4.410  48.355  1.00  0.00    -0.351 OA
HETATM   30  C1  UNL     1      21.746   3.759  47.395  1.00  0.00     0.210 C 
ENDBRANCH   1  29
TORSDOF 1
ENDMDL
MODEL 5
REMARK VINA RESULT:      -7.9      1.998      6.041
REMARK  1 active torsions:
REMARK  status: ('A' for Active; 'I' for Inactive)
REMARK    1  A    between atoms: O1_2  and  C2_3 
ROOT
HETATM    1  C2  UNL     1      22.453   3.470  50.730  1.00  0.00     0.123 C 
HETATM    2  C3  UNL     1      22.572   2.101  50.644  1.00  0.00     0.086 C 
HETATM    3  C4  UNL     1      21.971   1.267  49.510  1.00  0.00     0.151 C 
HETATM    4  N1  UNL     1      21.320   1.621  48.369  1.00  0.00    -0.243 NA
HETATM    5  C5  UNL     1      20.991   3.008  48.001  1.00  0.00     0.125 C 
HETATM    6  N2  UNL     1      21.702   3.554  47.014  1.00  0.00    -0.255 NA
HETATM    7  C6  UNL     1      22.365   4.910  47.110  1.00  0.00     0.281 C 
HETATM    8  N3  UNL     1      22.747   5.109  48.546  1.00  0.00    -0.324 N 
HETATM    9  C7  UNL     1      23.888   5.947  48.669  1.00  0.00     0.071 C 
HETATM   10  C8  UNL     1      23.856   6.820  47.674  1.00  0.00     0.032 C 
HETATM   11  C9  UNL     1      24.790   7.891  47.352  1.00  0.00    -0.001 C 
HETATM   12  C10 UNL     1      25.532   8.504  48.267  1.00  0.00    -0.023 C 
HETATM   13  C11 UNL     1      25.651   8.336  49.735  1.00  0.00     0.057 C 
HETATM   14  C12 UNL     1      25.641   6.887  50.142  1.00  0.00     0.017 C 
HETATM   15  C13 UNL     1      24.908   5.846  49.715  1.00  0.00     0.108 C 
HETATM   16  O2  UNL     1      25.307   4.759  50.425  1.00  0.00    -0.272 OA
HETATM   17  S1  UNL     1      25.359   3.118  49.956  1.00  0.00     0.038 SA
HETATM   18  C14 UNL     1      25.421   2.150  51.455  1.00  0.00     0.055 A 
HETATM   19  C15 UNL     1      26.604   2.250  52.157  1.00  0.00     0.023 A 
HETATM   20  C16 UNL     1      26.862   1.582  53.347  1.00  0.00     0.002 A 
HETATM   21  C17 UNL     1      25.878   0.764  53.868  1.00  0.00     0.002 A 
HETATM   22  C18 UNL     1      24.701   0.677  53.152  1.00  0.00     0.031 A 
HETATM   23  C19 UNL     1      24.445   1.340  51.972  1.00  0.00     0.051 A 
HETATM   24  N4  UNL     1      23.170   1.124  51.376  1.00  0.00    -0.352 N 
HETATM   25  C20 UNL     1      21.993   4.466  49.665  1.00  0.00     0.069 C 
HETATM   26  C21 UNL     1      20.644   4.755  49.737  1.00  0.00     0.013 C 
HETATM   27  C22 UNL     1      19.946   3.877  48.693  1.00  0.00     0.109 C 
HETATM   28  H17 UNL     1      22.623   0.234  51.449  1.00  0.00     0.166 HD
ENDROOT
BRANCH   1  29
HETATM   29  O1  UNL     1      22.841   3.803  52.018  1.00  0.00    -0.351 OA
HETATM   30  C1  UNL     1      22.617   5.122  52.530  1.00  0.00     0.210 C 
ENDBRANCH   1  29
TORSDOF 1
ENDMDL
MODEL 6
REMARK VINA RESULT:      -7.7      9.614     12.624
REMARK  1 active torsions:
REMARK  status: ('A' for Active; 'I' for Inactive)
REMARK    1  A    between atoms: O1_2  and  C2_3 
ROOT
HETATM    1  C2  UNL     1      32.196   5.597  47.146  1.00  0.00     0.123 C 
HETATM    2  C3  UNL     1      32.764   6.157  48.268  1.00  0.00     0.086 C 
HETATM    3  C4  UNL     1      33.962   5.552  49.003  1.00  0.00     0.151 C 
HETATM    4  N1  UNL     1      34.753   4.481  48.724  1.00  0.00    -0.243 NA
HETATM    5  C5  UNL     1      34.551   3.581  47.576  1.00  0.00     0.125 C 
HETATM    6  N2  UNL     1      35.420   3.686  46.570  1.00  0.00    -0.255 NA
HETATM    7  C6  UNL     1      35.010   3.818  45.120  1.00  0.00     0.281 C 
HETATM    8  N3  UNL     1      33.704   4.556  45.101  1.00  0.00    -0.324 N 
HETATM    9  C7  UNL     1      33.545   5.299  43.900  1.00  0.00     0.071 C 
HETATM   10  C8  UNL     1      34.155   4.634  42.931  1.00  0.00     0.032 C 
HETATM   11  C9  UNL     1      34.281   4.968  41.518  1.00  0.00    -0.001 C 
HETATM   12  C10 UNL     1      33.389   5.702  40.864  1.00  0.00    -0.023 C 
HETATM   13  C11 UNL     1      32.124   6.350  41.287  1.00  0.00     0.057 C 
HETATM   14  C12 UNL     1      32.239   6.987  42.645  1.00  0.00     0.017 C 
HETATM   15  C13 UNL     1      32.833   6.573  43.777  1.00  0.00     0.108 C 
HETATM   16  O2  UNL     1      32.632   7.540  44.709  1.00  0.00    -0.272 OA
HETATM   17  S1  UNL     1      33.630   8.011  46.012  1.00  0.00     0.038 SA
HETATM   18  C14 UNL     1      32.596   8.901  47.164  1.00  0.00     0.055 A 
HETATM   19  C15 UNL     1      32.165  10.133  46.717  1.00  0.00     0.023 A 
HETATM   20  C16 UNL     1      31.354  10.987  47.454  1.00  0.00     0.002 A 
HETATM   21  C17 UNL     1      30.948  10.586  48.713  1.00  0.00     0.002 A 
HETATM   22  C18 UNL     1      31.389   9.351  49.141  1.00  0.00     0.031 A 
HETATM   23  C19 UNL     1      32.194   8.504  48.412  1.00  0.00     0.051 A 
HETATM   24  N4  UNL     1      32.548   7.268  49.023  1.00  0.00    -0.352 N 
HETATM   25  C20 UNL     1      32.739   4.492  46.239  1.00  0.00     0.069 C 
HETATM   26  C21 UNL     1      32.294   3.233  46.593  1.00  0.00     0.013 C 
HETATM   27  C22 UNL     1      33.405   2.587  47.429  1.00  0.00     0.109 C 
HETATM   28  H17 UNL     1      32.669   7.127  50.054  1.00  0.00     0.166 HD
ENDROOT
BRANCH   1  29
HETATM   29  O1  UNL     1      30.982   6.244  46.974  1.00  0.00    -0.351 OA
HETATM   30  C1  UNL     1      29.827   5.837  47.717  1.00  0.00     0.210 C 
ENDBRANCH   1  29
TORSDOF 1
ENDMDL
MODEL 7
REMARK VINA RESULT:      -7.7      2.446      6.904
REMARK  1 active torsions:
REMARK  status: ('A' for Active; 'I' for Inactive)
REMARK    1  A    between atoms: O1_2  and  C2_3 
ROOT
HETATM    1  C2  UNL     1      22.405   2.729  50.429  1.00  0.00     0.123 C 
HETATM    2  C3  UNL     1      23.072   2.834  51.628  1.00  0.00     0.086 C 
HETATM    3  C4  UNL     1      23.689   4.135  52.144  1.00  0.00     0.151 C 
HETATM    4  N1  UNL     1      23.662   5.407  51.662  1.00  0.00    -0.243 NA
HETATM    5  C5  UNL     1      23.016   5.798  50.397  1.00  0.00     0.125 C 
HETATM    6  N2  UNL     1      21.876   6.483  50.491  1.00  0.00    -0.255 NA
HETATM    7  C6  UNL     1      20.617   6.121  49.735  1.00  0.00     0.281 C 
HETATM    8  N3  UNL     1      20.618   4.630  49.573  1.00  0.00    -0.324 N 
HETATM    9  C7  UNL     1      19.296   4.114  49.502  1.00  0.00     0.071 C 
HETATM   10  C8  UNL     1      18.537   5.028  48.916  1.00  0.00     0.032 C 
HETATM   11  C9  UNL     1      17.115   4.988  48.606  1.00  0.00    -0.001 C 
HETATM   12  C10 UNL     1      16.453   3.859  48.381  1.00  0.00    -0.023 C 
HETATM   13  C11 UNL     1      16.876   2.438  48.368  1.00  0.00     0.057 C 
HETATM   14  C12 UNL     1      17.829   2.120  49.488  1.00  0.00     0.017 C 
HETATM   15  C13 UNL     1      18.867   2.805  49.997  1.00  0.00     0.108 C 
HETATM   16  O2  UNL     1      19.385   2.053  51.003  1.00  0.00    -0.272 OA
HETATM   17  S1  UNL     1      20.151   2.555  52.444  1.00  0.00     0.038 SA
HETATM   18  C14 UNL     1      21.085   1.158  53.050  1.00  0.00     0.055 A 
HETATM   19  C15 UNL     1      20.318   0.113  53.521  1.00  0.00     0.023 A 
HETATM   20  C16 UNL     1      20.842  -1.065  54.036  1.00  0.00     0.002 A 
HETATM   21  C17 UNL     1      22.215  -1.211  54.082  1.00  0.00     0.002 A 
HETATM   22  C18 UNL     1      22.966  -0.155  53.605  1.00  0.00     0.031 A 
HETATM   23  C19 UNL     1      22.447   1.014  53.095  1.00  0.00     0.051 A 
HETATM   24  N4  UNL     1      23.381   1.993  52.652  1.00  0.00    -0.352 N 
HETATM   25  C20 UNL     1      21.884   3.839  49.515  1.00  0.00     0.069 C 
HETATM   26  C21 UNL     1      22.776   4.186  48.520  1.00  0.00     0.013 C 
HETATM   27  C22 UNL     1      23.519   5.436  49.004  1.00  0.00     0.109 C 
HETATM   28  H17 UNL     1      24.332   2.138  53.066  1.00  0.00     0.166 HD
ENDROOT
BRANCH   1  29
HETATM   29  O1  UNL     1      22.283   1.370  50.181  1.00  0.00    -0.351 OA
HETATM   30  C1  UNL     1      21.679   0.900  48.971  1.00  0.00     0.210 C 
ENDBRANCH   1  29
TORSDOF 1
ENDMDL
MODEL 8
REMARK VINA RESULT:      -7.7      2.079      6.073
REMARK  1 active torsions:
REMARK  status: ('A' for Active; 'I' for Inactive)
REMARK    1  A    between atoms: O1_2  and  C2_3 
ROOT
HETATM    1  C2  UNL     1      23.505   4.256  49.288  1.00  0.00     0.123 C 
HETATM    2  C3  UNL     1      24.601   4.658  50.018  1.00  0.00     0.086 C 
HETATM    3  C4  UNL     1      24.902   6.118  50.360  1.00  0.00     0.151 C 
HETATM    4  N1  UNL     1      24.202   7.264  50.146  1.00  0.00    -0.243 NA
HETATM    5  C5  UNL     1      22.921   7.328  49.422  1.00  0.00     0.125 C 
HETATM    6  N2  UNL     1      21.827   7.544  50.154  1.00  0.00    -0.255 NA
HETATM    7  C6  UNL     1      20.572   6.705  50.053  1.00  0.00     0.281 C 
HETATM    8  N3  UNL     1      21.004   5.315  49.691  1.00  0.00    -0.324 N 
HETATM    9  C7  UNL     1      20.096   4.343  50.190  1.00  0.00     0.071 C 
HETATM   10  C8  UNL     1      18.886   4.882  50.185  1.00  0.00     0.032 C 
HETATM   11  C9  UNL     1      17.614   4.301  50.596  1.00  0.00    -0.001 C 
HETATM   12  C10 UNL     1      17.364   2.998  50.552  1.00  0.00    -0.023 C 
HETATM   13  C11 UNL     1      18.181   1.837  50.126  1.00  0.00     0.057 C 
HETATM   14  C12 UNL     1      19.609   1.949  50.587  1.00  0.00     0.017 C 
HETATM   15  C13 UNL     1      20.454   2.993  50.629  1.00  0.00     0.108 C 
HETATM   16  O2  UNL     1      21.627   2.536  51.137  1.00  0.00    -0.272 OA
HETATM   17  S1  UNL     1      22.786   3.353  52.088  1.00  0.00     0.038 SA
HETATM   18  C14 UNL     1      24.311   2.434  51.954  1.00  0.00     0.055 A 
HETATM   19  C15 UNL     1      24.297   1.202  52.576  1.00  0.00     0.023 A 
HETATM   20  C16 UNL     1      25.376   0.328  52.593  1.00  0.00     0.002 A 
HETATM   21  C17 UNL     1      26.540   0.705  51.950  1.00  0.00     0.002 A 
HETATM   22  C18 UNL     1      26.534   1.940  51.334  1.00  0.00     0.031 A 
HETATM   23  C19 UNL     1      25.464   2.808  51.316  1.00  0.00     0.051 A 
HETATM   24  N4  UNL     1      25.648   4.041  50.629  1.00  0.00    -0.352 N 
HETATM   25  C20 UNL     1      22.252   5.049  48.914  1.00  0.00     0.069 C 
HETATM   26  C21 UNL     1      22.342   5.654  47.676  1.00  0.00     0.013 C 
HETATM   27  C22 UNL     1      22.746   7.113  47.923  1.00  0.00     0.109 C 
HETATM   28  H17 UNL     1      26.561   4.548  50.550  1.00  0.00     0.166 HD
ENDROOT
BRANCH   1  29
HETATM   29  O1  UNL     1      23.751   2.939  48.931  1.00  0.00    -0.351 OA
HETATM   30  C1  UNL     1      22.872   2.249  48.035  1.00  0.00     0.210 C 
ENDBRANCH   1  29
TORSDOF 1
ENDMDL
MODEL 9
REMARK VINA RESULT:      -7.6      7.723     11.190
REMARK  1 active torsions:
REMARK  status: ('A' for Active; 'I' for Inactive)
REMARK    1  A    between atoms: O1_2  and  C2_3 
ROOT
HETATM    1  C2  UNL     1      31.797   8.829  47.686  1.00  0.00     0.123 C 
HETATM    2  C3  UNL     1      32.491   9.161  46.545  1.00  0.00     0.086 C 
HETATM    3  C4  UNL     1      33.469   8.218  45.843  1.00  0.00     0.151 C 
HETATM    4  N1  UNL     1      33.802   6.919  46.073  1.00  0.00    -0.243 NA
HETATM    5  C5  UNL     1      33.272   6.114  47.186  1.00  0.00     0.125 C 
HETATM    6  N2  UNL     1      32.381   5.171  46.875  1.00  0.00    -0.255 NA
HETATM    7  C6  UNL     1      31.056   5.004  47.585  1.00  0.00     0.281 C 
HETATM    8  N3  UNL     1      30.621   6.370  48.025  1.00  0.00    -0.324 N 
HETATM    9  C7  UNL     1      29.205   6.470  48.087  1.00  0.00     0.071 C 
HETATM   10  C8  UNL     1      28.732   5.280  48.429  1.00  0.00     0.032 C 
HETATM   11  C9  UNL     1      27.353   4.857  48.628  1.00  0.00    -0.001 C 
HETATM   12  C10 UNL     1      26.387   5.685  49.009  1.00  0.00    -0.023 C 
HETATM   13  C11 UNL     1      26.380   7.134  49.323  1.00  0.00     0.057 C 
HETATM   14  C12 UNL     1      27.223   7.927  48.362  1.00  0.00     0.017 C 
HETATM   15  C13 UNL     1      28.425   7.679  47.816  1.00  0.00     0.108 C 
HETATM   16  O2  UNL     1      28.724   8.733  47.014  1.00  0.00    -0.272 OA
HETATM   17  S1  UNL     1      29.632   8.771  45.569  1.00  0.00     0.038 SA
HETATM   18  C14 UNL     1      30.133  10.466  45.313  1.00  0.00     0.055 A 
HETATM   19  C15 UNL     1      29.106  11.327  44.988  1.00  0.00     0.023 A 
HETATM   20  C16 UNL     1      29.276  12.684  44.748  1.00  0.00     0.002 A 
HETATM   21  C17 UNL     1      30.549  13.214  44.838  1.00  0.00     0.002 A 
HETATM   22  C18 UNL     1      31.563  12.337  45.165  1.00  0.00     0.031 A 
HETATM   23  C19 UNL     1      31.395  10.991  45.403  1.00  0.00     0.051 A 
HETATM   24  N4  UNL     1      32.564  10.244  45.725  1.00  0.00    -0.352 N 
HETATM   25  C20 UNL     1      31.601   7.455  48.330  1.00  0.00     0.069 C 
HETATM   26  C21 UNL     1      32.535   7.178  49.309  1.00  0.00     0.013 C 
HETATM   27  C22 UNL     1      33.618   6.311  48.657  1.00  0.00     0.109 C 
HETATM   28  H17 UNL     1      33.525  10.459  45.368  1.00  0.00     0.166 HD
ENDROOT
BRANCH   1  29
HETATM   29  O1  UNL     1      31.281  10.019  48.175  1.00  0.00    -0.351 OA
HETATM   30  C1  UNL     1      30.635  10.065  49.453  1.00  0.00     0.210 C 
ENDBRANCH   1  29
TORSDOF 1
ENDMDL
