MODEL 1
REMARK VINA RESULT:      -8.5      0.000      0.000
REMARK  6 active torsions:
REMARK  status: ('A' for Active; 'I' for Inactive)
REMARK    1  A    between atoms: C5_6  and  N2_7 
REMARK    2  A    between atoms: N2_7  and  C6_8 
REMARK    3  A    between atoms: C10_15  and  C11_16 
REMARK    4  A    between atoms: C11_16  and  O1_17 
REMARK    5  A    between atoms: O1_17  and  C12_18 
REMARK    6  A    between atoms: C12_18  and  C13_19 
ROOT
HETATM    1  C6  UNL     1      22.507   0.780  51.881  1.00  0.00     0.159 A 
HETATM    2  N3  UNL     1      21.544   1.230  51.060  1.00  0.00    -0.220 NA
HETATM    3  C7  UNL     1      20.249   0.857  51.263  1.00  0.00     0.258 A 
HETATM    4  N4  UNL     1      19.977   0.039  52.295  1.00  0.00    -0.161 NA
HETATM    5  N5  UNL     1      20.969  -0.379  53.080  1.00  0.00    -0.240 N 
HETATM    6  C8  UNL     1      20.796  -1.185  54.138  1.00  0.00     0.119 A 
HETATM    7  C9  UNL     1      22.066  -1.345  54.654  1.00  0.00     0.031 A 
HETATM    8  C10 UNL     1      23.012  -0.651  53.930  1.00  0.00    -0.001 A 
HETATM    9  C17 UNL     1      22.264  -0.049  52.935  1.00  0.00     0.112 A 
ENDROOT
BRANCH   1  10
HETATM   10  N2  UNL     1      23.779   1.263  51.559  1.00  0.00    -0.332 N 
HETATM   11  H7  UNL     1      24.743   0.977  51.282  1.00  0.00     0.168 HD
BRANCH  10  12
HETATM   12  C5  UNL     1      24.139   2.609  51.530  1.00  0.00     0.088 C 
HETATM   13  C4  UNL     1      23.815   3.806  52.075  1.00  0.00     0.040 C 
HETATM   14  C3  UNL     1      23.723   5.105  51.648  1.00  0.00     0.022 C 
HETATM   15  C2  UNL     1      24.690   5.612  50.770  1.00  0.00     0.112 C 
HETATM   16  N1  UNL     1      25.423   6.032  49.697  1.00  0.00    -0.285 N 
HETATM   17  C1  UNL     1      25.401   7.477  49.581  1.00  0.00     0.179 C 
HETATM   18  N7  UNL     1      26.039   5.168  48.916  1.00  0.00    -0.177 NA
HETATM   19  C20 UNL     1      26.808   4.188  49.375  1.00  0.00     0.203 C 
HETATM   20  C19 UNL     1      25.892   3.618  50.128  1.00  0.00    -0.051 C 
HETATM   21  C18 UNL     1      25.083   3.140  50.779  1.00  0.00    -0.043 C 
ENDBRANCH  10  12
ENDBRANCH   1  10
BRANCH   8  22
HETATM   22  C11 UNL     1      24.457  -0.451  54.013  1.00  0.00     0.208 C 
BRANCH  22  23
HETATM   23  O1  UNL     1      25.196  -0.976  52.996  1.00  0.00    -0.384 OA
BRANCH  23  24
HETATM   24  C12 UNL     1      26.547  -1.077  53.172  1.00  0.00     0.201 C 
BRANCH  24  25
HETATM   25  C13 UNL     1      27.075   0.267  53.654  1.00  0.00     0.173 C 
HETATM   26  C14 UNL     1      28.309   0.015  54.503  1.00  0.00     0.303 C 
HETATM   27  N6  UNL     1      28.824   1.257  55.051  1.00  0.00     0.088 N 
HETATM   28  C15 UNL     1      29.150   2.096  53.913  1.00  0.00     0.295 C 
HETATM   29  H18 UNL     1      28.044   1.655  55.620  1.00  0.00     0.316 HD
HETATM   30  C16 UNL     1      27.890   2.290  53.102  1.00  0.00     0.198 C 
HETATM   31  O2  UNL     1      27.340   1.128  52.613  1.00  0.00    -0.380 OA
ENDBRANCH  24  25
ENDBRANCH  23  24
ENDBRANCH  22  23
ENDBRANCH   8  22
TORSDOF 6
ENDMDL
MODEL 2
REMARK VINA RESULT:      -8.4      1.737      2.519
REMARK  6 active torsions:
REMARK  status: ('A' for Active; 'I' for Inactive)
REMARK    1  A    between atoms: C5_6  and  N2_7 
REMARK    2  A    between atoms: N2_7  and  C6_8 
REMARK    3  A    between atoms: C10_15  and  C11_16 
REMARK    4  A    between atoms: C11_16  and  O1_17 
REMARK    5  A    between atoms: O1_17  and  C12_18 
REMARK    6  A    between atoms: C12_18  and  C13_19 
ROOT
HETATM    1  C6  UNL     1      23.052   2.983  52.310  1.00  0.00     0.159 A 
HETATM    2  N3  UNL     1      22.095   3.907  52.129  1.00  0.00    -0.220 NA
HETATM    3  C7  UNL     1      20.783   3.546  52.185  1.00  0.00     0.258 A 
HETATM    4  N4  UNL     1      20.487   2.256  52.423  1.00  0.00    -0.161 NA
HETATM    5  N5  UNL     1      21.475   1.378  52.596  1.00  0.00    -0.240 N 
HETATM    6  C8  UNL     1      21.280   0.075  52.849  1.00  0.00     0.119 A 
HETATM    7  C9  UNL     1      22.555  -0.441  52.964  1.00  0.00     0.031 A 
HETATM    8  C10 UNL     1      23.524   0.522  52.786  1.00  0.00    -0.001 A 
HETATM    9  C17 UNL     1      22.786   1.669  52.554  1.00  0.00     0.112 A 
ENDROOT
BRANCH   1  10
HETATM   10  N2  UNL     1      24.348   3.506  52.244  1.00  0.00    -0.332 N 
HETATM   11  H7  UNL     1      25.183   3.762  52.815  1.00  0.00     0.168 HD
BRANCH  10  12
HETATM   12  C5  UNL     1      24.986   3.915  51.075  1.00  0.00     0.088 C 
HETATM   13  C4  UNL     1      25.727   3.437  50.047  1.00  0.00     0.040 C 
HETATM   14  C3  UNL     1      26.795   3.864  49.302  1.00  0.00     0.022 C 
HETATM   15  C2  UNL     1      26.866   5.207  48.908  1.00  0.00     0.112 C 
HETATM   16  N1  UNL     1      27.115   6.543  48.776  1.00  0.00    -0.285 N 
HETATM   17  C1  UNL     1      28.100   6.793  47.741  1.00  0.00     0.179 C 
HETATM   18  N7  UNL     1      26.499   7.427  49.534  1.00  0.00    -0.177 NA
HETATM   19  C20 UNL     1      25.185   7.436  49.723  1.00  0.00     0.203 C 
HETATM   20  C19 UNL     1      25.094   6.214  50.202  1.00  0.00    -0.051 C 
HETATM   21  C18 UNL     1      25.034   5.149  50.612  1.00  0.00    -0.043 C 
ENDBRANCH  10  12
ENDBRANCH   1  10
BRANCH   8  22
HETATM   22  C11 UNL     1      24.985   0.557  52.805  1.00  0.00     0.208 C 
BRANCH  22  23
HETATM   23  O1  UNL     1      25.557   1.233  53.839  1.00  0.00    -0.384 OA
BRANCH  23  24
HETATM   24  C12 UNL     1      26.409   0.550  54.659  1.00  0.00     0.201 C 
BRANCH  24  25
HETATM   25  C13 UNL     1      27.619   0.113  53.845  1.00  0.00     0.173 C 
HETATM   26  C14 UNL     1      28.825   0.899  54.327  1.00  0.00     0.303 C 
HETATM   27  N6  UNL     1      30.003   0.575  53.541  1.00  0.00     0.088 N 
HETATM   28  C15 UNL     1      30.222  -0.849  53.710  1.00  0.00     0.295 C 
HETATM   29  H18 UNL     1      29.757   0.819  52.556  1.00  0.00     0.316 HD
HETATM   30  C16 UNL     1      28.982  -1.570  53.234  1.00  0.00     0.198 C 
HETATM   31  O2  UNL     1      27.834  -1.246  53.919  1.00  0.00    -0.380 OA
ENDBRANCH  24  25
ENDBRANCH  23  24
ENDBRANCH  22  23
ENDBRANCH   8  22
TORSDOF 6
ENDMDL
MODEL 3
REMARK VINA RESULT:      -8.4      2.371      5.681
REMARK  6 active torsions:
REMARK  status: ('A' for Active; 'I' for Inactive)
REMARK    1  A    between atoms: C5_6  and  N2_7 
REMARK    2  A    between atoms: N2_7  and  C6_8 
REMARK    3  A    between atoms: C10_15  and  C11_16 
REMARK    4  A    between atoms: C11_16  and  O1_17 
REMARK    5  A    between atoms: O1_17  and  C12_18 
REMARK    6  A    between atoms: C12_18  and  C13_19 
ROOT
HETATM    1  C6  UNL     1      22.726   0.253  53.372  1.00  0.00     0.159 A 
HETATM    2  N3  UNL     1      22.978  -0.564  54.407  1.00  0.00    -0.220 NA
HETATM    3  C7  UNL     1      21.998  -1.385  54.879  1.00  0.00     0.258 A 
HETATM    4  N4  UNL     1      20.794  -1.347  54.283  1.00  0.00    -0.161 NA
HETATM    5  N5  UNL     1      20.595  -0.517  53.259  1.00  0.00    -0.240 N 
HETATM    6  C8  UNL     1      19.435  -0.416  52.593  1.00  0.00     0.119 A 
HETATM    7  C9  UNL     1      19.682   0.536  51.625  1.00  0.00     0.031 A 
HETATM    8  C10 UNL     1      20.972   1.018  51.687  1.00  0.00    -0.001 A 
HETATM    9  C17 UNL     1      21.517   0.315  52.745  1.00  0.00     0.112 A 
ENDROOT
BRANCH   1  10
HETATM   10  N2  UNL     1      23.832   1.019  52.988  1.00  0.00    -0.332 N 
HETATM   11  H7  UNL     1      24.141   1.980  52.729  1.00  0.00     0.168 HD
BRANCH  10  12
HETATM   12  C5  UNL     1      25.125   0.527  52.821  1.00  0.00     0.088 C 
HETATM   13  C4  UNL     1      25.796  -0.579  52.419  1.00  0.00     0.040 C 
HETATM   14  C3  UNL     1      26.924  -1.258  52.803  1.00  0.00     0.022 C 
HETATM   15  C2  UNL     1      28.063  -0.539  53.187  1.00  0.00     0.112 C 
HETATM   16  N1  UNL     1      29.062   0.117  53.848  1.00  0.00    -0.285 N 
HETATM   17  C1  UNL     1      30.264  -0.692  53.915  1.00  0.00     0.179 C 
HETATM   18  N7  UNL     1      28.876   1.327  54.334  1.00  0.00    -0.177 NA
HETATM   19  C20 UNL     1      28.347   2.321  53.632  1.00  0.00     0.203 C 
HETATM   20  C19 UNL     1      27.215   1.717  53.343  1.00  0.00    -0.051 C 
HETATM   21  C18 UNL     1      26.240   1.174  53.098  1.00  0.00    -0.043 C 
ENDBRANCH  10  12
ENDBRANCH   1  10
BRANCH   8  22
HETATM   22  C11 UNL     1      21.764   1.991  50.938  1.00  0.00     0.208 C 
BRANCH  22  23
HETATM   23  O1  UNL     1      22.220   3.064  51.642  1.00  0.00    -0.384 OA
BRANCH  23  24
HETATM   24  C12 UNL     1      21.339   4.071  51.917  1.00  0.00     0.201 C 
BRANCH  24  25
HETATM   25  C13 UNL     1      22.081   5.399  51.844  1.00  0.00     0.173 C 
HETATM   26  C14 UNL     1      23.512   5.168  52.298  1.00  0.00     0.303 C 
HETATM   27  N6  UNL     1      24.258   6.414  52.315  1.00  0.00     0.088 N 
HETATM   28  C15 UNL     1      24.229   6.921  50.957  1.00  0.00     0.295 C 
HETATM   29  H18 UNL     1      23.743   7.037  52.977  1.00  0.00     0.316 HD
HETATM   30  C16 UNL     1      22.782   7.108  50.561  1.00  0.00     0.198 C 
HETATM   31  O2  UNL     1      22.029   5.958  50.587  1.00  0.00    -0.380 OA
ENDBRANCH  24  25
ENDBRANCH  23  24
ENDBRANCH  22  23
ENDBRANCH   8  22
TORSDOF 6
ENDMDL
MODEL 4
REMARK VINA RESULT:      -8.1      1.804      5.673
REMARK  6 active torsions:
REMARK  status: ('A' for Active; 'I' for Inactive)
REMARK    1  A    between atoms: C5_6  and  N2_7 
REMARK    2  A    between atoms: N2_7  and  C6_8 
REMARK    3  A    between atoms: C10_15  and  C11_16 
REMARK    4  A    between atoms: C11_16  and  O1_17 
REMARK    5  A    between atoms: O1_17  and  C12_18 
REMARK    6  A    between atoms: C12_18  and  C13_19 
ROOT
HETATM    1  C6  UNL     1      27.324   1.814  53.475  1.00  0.00     0.159 A 
HETATM    2  N3  UNL     1      28.274   2.650  53.922  1.00  0.00    -0.220 NA
HETATM    3  C7  UNL     1      29.506   2.167  54.247  1.00  0.00     0.258 A 
HETATM    4  N4  UNL     1      29.730   0.849  54.107  1.00  0.00    -0.161 NA
HETATM    5  N5  UNL     1      28.752   0.062  53.659  1.00  0.00    -0.240 N 
HETATM    6  C8  UNL     1      28.883  -1.261  53.475  1.00  0.00     0.119 A 
HETATM    7  C9  UNL     1      27.651  -1.660  52.999  1.00  0.00     0.031 A 
HETATM    8  C10 UNL     1      26.770  -0.605  52.889  1.00  0.00    -0.001 A 
HETATM    9  C17 UNL     1      27.519   0.474  53.321  1.00  0.00     0.112 A 
ENDROOT
BRANCH   1  10
HETATM   10  N2  UNL     1      26.121   2.457  53.163  1.00  0.00    -0.332 N 
HETATM   11  H7  UNL     1      25.243   2.843  53.571  1.00  0.00     0.168 HD
BRANCH  10  12
HETATM   12  C5  UNL     1      25.722   2.827  51.881  1.00  0.00     0.088 C 
HETATM   13  C4  UNL     1      26.225   3.183  50.674  1.00  0.00     0.040 C 
HETATM   14  C3  UNL     1      25.906   4.076  49.683  1.00  0.00     0.022 C 
HETATM   15  C2  UNL     1      24.563   4.266  49.334  1.00  0.00     0.112 C 
HETATM   16  N1  UNL     1      23.273   4.692  49.187  1.00  0.00    -0.285 N 
HETATM   17  C1  UNL     1      23.095   5.399  47.934  1.00  0.00     0.179 C 
HETATM   18  N7  UNL     1      22.370   4.451  50.115  1.00  0.00    -0.177 NA
HETATM   19  C20 UNL     1      22.176   3.253  50.652  1.00  0.00     0.203 C 
HETATM   20  C19 UNL     1      23.404   3.087  51.094  1.00  0.00    -0.051 C 
HETATM   21  C18 UNL     1      24.478   2.958  51.466  1.00  0.00    -0.043 C 
ENDBRANCH  10  12
ENDBRANCH   1  10
BRANCH   8  22
HETATM   22  C11 UNL     1      25.387  -0.436  52.449  1.00  0.00     0.208 C 
BRANCH  22  23
HETATM   23  O1  UNL     1      24.513   0.034  53.382  1.00  0.00    -0.384 OA
BRANCH  23  24
HETATM   24  C12 UNL     1      23.787  -0.875  54.098  1.00  0.00     0.201 C 
BRANCH  24  25
HETATM   25  C13 UNL     1      22.395  -0.974  53.488  1.00  0.00     0.173 C 
HETATM   26  C14 UNL     1      21.409  -1.268  54.603  1.00  0.00     0.303 C 
HETATM   27  N6  UNL     1      20.066  -1.441  54.076  1.00  0.00     0.088 N 
HETATM   28  C15 UNL     1      19.730  -0.196  53.412  1.00  0.00     0.295 C 
HETATM   29  H18 UNL     1      20.132  -2.238  53.404  1.00  0.00     0.316 HD
HETATM   30  C16 UNL     1      20.758   0.048  52.332  1.00  0.00     0.198 C 
HETATM   31  O2  UNL     1      22.051   0.161  52.788  1.00  0.00    -0.380 OA
ENDBRANCH  24  25
ENDBRANCH  23  24
ENDBRANCH  22  23
ENDBRANCH   8  22
TORSDOF 6
ENDMDL
MODEL 5
REMARK VINA RESULT:      -8.0      1.885      6.757
REMARK  6 active torsions:
REMARK  status: ('A' for Active; 'I' for Inactive)
REMARK    1  A    between atoms: C5_6  and  N2_7 
REMARK    2  A    between atoms: N2_7  and  C6_8 
REMARK    3  A    between atoms: C10_15  and  C11_16 
REMARK    4  A    between atoms: C11_16  and  O1_17 
REMARK    5  A    between atoms: O1_17  and  C12_18 
REMARK    6  A    between atoms: C12_18  and  C13_19 
ROOT
HETATM    1  C6  UNL     1      25.730   3.482  50.439  1.00  0.00     0.159 A 
HETATM    2  N3  UNL     1      26.771   3.559  49.595  1.00  0.00    -0.220 NA
HETATM    3  C7  UNL     1      27.051   4.734  48.966  1.00  0.00     0.258 A 
HETATM    4  N4  UNL     1      26.262   5.794  49.216  1.00  0.00    -0.161 NA
HETATM    5  N5  UNL     1      25.241   5.665  50.062  1.00  0.00    -0.240 N 
HETATM    6  C8  UNL     1      24.406   6.665  50.384  1.00  0.00     0.119 A 
HETATM    7  C9  UNL     1      23.526   6.096  51.282  1.00  0.00     0.031 A 
HETATM    8  C10 UNL     1      23.808   4.767  51.514  1.00  0.00    -0.001 A 
HETATM    9  C17 UNL     1      24.912   4.537  50.714  1.00  0.00     0.112 A 
ENDROOT
BRANCH   1  10
HETATM   10  N2  UNL     1      25.580   2.220  51.022  1.00  0.00    -0.332 N 
HETATM   11  H7  UNL     1      24.982   1.366  51.040  1.00  0.00     0.168 HD
BRANCH  10  12
HETATM   12  C5  UNL     1      26.440   1.672  51.972  1.00  0.00     0.088 C 
HETATM   13  C4  UNL     1      27.386   2.024  52.876  1.00  0.00     0.040 C 
HETATM   14  C3  UNL     1      28.578   1.515  53.323  1.00  0.00     0.022 C 
HETATM   15  C2  UNL     1      28.707   0.134  53.520  1.00  0.00     0.112 C 
HETATM   16  N1  UNL     1      28.956  -1.205  53.428  1.00  0.00    -0.285 N 
HETATM   17  C1  UNL     1      30.129  -1.574  54.196  1.00  0.00     0.179 C 
HETATM   18  N7  UNL     1      28.181  -1.991  52.709  1.00  0.00    -0.177 NA
HETATM   19  C20 UNL     1      26.857  -1.990  52.798  1.00  0.00     0.203 C 
HETATM   20  C19 UNL     1      26.688  -0.718  52.506  1.00  0.00    -0.051 C 
HETATM   21  C18 UNL     1      26.562   0.390  52.256  1.00  0.00    -0.043 C 
ENDBRANCH  10  12
ENDBRANCH   1  10
BRANCH   8  22
HETATM   22  C11 UNL     1      23.242   3.705  52.344  1.00  0.00     0.208 C 
BRANCH  22  23
HETATM   23  O1  UNL     1      21.941   3.382  52.103  1.00  0.00    -0.384 OA
BRANCH  23  24
HETATM   24  C12 UNL     1      21.643   2.075  51.843  1.00  0.00     0.201 C 
BRANCH  24  25
HETATM   25  C13 UNL     1      22.025   1.239  53.057  1.00  0.00     0.173 C 
HETATM   26  C14 UNL     1      20.754   0.664  53.656  1.00  0.00     0.303 C 
HETATM   27  N6  UNL     1      21.045  -0.092  54.862  1.00  0.00     0.088 N 
HETATM   28  C15 UNL     1      21.948  -1.155  54.464  1.00  0.00     0.295 C 
HETATM   29  H18 UNL     1      21.500   0.586  55.512  1.00  0.00     0.316 HD
HETATM   30  C16 UNL     1      23.178  -0.518  53.860  1.00  0.00     0.198 C 
HETATM   31  O2  UNL     1      22.934   0.253  52.747  1.00  0.00    -0.380 OA
ENDBRANCH  24  25
ENDBRANCH  23  24
ENDBRANCH  22  23
ENDBRANCH   8  22
TORSDOF 6
ENDMDL
MODEL 6
REMARK VINA RESULT:      -7.9      2.320      4.725
REMARK  6 active torsions:
REMARK  status: ('A' for Active; 'I' for Inactive)
REMARK    1  A    between atoms: C5_6  and  N2_7 
REMARK    2  A    between atoms: N2_7  and  C6_8 
REMARK    3  A    between atoms: C10_15  and  C11_16 
REMARK    4  A    between atoms: C11_16  and  O1_17 
REMARK    5  A    between atoms: O1_17  and  C12_18 
REMARK    6  A    between atoms: C12_18  and  C13_19 
ROOT
HETATM    1  C6  UNL     1      24.342   0.510  52.721  1.00  0.00     0.159 A 
HETATM    2  N3  UNL     1      25.666   0.296  52.793  1.00  0.00    -0.220 NA
HETATM    3  C7  UNL     1      26.172  -0.504  53.773  1.00  0.00     0.258 A 
HETATM    4  N4  UNL     1      25.315  -1.061  54.646  1.00  0.00    -0.161 NA
HETATM    5  N5  UNL     1      24.010  -0.817  54.531  1.00  0.00    -0.240 N 
HETATM    6  C8  UNL     1      23.078  -1.335  55.345  1.00  0.00     0.119 A 
HETATM    7  C9  UNL     1      21.888  -0.834  54.859  1.00  0.00     0.031 A 
HETATM    8  C10 UNL     1      22.076  -0.019  53.763  1.00  0.00    -0.001 A 
HETATM    9  C17 UNL     1      23.447  -0.040  53.590  1.00  0.00     0.112 A 
ENDROOT
BRANCH   1  10
HETATM   10  N2  UNL     1      23.971   1.335  51.654  1.00  0.00    -0.332 N 
HETATM   11  H7  UNL     1      23.530   1.342  50.709  1.00  0.00     0.168 HD
BRANCH  10  12
HETATM   12  C5  UNL     1      24.164   2.713  51.605  1.00  0.00     0.088 C 
HETATM   13  C4  UNL     1      23.732   3.866  52.171  1.00  0.00     0.040 C 
HETATM   14  C3  UNL     1      23.459   5.143  51.753  1.00  0.00     0.022 C 
HETATM   15  C2  UNL     1      24.303   5.757  50.818  1.00  0.00     0.112 C 
HETATM   16  N1  UNL     1      24.914   6.256  49.704  1.00  0.00    -0.285 N 
HETATM   17  C1  UNL     1      24.711   7.687  49.592  1.00  0.00     0.179 C 
HETATM   18  N7  UNL     1      25.581   5.469  48.885  1.00  0.00    -0.177 NA
HETATM   19  C20 UNL     1      26.488   4.591  49.295  1.00  0.00     0.203 C 
HETATM   20  C19 UNL     1      25.695   3.919  50.101  1.00  0.00    -0.051 C 
HETATM   21  C18 UNL     1      24.990   3.351  50.800  1.00  0.00    -0.043 C 
ENDBRANCH  10  12
ENDBRANCH   1  10
BRANCH   8  22
HETATM   22  C11 UNL     1      21.213   0.746  52.865  1.00  0.00     0.208 C 
BRANCH  22  23
HETATM   23  O1  UNL     1      21.152   0.313  51.575  1.00  0.00    -0.384 OA
BRANCH  23  24
HETATM   24  C12 UNL     1      20.077   0.689  50.823  1.00  0.00     0.201 C 
BRANCH  24  25
HETATM   25  C13 UNL     1      20.578   1.477  49.620  1.00  0.00     0.173 C 
HETATM   26  C14 UNL     1      20.408   2.956  49.916  1.00  0.00     0.303 C 
HETATM   27  N6  UNL     1      20.807   3.763  48.777  1.00  0.00     0.088 N 
HETATM   28  C15 UNL     1      22.202   3.449  48.529  1.00  0.00     0.295 C 
HETATM   29  H18 UNL     1      20.192   3.458  47.990  1.00  0.00     0.316 HD
HETATM   30  C16 UNL     1      22.305   1.966  48.263  1.00  0.00     0.198 C 
HETATM   31  O2  UNL     1      21.882   1.168  49.300  1.00  0.00    -0.380 OA
ENDBRANCH  24  25
ENDBRANCH  23  24
ENDBRANCH  22  23
ENDBRANCH   8  22
TORSDOF 6
ENDMDL
MODEL 7
REMARK VINA RESULT:      -7.6      1.902      5.663
REMARK  6 active torsions:
REMARK  status: ('A' for Active; 'I' for Inactive)
REMARK    1  A    between atoms: C5_6  and  N2_7 
REMARK    2  A    between atoms: N2_7  and  C6_8 
REMARK    3  A    between atoms: C10_15  and  C11_16 
REMARK    4  A    between atoms: C11_16  and  O1_17 
REMARK    5  A    between atoms: O1_17  and  C12_18 
REMARK    6  A    between atoms: C12_18  and  C13_19 
ROOT
HETATM    1  C6  UNL     1      26.690   1.664  52.344  1.00  0.00     0.159 A 
HETATM    2  N3  UNL     1      27.843   2.350  52.393  1.00  0.00    -0.220 NA
HETATM    3  C7  UNL     1      28.635   2.271  53.499  1.00  0.00     0.258 A 
HETATM    4  N4  UNL     1      28.227   1.497  54.519  1.00  0.00    -0.161 NA
HETATM    5  N5  UNL     1      27.074   0.837  54.421  1.00  0.00    -0.240 N 
HETATM    6  C8  UNL     1      26.589   0.032  55.380  1.00  0.00     0.119 A 
HETATM    7  C9  UNL     1      25.402  -0.440  54.857  1.00  0.00     0.031 A 
HETATM    8  C10 UNL     1      25.153   0.061  53.597  1.00  0.00    -0.001 A 
HETATM    9  C17 UNL     1      26.248   0.871  53.361  1.00  0.00     0.112 A 
ENDROOT
BRANCH   1  10
HETATM   10  N2  UNL     1      25.997   1.829  51.140  1.00  0.00    -0.332 N 
HETATM   11  H7  UNL     1      25.386   1.345  50.448  1.00  0.00     0.168 HD
BRANCH  10  12
HETATM   12  C5  UNL     1      25.962   3.004  50.393  1.00  0.00     0.088 C 
HETATM   13  C4  UNL     1      26.559   3.610  49.338  1.00  0.00     0.040 C 
HETATM   14  C3  UNL     1      26.952   4.881  49.007  1.00  0.00     0.022 C 
HETATM   15  C2  UNL     1      26.128   5.964  49.338  1.00  0.00     0.112 C 
HETATM   16  N1  UNL     1      25.510   7.040  49.909  1.00  0.00    -0.285 N 
HETATM   17  C1  UNL     1      25.870   8.271  49.231  1.00  0.00     0.179 C 
HETATM   18  N7  UNL     1      24.707   6.893  50.942  1.00  0.00    -0.177 NA
HETATM   19  C20 UNL     1      23.732   5.993  50.985  1.00  0.00     0.203 C 
HETATM   20  C19 UNL     1      24.491   4.938  50.786  1.00  0.00    -0.051 C 
HETATM   21  C18 UNL     1      25.167   4.033  50.607  1.00  0.00    -0.043 C 
ENDBRANCH  10  12
ENDBRANCH   1  10
BRANCH   8  22
HETATM   22  C11 UNL     1      24.098  -0.092  52.598  1.00  0.00     0.208 C 
BRANCH  22  23
HETATM   23  O1  UNL     1      23.267   0.974  52.432  1.00  0.00    -0.384 OA
BRANCH  23  24
HETATM   24  C12 UNL     1      22.441   0.980  51.344  1.00  0.00     0.201 C 
BRANCH  24  25
HETATM   25  C13 UNL     1      20.999   0.936  51.830  1.00  0.00     0.173 C 
HETATM   26  C14 UNL     1      20.088   1.120  50.630  1.00  0.00     0.303 C 
HETATM   27  N6  UNL     1      18.694   1.154  51.037  1.00  0.00     0.088 N 
HETATM   28  C15 UNL     1      18.432  -0.116  51.686  1.00  0.00     0.295 C 
HETATM   29  H18 UNL     1      18.618   1.957  51.701  1.00  0.00     0.316 HD
HETATM   30  C16 UNL     1      19.381  -0.246  52.854  1.00  0.00     0.198 C 
HETATM   31  O2  UNL     1      20.714  -0.226  52.512  1.00  0.00    -0.380 OA
ENDBRANCH  24  25
ENDBRANCH  23  24
ENDBRANCH  22  23
ENDBRANCH   8  22
TORSDOF 6
ENDMDL
MODEL 8
REMARK VINA RESULT:      -7.5      4.090      7.972
REMARK  6 active torsions:
REMARK  status: ('A' for Active; 'I' for Inactive)
REMARK    1  A    between atoms: C5_6  and  N2_7 
REMARK    2  A    between atoms: N2_7  and  C6_8 
REMARK    3  A    between atoms: C10_15  and  C11_16 
REMARK    4  A    between atoms: C11_16  and  O1_17 
REMARK    5  A    between atoms: O1_17  and  C12_18 
REMARK    6  A    between atoms: C12_18  and  C13_19 
ROOT
HETATM    1  C6  UNL     1      26.045   5.634  49.678  1.00  0.00     0.159 A 
HETATM    2  N3  UNL     1      24.829   5.961  50.144  1.00  0.00    -0.220 NA
HETATM    3  C7  UNL     1      24.218   7.098  49.709  1.00  0.00     0.258 A 
HETATM    4  N4  UNL     1      24.864   7.866  48.816  1.00  0.00    -0.161 NA
HETATM    5  N5  UNL     1      26.070   7.498  48.385  1.00  0.00    -0.240 N 
HETATM    6  C8  UNL     1      26.787   8.191  47.487  1.00  0.00     0.119 A 
HETATM    7  C9  UNL     1      27.941   7.450  47.331  1.00  0.00     0.031 A 
HETATM    8  C10 UNL     1      27.943   6.318  48.118  1.00  0.00    -0.001 A 
HETATM    9  C17 UNL     1      26.727   6.390  48.772  1.00  0.00     0.112 A 
ENDROOT
BRANCH   1  10
HETATM   10  N2  UNL     1      26.534   4.432  50.199  1.00  0.00    -0.332 N 
HETATM   11  H7  UNL     1      27.401   3.931  50.491  1.00  0.00     0.168 HD
BRANCH  10  12
HETATM   12  C5  UNL     1      25.750   3.332  50.540  1.00  0.00     0.088 C 
HETATM   13  C4  UNL     1      24.479   2.868  50.461  1.00  0.00     0.040 C 
HETATM   14  C3  UNL     1      23.625   2.154  51.261  1.00  0.00     0.022 C 
HETATM   15  C2  UNL     1      24.119   1.073  52.003  1.00  0.00     0.112 C 
HETATM   16  N1  UNL     1      24.619   0.229  52.953  1.00  0.00    -0.285 N 
HETATM   17  C1  UNL     1      23.581  -0.627  53.492  1.00  0.00     0.179 C 
HETATM   18  N7  UNL     1      25.894   0.257  53.283  1.00  0.00    -0.177 NA
HETATM   19  C20 UNL     1      26.878   0.239  52.392  1.00  0.00     0.203 C 
HETATM   20  C19 UNL     1      26.507   1.318  51.736  1.00  0.00    -0.051 C 
HETATM   21  C18 UNL     1      26.165   2.254  51.176  1.00  0.00    -0.043 C 
ENDBRANCH  10  12
ENDBRANCH   1  10
BRANCH   8  22
HETATM   22  C11 UNL     1      28.858   5.202  48.348  1.00  0.00     0.208 C 
BRANCH  22  23
HETATM   23  O1  UNL     1      30.139   5.532  48.672  1.00  0.00    -0.384 OA
BRANCH  23  24
HETATM   24  C12 UNL     1      31.079   5.504  47.682  1.00  0.00     0.201 C 
BRANCH  24  25
HETATM   25  C13 UNL     1      32.360   4.904  48.247  1.00  0.00     0.173 C 
HETATM   26  C14 UNL     1      32.555   3.532  47.627  1.00  0.00     0.303 C 
HETATM   27  N6  UNL     1      33.729   2.877  48.176  1.00  0.00     0.088 N 
HETATM   28  C15 UNL     1      34.853   3.740  47.870  1.00  0.00     0.295 C 
HETATM   29  H18 UNL     1      33.555   2.810  49.204  1.00  0.00     0.316 HD
HETATM   30  C16 UNL     1      34.588   5.089  48.495  1.00  0.00     0.198 C 
HETATM   31  O2  UNL     1      33.452   5.717  48.039  1.00  0.00    -0.380 OA
ENDBRANCH  24  25
ENDBRANCH  23  24
ENDBRANCH  22  23
ENDBRANCH   8  22
TORSDOF 6
ENDMDL
MODEL 9
REMARK VINA RESULT:      -7.5      2.138      6.004
REMARK  6 active torsions:
REMARK  status: ('A' for Active; 'I' for Inactive)
REMARK    1  A    between atoms: C5_6  and  N2_7 
REMARK    2  A    between atoms: N2_7  and  C6_8 
REMARK    3  A    between atoms: C10_15  and  C11_16 
REMARK    4  A    between atoms: C11_16  and  O1_17 
REMARK    5  A    between atoms: O1_17  and  C12_18 
REMARK    6  A    between atoms: C12_18  and  C13_19 
ROOT
HETATM    1  C6  UNL     1      22.748   1.329  52.558  1.00  0.00     0.159 A 
HETATM    2  N3  UNL     1      22.037   0.719  53.519  1.00  0.00    -0.220 NA
HETATM    3  C7  UNL     1      20.812   0.197  53.230  1.00  0.00     0.258 A 
HETATM    4  N4  UNL     1      20.351   0.313  51.973  1.00  0.00    -0.161 NA
HETATM    5  N5  UNL     1      21.097   0.928  51.055  1.00  0.00    -0.240 N 
HETATM    6  C8  UNL     1      20.729   1.082  49.775  1.00  0.00     0.119 A 
HETATM    7  C9  UNL     1      21.788   1.751  49.196  1.00  0.00     0.031 A 
HETATM    8  C10 UNL     1      22.797   2.008  50.100  1.00  0.00    -0.001 A 
HETATM    9  C17 UNL     1      22.310   1.463  51.274  1.00  0.00     0.112 A 
ENDROOT
BRANCH   1  10
HETATM   10  N2  UNL     1      23.991   1.795  52.999  1.00  0.00    -0.332 N 
HETATM   11  H7  UNL     1      24.469   2.578  53.496  1.00  0.00     0.168 HD
BRANCH  10  12
HETATM   12  C5  UNL     1      25.202   1.131  52.822  1.00  0.00     0.088 C 
HETATM   13  C4  UNL     1      25.713  -0.050  52.398  1.00  0.00     0.040 C 
HETATM   14  C3  UNL     1      26.734  -0.888  52.767  1.00  0.00     0.022 C 
HETATM   15  C2  UNL     1      27.961  -0.343  53.166  1.00  0.00     0.112 C 
HETATM   16  N1  UNL     1      29.041   0.152  53.839  1.00  0.00    -0.285 N 
HETATM   17  C1  UNL     1      30.117  -0.819  53.890  1.00  0.00     0.179 C 
HETATM   18  N7  UNL     1      29.025   1.366  54.350  1.00  0.00    -0.177 NA
HETATM   19  C20 UNL     1      28.643   2.439  53.668  1.00  0.00     0.203 C 
HETATM   20  C19 UNL     1      27.438   2.005  53.367  1.00  0.00    -0.051 C 
HETATM   21  C18 UNL     1      26.396   1.609  53.112  1.00  0.00    -0.043 C 
ENDBRANCH  10  12
ENDBRANCH   1  10
BRANCH   8  22
HETATM   22  C11 UNL     1      24.109   2.650  50.054  1.00  0.00     0.208 C 
BRANCH  22  23
HETATM   23  O1  UNL     1      24.111   4.011  50.006  1.00  0.00    -0.384 OA
BRANCH  23  24
HETATM   24  C12 UNL     1      25.301   4.657  50.185  1.00  0.00     0.201 C 
BRANCH  24  25
HETATM   25  C13 UNL     1      25.046   6.158  50.159  1.00  0.00     0.173 C 
HETATM   26  C14 UNL     1      24.801   6.573  48.719  1.00  0.00     0.303 C 
HETATM   27  N6  UNL     1      24.617   8.010  48.618  1.00  0.00     0.088 N 
HETATM   28  C15 UNL     1      23.468   8.330  49.443  1.00  0.00     0.295 C 
HETATM   29  H18 UNL     1      25.497   8.431  48.991  1.00  0.00     0.316 HD
HETATM   30  C16 UNL     1      23.767   7.874  50.852  1.00  0.00     0.198 C 
HETATM   31  O2  UNL     1      24.003   6.525  50.979  1.00  0.00    -0.380 OA
ENDBRANCH  24  25
ENDBRANCH  23  24
ENDBRANCH  22  23
ENDBRANCH   8  22
TORSDOF 6
ENDMDL
