MODEL 1
REMARK VINA RESULT:      -8.7      0.000      0.000
REMARK  6 active torsions:
REMARK  status: ('A' for Active; 'I' for Inactive)
REMARK    1  A    between atoms: C2_2  and  O1_3 
REMARK    2  A    between atoms: C2_2  and  C3_4 
REMARK    3  A    between atoms: C4_5  and  C5_6 
REMARK    4  A    between atoms: C6_7  and  C7_8 
REMARK    5  A    between atoms: C11_14  and  N3_15 
REMARK    6  A    between atoms: C13_19  and  C14_20 
ROOT
HETATM    1  C7  UNL     1      25.452   1.261  51.968  1.00  0.00     0.089 A 
HETATM    2  N1  UNL     1      24.173   1.504  51.647  1.00  0.00    -0.241 NA
HETATM    3  C8  UNL     1      23.200   0.802  52.297  1.00  0.00     0.130 A 
HETATM    4  C9  UNL     1      21.868   1.009  52.011  1.00  0.00     0.082 A 
HETATM    5  C10 UNL     1      21.464   2.002  50.989  1.00  0.00     0.074 C 
HETATM    6  N2  UNL     1      21.003   0.256  52.718  1.00  0.00    -0.066 NA
HETATM    7  C11 UNL     1      21.374  -0.646  53.646  1.00  0.00     0.722 A 
HETATM    8  N4  UNL     1      22.682  -0.826  53.904  1.00  0.00    -0.041 NA
HETATM    9  C12 UNL     1      23.612  -0.113  53.241  1.00  0.00     0.200 A 
HETATM   10  N5  UNL     1      24.907  -0.318  53.523  1.00  0.00    -0.222 NA
HETATM   11  C13 UNL     1      25.884   0.353  52.906  1.00  0.00     0.121 A 
ENDROOT
BRANCH   1  12
HETATM   12  C6  UNL     1      26.416   2.057  51.222  1.00  0.00     0.034 C 
HETATM   13  C5  UNL     1      26.002   2.856  50.235  1.00  0.00     0.002 C 
BRANCH  13  14
HETATM   14  C4  UNL     1      26.803   3.719  49.385  1.00  0.00     0.003 C 
HETATM   15  C3  UNL     1      26.546   4.987  49.182  1.00  0.00     0.035 C 
BRANCH  15  16
HETATM   16  C2  UNL     1      25.452   5.738  49.744  1.00  0.00     0.056 C 
HETATM   17  C1  UNL     1      24.287   6.050  49.161  1.00  0.00     0.050 C 
BRANCH  16  18
HETATM   18  O1  UNL     1      25.110   6.376  50.902  1.00  0.00    -0.362 OA
HETATM   19  H3  UNL     1      25.707   7.059  51.334  1.00  0.00     0.217 HD
ENDBRANCH  16  18
ENDBRANCH  15  16
ENDBRANCH  13  14
ENDBRANCH   1  12
BRANCH  11  20
HETATM   20  C14 UNL     1      27.287   0.124  53.219  1.00  0.00     0.100 A 
HETATM   21  C15 UNL     1      27.738  -1.098  52.985  1.00  0.00     0.039 A 
HETATM   22  C16 UNL     1      29.086  -1.594  53.204  1.00  0.00     0.001 A 
HETATM   23  C17 UNL     1      29.963  -0.736  53.690  1.00  0.00    -0.000 A 
HETATM   24  C18 UNL     1      29.554   0.650  53.981  1.00  0.00     0.203 A 
HETATM   25  O2  UNL     1      28.225   0.959  53.713  1.00  0.00    -0.345 OA
ENDBRANCH  11  20
BRANCH   7  26
HETATM   26  N3  UNL     1      20.361  -1.378  54.322  1.00  0.00    -0.231 N 
HETATM   27  H11 UNL     1      20.125  -1.081  55.291  1.00  0.00     0.174 HD
HETATM   28  H12 UNL     1      19.738  -2.185  54.119  1.00  0.00     0.174 HD
ENDBRANCH   7  26
TORSDOF 6
ENDMDL
MODEL 2
REMARK VINA RESULT:      -8.6      2.409      5.555
REMARK  6 active torsions:
REMARK  status: ('A' for Active; 'I' for Inactive)
REMARK    1  A    between atoms: C2_2  and  O1_3 
REMARK    2  A    between atoms: C2_2  and  C3_4 
REMARK    3  A    between atoms: C4_5  and  C5_6 
REMARK    4  A    between atoms: C6_7  and  C7_8 
REMARK    5  A    between atoms: C11_14  and  N3_15 
REMARK    6  A    between atoms: C13_19  and  C14_20 
ROOT
HETATM    1  C7  UNL     1      24.835   1.720  53.185  1.00  0.00     0.089 A 
HETATM    2  N1  UNL     1      26.155   1.887  53.347  1.00  0.00    -0.241 NA
HETATM    3  C8  UNL     1      26.950   0.779  53.352  1.00  0.00     0.130 A 
HETATM    4  C9  UNL     1      28.314   0.887  53.514  1.00  0.00     0.082 A 
HETATM    5  C10 UNL     1      28.947   2.215  53.685  1.00  0.00     0.074 C 
HETATM    6  N2  UNL     1      28.991  -0.277  53.502  1.00  0.00    -0.066 NA
HETATM    7  C11 UNL     1      28.412  -1.483  53.346  1.00  0.00     0.722 A 
HETATM    8  N4  UNL     1      27.078  -1.557  53.190  1.00  0.00    -0.041 NA
HETATM    9  C12 UNL     1      26.328  -0.439  53.190  1.00  0.00     0.200 A 
HETATM   10  N5  UNL     1      25.001  -0.551  53.032  1.00  0.00    -0.222 NA
HETATM   11  C13 UNL     1      24.194   0.514  53.022  1.00  0.00     0.121 A 
ENDROOT
BRANCH   1  12
HETATM   12  C6  UNL     1      24.070   2.959  53.193  1.00  0.00     0.034 C 
HETATM   13  C5  UNL     1      24.048   3.738  52.108  1.00  0.00     0.002 C 
BRANCH  13  14
HETATM   14  C4  UNL     1      23.351   4.998  51.924  1.00  0.00     0.003 C 
HETATM   15  C3  UNL     1      23.742   5.936  51.096  1.00  0.00     0.035 C 
BRANCH  15  16
HETATM   16  C2  UNL     1      24.902   5.891  50.242  1.00  0.00     0.056 C 
HETATM   17  C1  UNL     1      24.979   5.426  48.988  1.00  0.00     0.050 C 
BRANCH  16  18
HETATM   18  O1  UNL     1      26.226   6.224  50.262  1.00  0.00    -0.362 OA
HETATM   19  H3  UNL     1      26.799   6.196  49.437  1.00  0.00     0.217 HD
ENDBRANCH  16  18
ENDBRANCH  15  16
ENDBRANCH  13  14
ENDBRANCH   1  12
BRANCH  11  20
HETATM   20  C14 UNL     1      22.754   0.384  52.850  1.00  0.00     0.100 A 
HETATM   21  C15 UNL     1      22.081  -0.016  53.916  1.00  0.00     0.039 A 
HETATM   22  C16 UNL     1      20.646  -0.226  54.021  1.00  0.00     0.001 A 
HETATM   23  C17 UNL     1      19.931   0.005  52.937  1.00  0.00    -0.000 A 
HETATM   24  C18 UNL     1      20.593   0.455  51.700  1.00  0.00     0.203 A 
HETATM   25  O2  UNL     1      21.974   0.607  51.771  1.00  0.00    -0.345 OA
ENDBRANCH  11  20
BRANCH   7  26
HETATM   26  N3  UNL     1      29.240  -2.638  53.352  1.00  0.00    -0.231 N 
HETATM   27  H11 UNL     1      29.393  -3.110  54.266  1.00  0.00     0.174 HD
HETATM   28  H12 UNL     1      29.779  -3.194  52.658  1.00  0.00     0.174 HD
ENDBRANCH   7  26
TORSDOF 6
ENDMDL
MODEL 3
REMARK VINA RESULT:      -8.4      1.614      5.509
REMARK  6 active torsions:
REMARK  status: ('A' for Active; 'I' for Inactive)
REMARK    1  A    between atoms: C2_2  and  O1_3 
REMARK    2  A    between atoms: C2_2  and  C3_4 
REMARK    3  A    between atoms: C4_5  and  C5_6 
REMARK    4  A    between atoms: C6_7  and  C7_8 
REMARK    5  A    between atoms: C11_14  and  N3_15 
REMARK    6  A    between atoms: C13_19  and  C14_20 
ROOT
HETATM    1  C7  UNL     1      25.618   2.141  51.581  1.00  0.00     0.089 A 
HETATM    2  N1  UNL     1      24.913   1.233  52.272  1.00  0.00    -0.241 NA
HETATM    3  C8  UNL     1      23.586   1.092  51.988  1.00  0.00     0.130 A 
HETATM    4  C9  UNL     1      22.811   0.176  52.664  1.00  0.00     0.082 A 
HETATM    5  C10 UNL     1      23.405  -0.680  53.717  1.00  0.00     0.074 C 
HETATM    6  N2  UNL     1      21.516   0.131  52.294  1.00  0.00    -0.066 NA
HETATM    7  C11 UNL     1      20.980   0.911  51.337  1.00  0.00     0.722 A 
HETATM    8  N4  UNL     1      21.762   1.797  50.694  1.00  0.00    -0.041 NA
HETATM    9  C12 UNL     1      23.068   1.905  51.004  1.00  0.00     0.200 A 
HETATM   10  N5  UNL     1      23.817   2.798  50.342  1.00  0.00    -0.222 NA
HETATM   11  C13 UNL     1      25.119   2.960  50.596  1.00  0.00     0.121 A 
ENDROOT
BRANCH   1  12
HETATM   12  C6  UNL     1      27.023   2.217  51.955  1.00  0.00     0.034 C 
HETATM   13  C5  UNL     1      27.368   2.301  53.244  1.00  0.00     0.002 C 
BRANCH  13  14
HETATM   14  C4  UNL     1      28.702   2.386  53.810  1.00  0.00     0.003 C 
HETATM   15  C3  UNL     1      29.401   1.345  54.190  1.00  0.00     0.035 C 
BRANCH  15  16
HETATM   16  C2  UNL     1      28.987  -0.034  54.122  1.00  0.00     0.056 C 
HETATM   17  C1  UNL     1      29.670  -1.070  53.619  1.00  0.00     0.050 C 
BRANCH  16  18
HETATM   18  O1  UNL     1      27.925  -0.822  54.459  1.00  0.00    -0.362 OA
HETATM   19  H3  UNL     1      26.981  -0.589  54.203  1.00  0.00     0.217 HD
ENDBRANCH  16  18
ENDBRANCH  15  16
ENDBRANCH  13  14
ENDBRANCH   1  12
BRANCH  11  20
HETATM   20  C14 UNL     1      25.926   3.933  49.873  1.00  0.00     0.100 A 
HETATM   21  C15 UNL     1      25.421   5.153  49.791  1.00  0.00     0.039 A 
HETATM   22  C16 UNL     1      26.013   6.306  49.133  1.00  0.00     0.001 A 
HETATM   23  C17 UNL     1      27.183   6.123  48.553  1.00  0.00    -0.000 A 
HETATM   24  C18 UNL     1      27.826   4.797  48.592  1.00  0.00     0.203 A 
HETATM   25  O2  UNL     1      27.123   3.802  49.263  1.00  0.00    -0.345 OA
ENDBRANCH  11  20
BRANCH   7  26
HETATM   26  N3  UNL     1      19.598   0.766  51.041  1.00  0.00    -0.231 N 
HETATM   27  H11 UNL     1      18.952   0.616  51.842  1.00  0.00     0.174 HD
HETATM   28  H12 UNL     1      18.995   0.767  50.193  1.00  0.00     0.174 HD
ENDBRANCH   7  26
TORSDOF 6
ENDMDL
MODEL 4
REMARK VINA RESULT:      -8.4      2.875      5.862
REMARK  6 active torsions:
REMARK  status: ('A' for Active; 'I' for Inactive)
REMARK    1  A    between atoms: C2_2  and  O1_3 
REMARK    2  A    between atoms: C2_2  and  C3_4 
REMARK    3  A    between atoms: C4_5  and  C5_6 
REMARK    4  A    between atoms: C6_7  and  C7_8 
REMARK    5  A    between atoms: C11_14  and  N3_15 
REMARK    6  A    between atoms: C13_19  and  C14_20 
ROOT
HETATM    1  C7  UNL     1      24.696   1.670  53.145  1.00  0.00     0.089 A 
HETATM    2  N1  UNL     1      26.014   1.854  53.305  1.00  0.00    -0.241 NA
HETATM    3  C8  UNL     1      26.824   0.756  53.313  1.00  0.00     0.130 A 
HETATM    4  C9  UNL     1      28.186   0.883  53.473  1.00  0.00     0.082 A 
HETATM    5  C10 UNL     1      28.802   2.219  53.639  1.00  0.00     0.074 C 
HETATM    6  N2  UNL     1      28.877  -0.273  53.464  1.00  0.00    -0.066 NA
HETATM    7  C11 UNL     1      28.314  -1.486  53.313  1.00  0.00     0.722 A 
HETATM    8  N4  UNL     1      26.981  -1.579  53.159  1.00  0.00    -0.041 NA
HETATM    9  C12 UNL     1      26.216  -0.470  53.156  1.00  0.00     0.200 A 
HETATM   10  N5  UNL     1      24.891  -0.600  53.000  1.00  0.00    -0.222 NA
HETATM   11  C13 UNL     1      24.071   0.455  52.986  1.00  0.00     0.121 A 
ENDROOT
BRANCH   1  12
HETATM   12  C6  UNL     1      23.915   2.899  53.150  1.00  0.00     0.034 C 
HETATM   13  C5  UNL     1      24.099   3.811  52.190  1.00  0.00     0.002 C 
BRANCH  13  14
HETATM   14  C4  UNL     1      23.424   5.086  52.025  1.00  0.00     0.003 C 
HETATM   15  C3  UNL     1      22.195   5.211  51.589  1.00  0.00     0.035 C 
BRANCH  15  16
HETATM   16  C2  UNL     1      21.313   4.139  51.201  1.00  0.00     0.056 C 
HETATM   17  C1  UNL     1      20.155   3.784  51.772  1.00  0.00     0.050 C 
BRANCH  16  18
HETATM   18  O1  UNL     1      21.220   3.153  50.262  1.00  0.00    -0.362 OA
HETATM   19  H3  UNL     1      20.337   2.826  49.913  1.00  0.00     0.217 HD
ENDBRANCH  16  18
ENDBRANCH  15  16
ENDBRANCH  13  14
ENDBRANCH   1  12
BRANCH  11  20
HETATM   20  C14 UNL     1      22.632   0.307  52.816  1.00  0.00     0.100 A 
HETATM   21  C15 UNL     1      21.945   0.056  53.919  1.00  0.00     0.039 A 
HETATM   22  C16 UNL     1      20.508  -0.135  54.034  1.00  0.00     0.001 A 
HETATM   23  C17 UNL     1      19.807  -0.051  52.920  1.00  0.00    -0.000 A 
HETATM   24  C18 UNL     1      20.485   0.226  51.641  1.00  0.00     0.203 A 
HETATM   25  O2  UNL     1      21.865   0.383  51.708  1.00  0.00    -0.345 OA
ENDBRANCH  11  20
BRANCH   7  26
HETATM   26  N3  UNL     1      29.156  -2.631  53.322  1.00  0.00    -0.231 N 
HETATM   27  H11 UNL     1      29.820  -2.740  52.529  1.00  0.00     0.174 HD
HETATM   28  H12 UNL     1      29.316  -3.455  53.936  1.00  0.00     0.174 HD
ENDBRANCH   7  26
TORSDOF 6
ENDMDL
MODEL 5
REMARK VINA RESULT:      -8.1      2.295      5.183
REMARK  6 active torsions:
REMARK  status: ('A' for Active; 'I' for Inactive)
REMARK    1  A    between atoms: C2_2  and  O1_3 
REMARK    2  A    between atoms: C2_2  and  C3_4 
REMARK    3  A    between atoms: C4_5  and  C5_6 
REMARK    4  A    between atoms: C6_7  and  C7_8 
REMARK    5  A    between atoms: C11_14  and  N3_15 
REMARK    6  A    between atoms: C13_19  and  C14_20 
ROOT
HETATM    1  C7  UNL     1      25.033   2.202  50.971  1.00  0.00     0.089 A 
HETATM    2  N1  UNL     1      26.078   1.799  51.709  1.00  0.00    -0.241 NA
HETATM    3  C8  UNL     1      25.841   0.969  52.765  1.00  0.00     0.130 A 
HETATM    4  C9  UNL     1      26.874   0.521  53.559  1.00  0.00     0.082 A 
HETATM    5  C10 UNL     1      28.269   0.932  53.279  1.00  0.00     0.074 C 
HETATM    6  N2  UNL     1      26.513  -0.292  54.570  1.00  0.00    -0.066 NA
HETATM    7  C11 UNL     1      25.244  -0.663  54.822  1.00  0.00     0.722 A 
HETATM    8  N4  UNL     1      24.256  -0.209  54.030  1.00  0.00    -0.041 NA
HETATM    9  C12 UNL     1      24.531   0.608  52.996  1.00  0.00     0.200 A 
HETATM   10  N5  UNL     1      23.521   1.041  52.227  1.00  0.00    -0.222 NA
HETATM   11  C13 UNL     1      23.720   1.854  51.185  1.00  0.00     0.121 A 
ENDROOT
BRANCH   1  12
HETATM   12  C6  UNL     1      25.385   3.084  49.868  1.00  0.00     0.034 C 
HETATM   13  C5  UNL     1      26.557   3.727  49.874  1.00  0.00     0.002 C 
BRANCH  13  14
HETATM   14  C4  UNL     1      27.083   4.640  48.875  1.00  0.00     0.003 C 
HETATM   15  C3  UNL     1      26.814   5.922  48.843  1.00  0.00     0.035 C 
BRANCH  15  16
HETATM   16  C2  UNL     1      25.971   6.641  49.764  1.00  0.00     0.056 C 
HETATM   17  C1  UNL     1      24.647   6.828  49.687  1.00  0.00     0.050 C 
BRANCH  16  18
HETATM   18  O1  UNL     1      26.061   7.344  50.931  1.00  0.00    -0.362 OA
HETATM   19  H3  UNL     1      26.213   6.896  51.817  1.00  0.00     0.217 HD
ENDBRANCH  16  18
ENDBRANCH  15  16
ENDBRANCH  13  14
ENDBRANCH   1  12
BRANCH  11  20
HETATM   20  C14 UNL     1      22.618   2.320  50.355  1.00  0.00     0.100 A 
HETATM   21  C15 UNL     1      22.075   1.415  49.558  1.00  0.00     0.039 A 
HETATM   22  C16 UNL     1      20.971   1.608  48.632  1.00  0.00     0.001 A 
HETATM   23  C17 UNL     1      20.448   2.818  48.577  1.00  0.00    -0.000 A 
HETATM   24  C18 UNL     1      20.985   3.893  49.430  1.00  0.00     0.203 A 
HETATM   25  O2  UNL     1      22.044   3.538  50.258  1.00  0.00    -0.345 OA
ENDBRANCH  11  20
BRANCH   7  26
HETATM   26  N3  UNL     1      24.995  -1.526  55.923  1.00  0.00    -0.231 N 
HETATM   27  H11 UNL     1      25.488  -1.316  56.815  1.00  0.00     0.174 HD
HETATM   28  H12 UNL     1      24.422  -2.373  56.115  1.00  0.00     0.174 HD
ENDBRANCH   7  26
TORSDOF 6
ENDMDL
MODEL 6
REMARK VINA RESULT:      -8.1      2.667      5.663
REMARK  6 active torsions:
REMARK  status: ('A' for Active; 'I' for Inactive)
REMARK    1  A    between atoms: C2_2  and  O1_3 
REMARK    2  A    between atoms: C2_2  and  C3_4 
REMARK    3  A    between atoms: C4_5  and  C5_6 
REMARK    4  A    between atoms: C6_7  and  C7_8 
REMARK    5  A    between atoms: C11_14  and  N3_15 
REMARK    6  A    between atoms: C13_19  and  C14_20 
ROOT
HETATM    1  C7  UNL     1      25.215   1.241  52.730  1.00  0.00     0.089 A 
HETATM    2  N1  UNL     1      24.453   2.306  52.441  1.00  0.00    -0.241 NA
HETATM    3  C8  UNL     1      24.910   3.194  51.512  1.00  0.00     0.130 A 
HETATM    4  C9  UNL     1      24.171   4.306  51.173  1.00  0.00     0.082 A 
HETATM    5  C10 UNL     1      22.861   4.562  51.814  1.00  0.00     0.074 C 
HETATM    6  N2  UNL     1      24.728   5.107  50.244  1.00  0.00    -0.066 NA
HETATM    7  C11 UNL     1      25.919   4.872  49.663  1.00  0.00     0.722 A 
HETATM    8  N4  UNL     1      26.618   3.777  50.014  1.00  0.00    -0.041 NA
HETATM    9  C12 UNL     1      26.132   2.924  50.937  1.00  0.00     0.200 A 
HETATM   10  N5  UNL     1      26.855   1.843  51.262  1.00  0.00    -0.222 NA
HETATM   11  C13 UNL     1      26.437   0.954  52.167  1.00  0.00     0.121 A 
ENDROOT
BRANCH   1  12
HETATM   12  C6  UNL     1      24.644   0.352  53.732  1.00  0.00     0.034 C 
HETATM   13  C5  UNL     1      23.434  -0.183  53.540  1.00  0.00     0.002 C 
BRANCH  13  14
HETATM   14  C4  UNL     1      22.704  -1.082  54.415  1.00  0.00     0.003 C 
HETATM   15  C3  UNL     1      21.399  -1.089  54.530  1.00  0.00     0.035 C 
BRANCH  15  16
HETATM   16  C2  UNL     1      20.475  -0.230  53.834  1.00  0.00     0.056 C 
HETATM   17  C1  UNL     1      19.335  -0.577  53.223  1.00  0.00     0.050 C 
BRANCH  16  18
HETATM   18  O1  UNL     1      20.317   1.086  53.509  1.00  0.00    -0.362 OA
HETATM   19  H3  UNL     1      20.737   1.826  54.044  1.00  0.00     0.217 HD
ENDBRANCH  16  18
ENDBRANCH  15  16
ENDBRANCH  13  14
ENDBRANCH   1  12
BRANCH  11  20
HETATM   20  C14 UNL     1      27.227  -0.217  52.515  1.00  0.00     0.100 A 
HETATM   21  C15 UNL     1      28.397   0.025  53.084  1.00  0.00     0.039 A 
HETATM   22  C16 UNL     1      29.378  -0.951  53.529  1.00  0.00     0.001 A 
HETATM   23  C17 UNL     1      29.074  -2.222  53.348  1.00  0.00    -0.000 A 
HETATM   24  C18 UNL     1      27.791  -2.592  52.723  1.00  0.00     0.203 A 
HETATM   25  O2  UNL     1      26.968  -1.533  52.356  1.00  0.00    -0.345 OA
ENDBRANCH  11  20
BRANCH   7  26
HETATM   26  N3  UNL     1      26.397   5.796  48.696  1.00  0.00    -0.231 N 
HETATM   27  H11 UNL     1      27.406   6.045  48.732  1.00  0.00     0.174 HD
HETATM   28  H12 UNL     1      26.004   6.339  47.900  1.00  0.00     0.174 HD
ENDBRANCH   7  26
TORSDOF 6
ENDMDL
MODEL 7
REMARK VINA RESULT:      -7.8      3.033      7.028
REMARK  6 active torsions:
REMARK  status: ('A' for Active; 'I' for Inactive)
REMARK    1  A    between atoms: C2_2  and  O1_3 
REMARK    2  A    between atoms: C2_2  and  C3_4 
REMARK    3  A    between atoms: C4_5  and  C5_6 
REMARK    4  A    between atoms: C6_7  and  C7_8 
REMARK    5  A    between atoms: C11_14  and  N3_15 
REMARK    6  A    between atoms: C13_19  and  C14_20 
ROOT
HETATM    1  C7  UNL     1      22.622   1.087  52.097  1.00  0.00     0.089 A 
HETATM    2  N1  UNL     1      22.878   0.321  53.168  1.00  0.00    -0.241 NA
HETATM    3  C8  UNL     1      24.181   0.067  53.483  1.00  0.00     0.130 A 
HETATM    4  C9  UNL     1      24.506  -0.712  54.572  1.00  0.00     0.082 A 
HETATM    5  C10 UNL     1      23.444  -1.290  55.427  1.00  0.00     0.074 C 
HETATM    6  N2  UNL     1      25.825  -0.891  54.779  1.00  0.00    -0.066 NA
HETATM    7  C11 UNL     1      26.788  -0.365  54.000  1.00  0.00     0.722 A 
HETATM    8  N4  UNL     1      26.440   0.392  52.943  1.00  0.00    -0.041 NA
HETATM    9  C12 UNL     1      25.142   0.620  52.666  1.00  0.00     0.200 A 
HETATM   10  N5  UNL     1      24.832   1.379  51.605  1.00  0.00    -0.222 NA
HETATM   11  C13 UNL     1      23.567   1.648  51.270  1.00  0.00     0.121 A 
ENDROOT
BRANCH   1  12
HETATM   12  C6  UNL     1      21.205   1.302  51.842  1.00  0.00     0.034 C 
HETATM   13  C5  UNL     1      20.449   0.300  51.383  1.00  0.00     0.002 C 
BRANCH  13  14
HETATM   14  C4  UNL     1      19.032   0.318  51.070  1.00  0.00     0.003 C 
HETATM   15  C3  UNL     1      18.116  -0.279  51.793  1.00  0.00     0.035 C 
BRANCH  15  16
HETATM   16  C2  UNL     1      18.341  -1.044  52.993  1.00  0.00     0.056 C 
HETATM   17  C1  UNL     1      17.704  -2.155  53.388  1.00  0.00     0.050 C 
BRANCH  16  18
HETATM   18  O1  UNL     1      19.138  -1.037  54.101  1.00  0.00    -0.362 OA
HETATM   19  H3  UNL     1      19.110  -1.771  54.787  1.00  0.00     0.217 HD
ENDBRANCH  16  18
ENDBRANCH  15  16
ENDBRANCH  13  14
ENDBRANCH   1  12
BRANCH  11  20
HETATM   20  C14 UNL     1      23.238   2.472  50.116  1.00  0.00     0.100 A 
HETATM   21  C15 UNL     1      23.626   3.735  50.181  1.00  0.00     0.039 A 
HETATM   22  C16 UNL     1      23.429   4.768  49.177  1.00  0.00     0.001 A 
HETATM   23  C17 UNL     1      22.794   4.413  48.077  1.00  0.00    -0.000 A 
HETATM   24  C18 UNL     1      22.323   3.026  47.913  1.00  0.00     0.203 A 
HETATM   25  O2  UNL     1      22.594   2.165  48.970  1.00  0.00    -0.345 OA
ENDBRANCH  11  20
BRANCH   7  26
HETATM   26  N3  UNL     1      28.145  -0.630  54.327  1.00  0.00    -0.231 N 
HETATM   27  H11 UNL     1      28.357  -1.541  54.783  1.00  0.00     0.174 HD
HETATM   28  H12 UNL     1      29.061  -0.145  54.237  1.00  0.00     0.174 HD
ENDBRANCH   7  26
TORSDOF 6
ENDMDL
MODEL 8
REMARK VINA RESULT:      -7.7      2.588      5.271
REMARK  6 active torsions:
REMARK  status: ('A' for Active; 'I' for Inactive)
REMARK    1  A    between atoms: C2_2  and  O1_3 
REMARK    2  A    between atoms: C2_2  and  C3_4 
REMARK    3  A    between atoms: C4_5  and  C5_6 
REMARK    4  A    between atoms: C6_7  and  C7_8 
REMARK    5  A    between atoms: C11_14  and  N3_15 
REMARK    6  A    between atoms: C13_19  and  C14_20 
ROOT
HETATM    1  C7  UNL     1      23.920   2.769  50.533  1.00  0.00     0.089 A 
HETATM    2  N1  UNL     1      23.307   1.761  51.172  1.00  0.00    -0.241 NA
HETATM    3  C8  UNL     1      23.977   1.135  52.181  1.00  0.00     0.130 A 
HETATM    4  C9  UNL     1      23.400   0.093  52.875  1.00  0.00     0.082 A 
HETATM    5  C10 UNL     1      22.034  -0.368  52.536  1.00  0.00     0.074 C 
HETATM    6  N2  UNL     1      24.160  -0.444  53.848  1.00  0.00    -0.066 NA
HETATM    7  C11 UNL     1      25.402  -0.022  54.152  1.00  0.00     0.722 A 
HETATM    8  N4  UNL     1      25.940   0.998  53.458  1.00  0.00    -0.041 NA
HETATM    9  C12 UNL     1      25.245   1.590  52.468  1.00  0.00     0.200 A 
HETATM   10  N5  UNL     1      25.813   2.603  51.797  1.00  0.00    -0.222 NA
HETATM   11  C13 UNL     1      25.184   3.238  50.804  1.00  0.00     0.121 A 
ENDROOT
BRANCH   1  12
HETATM   12  C6  UNL     1      23.126   3.374  49.473  1.00  0.00     0.034 C 
HETATM   13  C5  UNL     1      22.815   2.664  48.384  1.00  0.00     0.002 C 
BRANCH  13  14
HETATM   14  C4  UNL     1      22.041   3.088  47.231  1.00  0.00     0.003 C 
HETATM   15  C3  UNL     1      20.731   3.091  47.191  1.00  0.00     0.035 C 
BRANCH  15  16
HETATM   16  C2  UNL     1      19.844   2.686  48.251  1.00  0.00     0.056 C 
HETATM   17  C1  UNL     1      19.010   3.457  48.962  1.00  0.00     0.050 C 
BRANCH  16  18
HETATM   18  O1  UNL     1      19.474   1.560  48.928  1.00  0.00    -0.362 OA
HETATM   19  H3  UNL     1      19.184   0.720  48.458  1.00  0.00     0.217 HD
ENDBRANCH  16  18
ENDBRANCH  15  16
ENDBRANCH  13  14
ENDBRANCH   1  12
BRANCH  11  20
HETATM   20  C14 UNL     1      25.806   4.337  50.080  1.00  0.00     0.100 A 
HETATM   21  C15 UNL     1      26.866   4.021  49.353  1.00  0.00     0.039 A 
HETATM   22  C16 UNL     1      27.671   4.916  48.538  1.00  0.00     0.001 A 
HETATM   23  C17 UNL     1      27.310   6.185  48.516  1.00  0.00    -0.000 A 
HETATM   24  C18 UNL     1      26.142   6.632  49.295  1.00  0.00     0.203 A 
HETATM   25  O2  UNL     1      25.483   5.646  50.021  1.00  0.00    -0.345 OA
ENDBRANCH  11  20
BRANCH   7  26
HETATM   26  N3  UNL     1      26.101  -0.674  55.203  1.00  0.00    -0.231 N 
HETATM   27  H11 UNL     1      26.932  -1.243  54.942  1.00  0.00     0.174 HD
HETATM   28  H12 UNL     1      26.022  -0.756  56.237  1.00  0.00     0.174 HD
ENDBRANCH   7  26
TORSDOF 6
ENDMDL
MODEL 9
REMARK VINA RESULT:      -7.6      2.675      6.314
REMARK  6 active torsions:
REMARK  status: ('A' for Active; 'I' for Inactive)
REMARK    1  A    between atoms: C2_2  and  O1_3 
REMARK    2  A    between atoms: C2_2  and  C3_4 
REMARK    3  A    between atoms: C4_5  and  C5_6 
REMARK    4  A    between atoms: C6_7  and  C7_8 
REMARK    5  A    between atoms: C11_14  and  N3_15 
REMARK    6  A    between atoms: C13_19  and  C14_20 
ROOT
HETATM    1  C7  UNL     1      23.820   1.876  51.915  1.00  0.00     0.089 A 
HETATM    2  N1  UNL     1      24.421   2.889  51.275  1.00  0.00    -0.241 NA
HETATM    3  C8  UNL     1      23.756   4.076  51.177  1.00  0.00     0.130 A 
HETATM    4  C9  UNL     1      24.322   5.154  50.532  1.00  0.00     0.082 A 
HETATM    5  C10 UNL     1      25.671   5.046  49.931  1.00  0.00     0.074 C 
HETATM    6  N2  UNL     1      23.567   6.269  50.501  1.00  0.00    -0.066 NA
HETATM    7  C11 UNL     1      22.341   6.364  51.048  1.00  0.00     0.722 A 
HETATM    8  N4  UNL     1      21.814   5.295  51.672  1.00  0.00    -0.041 NA
HETATM    9  C12 UNL     1      22.503   4.141  51.748  1.00  0.00     0.200 A 
HETATM   10  N5  UNL     1      21.947   3.095  52.377  1.00  0.00    -0.222 NA
HETATM   11  C13 UNL     1      22.572   1.920  52.491  1.00  0.00     0.121 A 
ENDROOT
BRANCH   1  12
HETATM   12  C6  UNL     1      24.608   0.652  51.968  1.00  0.00     0.034 C 
HETATM   13  C5  UNL     1      25.943   0.717  51.987  1.00  0.00     0.002 C 
BRANCH  13  14
HETATM   14  C4  UNL     1      26.891  -0.380  52.038  1.00  0.00     0.003 C 
HETATM   15  C3  UNL     1      27.750  -0.559  53.011  1.00  0.00     0.035 C 
BRANCH  15  16
HETATM   16  C2  UNL     1      27.909   0.277  54.174  1.00  0.00     0.056 C 
HETATM   17  C1  UNL     1      28.988   0.986  54.532  1.00  0.00     0.050 C 
BRANCH  16  18
HETATM   18  O1  UNL     1      27.203   0.690  55.267  1.00  0.00    -0.362 OA
HETATM   19  H3  UNL     1      27.642   0.869  56.153  1.00  0.00     0.217 HD
ENDBRANCH  16  18
ENDBRANCH  15  16
ENDBRANCH  13  14
ENDBRANCH   1  12
BRANCH  11  20
HETATM   20  C14 UNL     1      21.962   0.790  53.176  1.00  0.00     0.100 A 
HETATM   21  C15 UNL     1      20.751   0.451  52.762  1.00  0.00     0.039 A 
HETATM   22  C16 UNL     1      19.920  -0.629  53.267  1.00  0.00     0.001 A 
HETATM   23  C17 UNL     1      20.422  -1.357  54.246  1.00  0.00    -0.000 A 
HETATM   24  C18 UNL     1      21.766  -1.057  54.773  1.00  0.00     0.203 A 
HETATM   25  O2  UNL     1      22.426   0.012  54.176  1.00  0.00    -0.345 OA
ENDBRANCH  11  20
BRANCH   7  26
HETATM   26  N3  UNL     1      21.646   7.599  50.946  1.00  0.00    -0.231 N 
HETATM   27  H11 UNL     1      21.356   8.058  51.833  1.00  0.00     0.174 HD
HETATM   28  H12 UNL     1      21.317   8.229  50.187  1.00  0.00     0.174 HD
ENDBRANCH   7  26
TORSDOF 6
ENDMDL
