MODEL 1
REMARK VINA RESULT:      -8.3      0.000      0.000
REMARK  6 active torsions:
REMARK  status: ('A' for Active; 'I' for Inactive)
REMARK    1  A    between atoms: C2_2  and  C3_3 
REMARK    2  A    between atoms: C3_3  and  C4_4 
REMARK    3  A    between atoms: C5_5  and  C6_6 
REMARK    4  A    between atoms: C7_7  and  N1_8 
REMARK    5  A    between atoms: N1_8  and  C8_9 
REMARK    6  A    between atoms: C10_13  and  C11_14 
ROOT
HETATM    1  C8  UNL     1      24.831   2.309  52.888  1.00  0.00     0.180 A 
HETATM    2  S1  UNL     1      26.186   1.745  53.607  1.00  0.00    -0.002 SA
HETATM    3  N2  UNL     1      27.598   2.822  53.535  1.00  0.00    -0.263 NA
HETATM    4  C9  UNL     1      28.724   2.134  54.183  1.00  0.00     0.108 C 
HETATM    5  C10 UNL     1      28.732   0.688  53.824  1.00  0.00     0.052 C 
HETATM    6  C12 UNL     1      28.461  -0.262  54.969  1.00  0.00     0.186 C 
HETATM    7  O1  UNL     1      27.049  -0.570  55.036  1.00  0.00    -0.328 OA
HETATM    8  C13 UNL     1      26.043   0.117  54.368  1.00  0.00     0.217 A 
HETATM    9  N3  UNL     1      24.871  -0.401  54.243  1.00  0.00    -0.211 NA
HETATM   10  C14 UNL     1      23.805   0.259  53.570  1.00  0.00     0.239 A 
HETATM   11  N4  UNL     1      23.780   1.388  53.001  1.00  0.00    -0.217 NA
HETATM   12  H11 UNL     1      27.458   3.783  53.929  1.00  0.00     0.135 HD
ENDROOT
BRANCH   1  13
HETATM   13  N1  UNL     1      24.856   3.587  52.265  1.00  0.00    -0.334 N 
HETATM   14  H10 UNL     1      25.292   4.380  52.738  1.00  0.00     0.168 HD
BRANCH  13  15
HETATM   15  C7  UNL     1      24.207   3.473  50.997  1.00  0.00     0.041 A 
HETATM   16  C6  UNL     1      24.770   3.368  49.791  1.00  0.00    -0.028 A 
HETATM   17  C18 UNL     1      23.709   3.264  48.766  1.00  0.00     0.074 A 
HETATM   18  C16 UNL     1      22.467   3.357  49.613  1.00  0.00    -0.077 A 
HETATM   19  C15 UNL     1      22.754   3.469  50.903  1.00  0.00     0.033 A 
HETATM   20  C17 UNL     1      21.104   3.317  49.071  1.00  0.00     0.044 C 
BRANCH  16  21
HETATM   21  C5  UNL     1      26.221   3.356  49.589  1.00  0.00     0.006 C 
HETATM   22  C4  UNL     1      26.836   4.451  49.122  1.00  0.00    -0.026 C 
BRANCH  22  23
HETATM   23  C3  UNL     1      26.709   5.821  48.663  1.00  0.00     0.027 C 
BRANCH  23  24
HETATM   24  C2  UNL     1      28.060   6.446  48.314  1.00  0.00    -0.001 C 
HETATM   25  C1  UNL     1      29.038   5.276  48.202  1.00  0.00     0.005 C 
ENDBRANCH  23  24
ENDBRANCH  22  23
ENDBRANCH  16  21
ENDBRANCH  13  15
ENDBRANCH   1  13
BRANCH   5  26
HETATM   26  C11 UNL     1      30.095   0.319  53.284  1.00  0.00     0.230 C 
HETATM   27  F1  UNL     1      30.495  -0.942  53.626  1.00  0.00    -0.255 F 
ENDBRANCH   5  26
TORSDOF 6
ENDMDL
MODEL 2
REMARK VINA RESULT:      -8.1      1.466      1.892
REMARK  6 active torsions:
REMARK  status: ('A' for Active; 'I' for Inactive)
REMARK    1  A    between atoms: C2_2  and  C3_3 
REMARK    2  A    between atoms: C3_3  and  C4_4 
REMARK    3  A    between atoms: C5_5  and  C6_6 
REMARK    4  A    between atoms: C7_7  and  N1_8 
REMARK    5  A    between atoms: N1_8  and  C8_9 
REMARK    6  A    between atoms: C10_13  and  C11_14 
ROOT
HETATM    1  C8  UNL     1      25.283   2.503  51.994  1.00  0.00     0.180 A 
HETATM    2  S1  UNL     1      26.461   1.912  52.961  1.00  0.00    -0.002 SA
HETATM    3  N2  UNL     1      28.033   2.734  52.845  1.00  0.00    -0.263 NA
HETATM    4  C9  UNL     1      28.972   2.041  53.739  1.00  0.00     0.108 C 
HETATM    5  C10 UNL     1      28.769   0.566  53.671  1.00  0.00     0.052 C 
HETATM    6  C12 UNL     1      28.250  -0.073  54.940  1.00  0.00     0.186 C 
HETATM    7  O1  UNL     1      26.807  -0.152  54.901  1.00  0.00    -0.328 OA
HETATM    8  C13 UNL     1      25.987   0.518  54.001  1.00  0.00     0.217 A 
HETATM    9  N3  UNL     1      24.761   0.162  53.845  1.00  0.00    -0.211 NA
HETATM   10  C14 UNL     1      23.879   0.813  52.938  1.00  0.00     0.239 A 
HETATM   11  N4  UNL     1      24.088   1.789  52.162  1.00  0.00    -0.217 NA
HETATM   12  H11 UNL     1      28.021   3.766  53.026  1.00  0.00     0.135 HD
ENDROOT
BRANCH   1  13
HETATM   13  N1  UNL     1      25.572   3.605  51.142  1.00  0.00    -0.334 N 
HETATM   14  H10 UNL     1      26.480   4.067  51.191  1.00  0.00     0.168 HD
BRANCH  13  15
HETATM   15  C7  UNL     1      24.422   3.846  50.329  1.00  0.00     0.041 A 
HETATM   16  C6  UNL     1      23.531   4.835  50.436  1.00  0.00    -0.028 A 
HETATM   17  C18 UNL     1      22.514   4.691  49.372  1.00  0.00     0.074 A 
HETATM   18  C16 UNL     1      22.983   3.439  48.679  1.00  0.00    -0.077 A 
HETATM   19  C15 UNL     1      24.090   2.955  49.226  1.00  0.00     0.033 A 
HETATM   20  C17 UNL     1      22.299   2.837  47.530  1.00  0.00     0.044 C 
BRANCH  16  21
HETATM   21  C5  UNL     1      23.615   5.873  51.466  1.00  0.00     0.006 C 
HETATM   22  C4  UNL     1      24.121   7.075  51.160  1.00  0.00    -0.026 C 
BRANCH  22  23
HETATM   23  C3  UNL     1      24.703   7.933  50.144  1.00  0.00     0.027 C 
BRANCH  23  24
HETATM   24  C2  UNL     1      26.198   7.676  49.952  1.00  0.00    -0.001 C 
HETATM   25  C1  UNL     1      26.298   6.659  48.814  1.00  0.00     0.005 C 
ENDBRANCH  23  24
ENDBRANCH  22  23
ENDBRANCH  16  21
ENDBRANCH  13  15
ENDBRANCH   1  13
BRANCH   5  26
HETATM   26  C11 UNL     1      30.093  -0.102  53.374  1.00  0.00     0.230 C 
HETATM   27  F1  UNL     1      30.294  -1.255  54.080  1.00  0.00    -0.255 F 
ENDBRANCH   5  26
TORSDOF 6
ENDMDL
MODEL 3
REMARK VINA RESULT:      -7.7      2.056      3.613
REMARK  6 active torsions:
REMARK  status: ('A' for Active; 'I' for Inactive)
REMARK    1  A    between atoms: C2_2  and  C3_3 
REMARK    2  A    between atoms: C3_3  and  C4_4 
REMARK    3  A    between atoms: C5_5  and  C6_6 
REMARK    4  A    between atoms: C7_7  and  N1_8 
REMARK    5  A    between atoms: N1_8  and  C8_9 
REMARK    6  A    between atoms: C10_13  and  C11_14 
ROOT
HETATM    1  C8  UNL     1      25.047   2.203  51.501  1.00  0.00     0.180 A 
HETATM    2  S1  UNL     1      26.203   1.815  52.591  1.00  0.00    -0.002 SA
HETATM    3  N2  UNL     1      27.749   2.672  52.407  1.00  0.00    -0.263 NA
HETATM    4  C9  UNL     1      28.672   2.162  53.431  1.00  0.00     0.108 C 
HETATM    5  C10 UNL     1      28.523   0.688  53.584  1.00  0.00     0.052 C 
HETATM    6  C12 UNL     1      27.972   0.230  54.917  1.00  0.00     0.186 C 
HETATM    7  O1  UNL     1      26.536   0.088  54.838  1.00  0.00    -0.328 OA
HETATM    8  C13 UNL     1      25.732   0.579  53.815  1.00  0.00     0.217 A 
HETATM    9  N3  UNL     1      24.527   0.154  53.671  1.00  0.00    -0.211 NA
HETATM   10  C14 UNL     1      23.662   0.623  52.643  1.00  0.00     0.239 A 
HETATM   11  N4  UNL     1      23.871   1.476  51.733  1.00  0.00    -0.217 NA
HETATM   12  H11 UNL     1      27.694   3.718  52.426  1.00  0.00     0.135 HD
ENDROOT
BRANCH   1  13
HETATM   13  N1  UNL     1      25.334   3.173  50.501  1.00  0.00    -0.334 N 
HETATM   14  H10 UNL     1      26.264   3.219  50.082  1.00  0.00     0.168 HD
BRANCH  13  15
HETATM   15  C7  UNL     1      24.149   3.940  50.279  1.00  0.00     0.041 A 
HETATM   16  C6  UNL     1      23.200   3.742  49.361  1.00  0.00    -0.028 A 
HETATM   17  C18 UNL     1      22.156   4.779  49.508  1.00  0.00     0.074 A 
HETATM   18  C16 UNL     1      22.708   5.597  50.646  1.00  0.00    -0.077 A 
HETATM   19  C15 UNL     1      23.856   5.108  51.097  1.00  0.00     0.033 A 
HETATM   20  C17 UNL     1      22.046   6.787  51.193  1.00  0.00     0.044 C 
BRANCH  16  21
HETATM   21  C5  UNL     1      23.245   2.641  48.395  1.00  0.00     0.006 C 
HETATM   22  C4  UNL     1      22.195   1.818  48.276  1.00  0.00    -0.026 C 
BRANCH  22  23
HETATM   23  C3  UNL     1      20.860   1.467  48.725  1.00  0.00     0.027 C 
BRANCH  23  24
HETATM   24  C2  UNL     1      20.859   0.851  50.123  1.00  0.00    -0.001 C 
HETATM   25  C1  UNL     1      20.276   1.922  51.045  1.00  0.00     0.005 C 
ENDBRANCH  23  24
ENDBRANCH  22  23
ENDBRANCH  16  21
ENDBRANCH  13  15
ENDBRANCH   1  13
BRANCH   5  26
HETATM   26  C11 UNL     1      29.880   0.036  53.444  1.00  0.00     0.230 C 
HETATM   27  F1  UNL     1      29.993  -1.143  54.124  1.00  0.00    -0.255 F 
ENDBRANCH   5  26
TORSDOF 6
ENDMDL
MODEL 4
REMARK VINA RESULT:      -7.6      3.686      6.626
REMARK  6 active torsions:
REMARK  status: ('A' for Active; 'I' for Inactive)
REMARK    1  A    between atoms: C2_2  and  C3_3 
REMARK    2  A    between atoms: C3_3  and  C4_4 
REMARK    3  A    between atoms: C5_5  and  C6_6 
REMARK    4  A    between atoms: C7_7  and  N1_8 
REMARK    5  A    between atoms: N1_8  and  C8_9 
REMARK    6  A    between atoms: C10_13  and  C11_14 
ROOT
HETATM    1  C8  UNL     1      23.615   4.463  52.214  1.00  0.00     0.180 A 
HETATM    2  S1  UNL     1      24.157   4.948  50.750  1.00  0.00    -0.002 SA
HETATM    3  N2  UNL     1      25.880   4.649  50.433  1.00  0.00    -0.263 NA
HETATM    4  C9  UNL     1      26.195   5.191  49.103  1.00  0.00     0.108 C 
HETATM    5  C10 UNL     1      25.497   6.490  48.887  1.00  0.00     0.052 C 
HETATM    6  C12 UNL     1      24.433   6.480  47.812  1.00  0.00     0.186 C 
HETATM    7  O1  UNL     1      23.140   6.199  48.395  1.00  0.00    -0.328 OA
HETATM    8  C13 UNL     1      22.924   5.709  49.678  1.00  0.00     0.217 A 
HETATM    9  N3  UNL     1      21.756   5.775  50.214  1.00  0.00    -0.211 NA
HETATM   10  C14 UNL     1      21.480   5.289  51.522  1.00  0.00     0.239 A 
HETATM   11  N4  UNL     1      22.249   4.742  52.363  1.00  0.00    -0.217 NA
HETATM   12  H11 UNL     1      26.194   3.654  50.525  1.00  0.00     0.135 HD
ENDROOT
BRANCH   1  13
HETATM   13  N1  UNL     1      24.522   3.850  53.122  1.00  0.00    -0.334 N 
HETATM   14  H10 UNL     1      25.082   4.423  53.754  1.00  0.00     0.168 HD
BRANCH  13  15
HETATM   15  C7  UNL     1      24.444   2.436  52.935  1.00  0.00     0.041 A 
HETATM   16  C6  UNL     1      25.436   1.587  52.652  1.00  0.00    -0.028 A 
HETATM   17  C18 UNL     1      24.891   0.215  52.557  1.00  0.00     0.074 A 
HETATM   18  C16 UNL     1      23.426   0.460  52.809  1.00  0.00    -0.077 A 
HETATM   19  C15 UNL     1      23.168   1.741  53.036  1.00  0.00     0.033 A 
HETATM   20  C17 UNL     1      22.411  -0.600  52.813  1.00  0.00     0.044 C 
BRANCH  16  21
HETATM   21  C5  UNL     1      26.826   2.016  52.484  1.00  0.00     0.006 C 
HETATM   22  C4  UNL     1      27.794   1.435  53.207  1.00  0.00    -0.026 C 
BRANCH  22  23
HETATM   23  C3  UNL     1      28.142   0.448  54.213  1.00  0.00     0.027 C 
BRANCH  23  24
HETATM   24  C2  UNL     1      28.597  -0.875  53.597  1.00  0.00    -0.001 C 
HETATM   25  C1  UNL     1      30.126  -0.842  53.635  1.00  0.00     0.005 C 
ENDBRANCH  23  24
ENDBRANCH  22  23
ENDBRANCH  16  21
ENDBRANCH  13  15
ENDBRANCH   1  13
BRANCH   5  26
HETATM   26  C11 UNL     1      26.509   7.532  48.468  1.00  0.00     0.230 C 
HETATM   27  F1  UNL     1      27.417   7.076  47.555  1.00  0.00    -0.255 F 
ENDBRANCH   5  26
TORSDOF 6
ENDMDL
MODEL 5
REMARK VINA RESULT:      -7.5      4.227      7.041
REMARK  6 active torsions:
REMARK  status: ('A' for Active; 'I' for Inactive)
REMARK    1  A    between atoms: C2_2  and  C3_3 
REMARK    2  A    between atoms: C3_3  and  C4_4 
REMARK    3  A    between atoms: C5_5  and  C6_6 
REMARK    4  A    between atoms: C7_7  and  N1_8 
REMARK    5  A    between atoms: N1_8  and  C8_9 
REMARK    6  A    between atoms: C10_13  and  C11_14 
ROOT
HETATM    1  C8  UNL     1      25.512   5.603  49.826  1.00  0.00     0.180 A 
HETATM    2  S1  UNL     1      26.770   6.015  48.867  1.00  0.00    -0.002 SA
HETATM    3  N2  UNL     1      28.216   4.992  49.018  1.00  0.00    -0.263 NA
HETATM    4  C9  UNL     1      29.250   5.539  48.127  1.00  0.00     0.108 C 
HETATM    5  C10 UNL     1      29.246   7.028  48.171  1.00  0.00     0.052 C 
HETATM    6  C12 UNL     1      28.833   7.711  46.886  1.00  0.00     0.186 C 
HETATM    7  O1  UNL     1      27.413   7.983  46.903  1.00  0.00    -0.328 OA
HETATM    8  C13 UNL     1      26.500   7.443  47.801  1.00  0.00     0.217 A 
HETATM    9  N3  UNL     1      25.330   7.963  47.935  1.00  0.00    -0.211 NA
HETATM   10  C14 UNL     1      24.358   7.450  48.838  1.00  0.00     0.239 A 
HETATM   11  N4  UNL     1      24.426   6.467  49.631  1.00  0.00    -0.217 NA
HETATM   12  H11 UNL     1      28.069   3.968  48.851  1.00  0.00     0.135 HD
ENDROOT
BRANCH   1  13
HETATM   13  N1  UNL     1      25.640   4.486  50.698  1.00  0.00    -0.334 N 
HETATM   14  H10 UNL     1      26.404   4.448  51.374  1.00  0.00     0.168 HD
BRANCH  13  15
HETATM   15  C7  UNL     1      24.574   3.579  50.411  1.00  0.00     0.041 A 
HETATM   16  C6  UNL     1      23.920   2.783  51.261  1.00  0.00    -0.028 A 
HETATM   17  C18 UNL     1      22.887   2.025  50.522  1.00  0.00     0.074 A 
HETATM   18  C16 UNL     1      23.103   2.522  49.116  1.00  0.00    -0.077 A 
HETATM   19  C15 UNL     1      24.072   3.426  49.053  1.00  0.00     0.033 A 
HETATM   20  C17 UNL     1      22.324   2.064  47.960  1.00  0.00     0.044 C 
BRANCH  16  21
HETATM   21  C5  UNL     1      24.226   2.725  52.693  1.00  0.00     0.006 C 
HETATM   22  C4  UNL     1      24.667   1.581  53.233  1.00  0.00    -0.026 C 
BRANCH  22  23
HETATM   23  C3  UNL     1      25.025   0.190  53.025  1.00  0.00     0.027 C 
BRANCH  23  24
HETATM   24  C2  UNL     1      26.304   0.036  52.202  1.00  0.00    -0.001 C 
HETATM   25  C1  UNL     1      26.876  -1.331  52.581  1.00  0.00     0.005 C 
ENDBRANCH  23  24
ENDBRANCH  22  23
ENDBRANCH  16  21
ENDBRANCH  13  15
ENDBRANCH   1  13
BRANCH   5  26
HETATM   26  C11 UNL     1      30.644   7.518  48.476  1.00  0.00     0.230 C 
HETATM   27  F1  UNL     1      30.715   8.865  48.695  1.00  0.00    -0.255 F 
ENDBRANCH   5  26
TORSDOF 6
ENDMDL
MODEL 6
REMARK VINA RESULT:      -7.4      2.578      3.207
REMARK  6 active torsions:
REMARK  status: ('A' for Active; 'I' for Inactive)
REMARK    1  A    between atoms: C2_2  and  C3_3 
REMARK    2  A    between atoms: C3_3  and  C4_4 
REMARK    3  A    between atoms: C5_5  and  C6_6 
REMARK    4  A    between atoms: C7_7  and  N1_8 
REMARK    5  A    between atoms: N1_8  and  C8_9 
REMARK    6  A    between atoms: C10_13  and  C11_14 
ROOT
HETATM    1  C8  UNL     1      23.430   4.195  52.227  1.00  0.00     0.180 A 
HETATM    2  S1  UNL     1      24.098   2.800  52.756  1.00  0.00    -0.002 SA
HETATM    3  N2  UNL     1      25.842   2.862  53.089  1.00  0.00    -0.263 NA
HETATM    4  C9  UNL     1      26.271   1.518  53.503  1.00  0.00     0.108 C 
HETATM    5  C10 UNL     1      25.593   0.476  52.682  1.00  0.00     0.052 C 
HETATM    6  C12 UNL     1      24.627  -0.412  53.435  1.00  0.00     0.186 C 
HETATM    7  O1  UNL     1      23.289   0.129  53.353  1.00  0.00    -0.328 OA
HETATM    8  C13 UNL     1      22.962   1.410  52.924  1.00  0.00     0.217 A 
HETATM    9  N3  UNL     1      21.752   1.701  52.599  1.00  0.00    -0.211 NA
HETATM   10  C14 UNL     1      21.363   2.995  52.155  1.00  0.00     0.239 A 
HETATM   11  N4  UNL     1      22.056   4.040  51.995  1.00  0.00    -0.217 NA
HETATM   12  H11 UNL     1      26.148   3.591  53.778  1.00  0.00     0.135 HD
ENDROOT
BRANCH   1  13
HETATM   13  N1  UNL     1      24.255   5.343  52.068  1.00  0.00    -0.334 N 
HETATM   14  H10 UNL     1      24.928   5.596  52.793  1.00  0.00     0.168 HD
BRANCH  13  15
HETATM   15  C7  UNL     1      23.933   5.947  50.814  1.00  0.00     0.041 A 
HETATM   16  C6  UNL     1      24.252   5.520  49.589  1.00  0.00    -0.028 A 
HETATM   17  C18 UNL     1      23.700   6.458  48.588  1.00  0.00     0.074 A 
HETATM   18  C16 UNL     1      23.046   7.487  49.473  1.00  0.00    -0.077 A 
HETATM   19  C15 UNL     1      23.173   7.188  50.758  1.00  0.00     0.033 A 
HETATM   20  C17 UNL     1      22.344   8.672  48.966  1.00  0.00     0.044 C 
BRANCH  16  21
HETATM   21  C5  UNL     1      25.024   4.299  49.348  1.00  0.00     0.006 C 
HETATM   22  C4  UNL     1      26.341   4.380  49.114  1.00  0.00    -0.026 C 
BRANCH  22  23
HETATM   23  C3  UNL     1      27.506   5.234  48.968  1.00  0.00     0.027 C 
BRANCH  23  24
HETATM   24  C2  UNL     1      27.224   6.460  48.100  1.00  0.00    -0.001 C 
HETATM   25  C1  UNL     1      27.233   7.653  49.057  1.00  0.00     0.005 C 
ENDBRANCH  23  24
ENDBRANCH  22  23
ENDBRANCH  16  21
ENDBRANCH  13  15
ENDBRANCH   1  13
BRANCH   5  26
HETATM   26  C11 UNL     1      26.636  -0.445  52.090  1.00  0.00     0.230 C 
HETATM   27  F1  UNL     1      26.497  -1.748  52.475  1.00  0.00    -0.255 F 
ENDBRANCH   5  26
TORSDOF 6
ENDMDL
MODEL 7
REMARK VINA RESULT:      -7.4      2.645      3.911
REMARK  6 active torsions:
REMARK  status: ('A' for Active; 'I' for Inactive)
REMARK    1  A    between atoms: C2_2  and  C3_3 
REMARK    2  A    between atoms: C3_3  and  C4_4 
REMARK    3  A    between atoms: C5_5  and  C6_6 
REMARK    4  A    between atoms: C7_7  and  N1_8 
REMARK    5  A    between atoms: N1_8  and  C8_9 
REMARK    6  A    between atoms: C10_13  and  C11_14 
ROOT
HETATM    1  C8  UNL     1      23.336   4.153  52.330  1.00  0.00     0.180 A 
HETATM    2  S1  UNL     1      24.060   2.779  52.840  1.00  0.00    -0.002 SA
HETATM    3  N2  UNL     1      25.804   2.904  53.161  1.00  0.00    -0.263 NA
HETATM    4  C9  UNL     1      26.287   1.573  53.558  1.00  0.00     0.108 C 
HETATM    5  C10 UNL     1      25.642   0.514  52.732  1.00  0.00     0.052 C 
HETATM    6  C12 UNL     1      24.716  -0.416  53.484  1.00  0.00     0.186 C 
HETATM    7  O1  UNL     1      23.358   0.074  53.418  1.00  0.00    -0.328 OA
HETATM    8  C13 UNL     1      22.979   1.346  53.004  1.00  0.00     0.217 A 
HETATM    9  N3  UNL     1      21.756   1.593  52.691  1.00  0.00    -0.211 NA
HETATM   10  C14 UNL     1      21.315   2.876  52.262  1.00  0.00     0.239 A 
HETATM   11  N4  UNL     1      21.967   3.948  52.107  1.00  0.00    -0.217 NA
HETATM   12  H11 UNL     1      26.088   3.637  53.854  1.00  0.00     0.135 HD
ENDROOT
BRANCH   1  13
HETATM   13  N1  UNL     1      24.116   5.332  52.175  1.00  0.00    -0.334 N 
HETATM   14  H10 UNL     1      24.790   5.599  52.894  1.00  0.00     0.168 HD
BRANCH  13  15
HETATM   15  C7  UNL     1      23.752   5.942  50.935  1.00  0.00     0.041 A 
HETATM   16  C6  UNL     1      24.031   5.521  49.699  1.00  0.00    -0.028 A 
HETATM   17  C18 UNL     1      23.445   6.464  48.721  1.00  0.00     0.074 A 
HETATM   18  C16 UNL     1      22.820   7.488  49.632  1.00  0.00    -0.077 A 
HETATM   19  C15 UNL     1      22.990   7.182  50.911  1.00  0.00     0.033 A 
HETATM   20  C17 UNL     1      22.101   8.674  49.155  1.00  0.00     0.044 C 
BRANCH  16  21
HETATM   21  C5  UNL     1      24.796   4.303  49.427  1.00  0.00     0.006 C 
HETATM   22  C4  UNL     1      24.152   3.165  49.131  1.00  0.00    -0.026 C 
BRANCH  22  23
HETATM   23  C3  UNL     1      22.878   2.498  48.934  1.00  0.00     0.027 C 
BRANCH  23  24
HETATM   24  C2  UNL     1      22.540   2.315  47.455  1.00  0.00    -0.001 C 
HETATM   25  C1  UNL     1      21.701   3.535  47.070  1.00  0.00     0.005 C 
ENDBRANCH  23  24
ENDBRANCH  22  23
ENDBRANCH  16  21
ENDBRANCH  13  15
ENDBRANCH   1  13
BRANCH   5  26
HETATM   26  C11 UNL     1      26.714  -0.361  52.124  1.00  0.00     0.230 C 
HETATM   27  F1  UNL     1      26.443  -1.697  52.209  1.00  0.00    -0.255 F 
ENDBRANCH   5  26
TORSDOF 6
ENDMDL
MODEL 8
REMARK VINA RESULT:      -7.3      4.259      8.110
REMARK  6 active torsions:
REMARK  status: ('A' for Active; 'I' for Inactive)
REMARK    1  A    between atoms: C2_2  and  C3_3 
REMARK    2  A    between atoms: C3_3  and  C4_4 
REMARK    3  A    between atoms: C5_5  and  C6_6 
REMARK    4  A    between atoms: C7_7  and  N1_8 
REMARK    5  A    between atoms: N1_8  and  C8_9 
REMARK    6  A    between atoms: C10_13  and  C11_14 
ROOT
HETATM    1  C8  UNL     1      24.516   4.053  51.594  1.00  0.00     0.180 A 
HETATM    2  S1  UNL     1      23.692   5.262  50.864  1.00  0.00    -0.002 SA
HETATM    3  N2  UNL     1      22.294   5.890  51.763  1.00  0.00    -0.263 NA
HETATM    4  C9  UNL     1      21.655   6.925  50.938  1.00  0.00     0.108 C 
HETATM    5  C10 UNL     1      21.639   6.518  49.505  1.00  0.00     0.052 C 
HETATM    6  C12 UNL     1      22.491   7.363  48.584  1.00  0.00     0.186 C 
HETATM    7  O1  UNL     1      23.806   6.778  48.449  1.00  0.00    -0.328 OA
HETATM    8  C13 UNL     1      24.330   5.777  49.259  1.00  0.00     0.217 A 
HETATM    9  N3  UNL     1      25.369   5.115  48.888  1.00  0.00    -0.211 NA
HETATM   10  C14 UNL     1      25.946   4.082  49.678  1.00  0.00     0.239 A 
HETATM   11  N4  UNL     1      25.596   3.632  50.807  1.00  0.00    -0.217 NA
HETATM   12  H11 UNL     1      22.494   6.240  52.730  1.00  0.00     0.135 HD
ENDROOT
BRANCH   1  13
HETATM   13  N1  UNL     1      24.081   3.586  52.866  1.00  0.00    -0.334 N 
HETATM   14  H10 UNL     1      23.445   4.151  53.430  1.00  0.00     0.168 HD
BRANCH  13  15
HETATM   15  C7  UNL     1      24.685   2.312  53.097  1.00  0.00     0.041 A 
HETATM   16  C6  UNL     1      24.217   1.107  52.762  1.00  0.00    -0.028 A 
HETATM   17  C18 UNL     1      25.182   0.073  53.193  1.00  0.00     0.074 A 
HETATM   18  C16 UNL     1      26.248   0.914  53.846  1.00  0.00    -0.077 A 
HETATM   19  C15 UNL     1      25.965   2.209  53.783  1.00  0.00     0.033 A 
HETATM   20  C17 UNL     1      27.457   0.362  54.466  1.00  0.00     0.044 C 
BRANCH  16  21
HETATM   21  C5  UNL     1      22.941   0.914  52.069  1.00  0.00     0.006 C 
HETATM   22  C4  UNL     1      21.841   0.611  52.772  1.00  0.00    -0.026 C 
BRANCH  22  23
HETATM   23  C3  UNL     1      21.257   0.350  54.075  1.00  0.00     0.027 C 
BRANCH  23  24
HETATM   24  C2  UNL     1      21.291  -1.133  54.442  1.00  0.00    -0.001 C 
HETATM   25  C1  UNL     1      22.604  -1.340  55.200  1.00  0.00     0.005 C 
ENDBRANCH  23  24
ENDBRANCH  22  23
ENDBRANCH  16  21
ENDBRANCH  13  15
ENDBRANCH   1  13
BRANCH   5  26
HETATM   26  C11 UNL     1      20.225   6.616  48.978  1.00  0.00     0.230 C 
HETATM   27  F1  UNL     1      19.279   6.191  49.868  1.00  0.00    -0.255 F 
ENDBRANCH   5  26
TORSDOF 6
ENDMDL
MODEL 9
REMARK VINA RESULT:      -7.3      3.895      7.942
REMARK  6 active torsions:
REMARK  status: ('A' for Active; 'I' for Inactive)
REMARK    1  A    between atoms: C2_2  and  C3_3 
REMARK    2  A    between atoms: C3_3  and  C4_4 
REMARK    3  A    between atoms: C5_5  and  C6_6 
REMARK    4  A    between atoms: C7_7  and  N1_8 
REMARK    5  A    between atoms: N1_8  and  C8_9 
REMARK    6  A    between atoms: C10_13  and  C11_14 
ROOT
HETATM    1  C8  UNL     1      24.169   3.877  51.691  1.00  0.00     0.180 A 
HETATM    2  S1  UNL     1      22.757   4.196  50.931  1.00  0.00    -0.002 SA
HETATM    3  N2  UNL     1      21.294   4.018  51.925  1.00  0.00    -0.263 NA
HETATM    4  C9  UNL     1      20.131   4.293  51.068  1.00  0.00     0.108 C 
HETATM    5  C10 UNL     1      20.325   3.701  49.715  1.00  0.00     0.052 C 
HETATM    6  C12 UNL     1      20.455   4.699  48.586  1.00  0.00     0.186 C 
HETATM    7  O1  UNL     1      21.849   5.002  48.349  1.00  0.00    -0.328 OA
HETATM    8  C13 UNL     1      22.899   4.682  49.202  1.00  0.00     0.217 A 
HETATM    9  N3  UNL     1      24.114   4.716  48.781  1.00  0.00    -0.211 NA
HETATM   10  C14 UNL     1      25.226   4.399  49.611  1.00  0.00     0.239 A 
HETATM   11  N4  UNL     1      25.258   4.047  50.825  1.00  0.00    -0.217 NA
HETATM   12  H11 UNL     1      21.268   4.589  52.803  1.00  0.00     0.135 HD
ENDROOT
BRANCH   1  13
HETATM   13  N1  UNL     1      24.149   3.488  53.060  1.00  0.00    -0.334 N 
HETATM   14  H10 UNL     1      23.719   4.095  53.759  1.00  0.00     0.168 HD
BRANCH  13  15
HETATM   15  C7  UNL     1      24.792   2.217  53.166  1.00  0.00     0.041 A 
HETATM   16  C6  UNL     1      24.330   1.026  52.779  1.00  0.00    -0.028 A 
HETATM   17  C18 UNL     1      25.342  -0.010  53.078  1.00  0.00     0.074 A 
HETATM   18  C16 UNL     1      26.429   0.813  53.720  1.00  0.00    -0.077 A 
HETATM   19  C15 UNL     1      26.115   2.100  53.764  1.00  0.00     0.033 A 
HETATM   20  C17 UNL     1      27.686   0.251  54.226  1.00  0.00     0.044 C 
BRANCH  16  21
HETATM   21  C5  UNL     1      23.017   0.847  52.154  1.00  0.00     0.006 C 
HETATM   22  C4  UNL     1      21.961   0.515  52.909  1.00  0.00    -0.026 C 
BRANCH  22  23
HETATM   23  C3  UNL     1      21.454   0.210  54.234  1.00  0.00     0.027 C 
BRANCH  23  24
HETATM   24  C2  UNL     1      21.591  -1.272  54.583  1.00  0.00    -0.001 C 
HETATM   25  C1  UNL     1      22.906  -1.393  55.354  1.00  0.00     0.005 C 
ENDBRANCH  23  24
ENDBRANCH  22  23
ENDBRANCH  16  21
ENDBRANCH  13  15
ENDBRANCH   1  13
BRANCH   5  26
HETATM   26  C11 UNL     1      19.130   2.837  49.377  1.00  0.00     0.230 C 
HETATM   27  F1  UNL     1      19.429   1.508  49.272  1.00  0.00    -0.255 F 
ENDBRANCH   5  26
TORSDOF 6
ENDMDL
