MODEL 1
REMARK VINA RESULT:      -8.8      0.000      0.000
REMARK  5 active torsions:
REMARK  status: ('A' for Active; 'I' for Inactive)
REMARK    1  A    between atoms: C2_2  and  N1_3 
REMARK    2  A    between atoms: N1_3  and  C4_5 
REMARK    3  A    between atoms: C7_8  and  C8_9 
REMARK    4  A    between atoms: C10_11  and  C11_12 
REMARK    5  A    between atoms: N3_23  and  C19_24 
ROOT
HETATM    1  C8  UNL     1      24.102   2.748  52.164  1.00  0.00     0.149 C 
HETATM    2  C9  UNL     1      24.353   3.367  50.789  1.00  0.00     0.094 C 
HETATM    3  C10 UNL     1      23.088   3.140  50.066  1.00  0.00     0.067 C 
HETATM    4  N2  UNL     1      22.300   2.367  50.735  1.00  0.00    -0.175 NA
HETATM    5  N3  UNL     1      22.912   1.987  51.953  1.00  0.00    -0.260 N 
ENDROOT
BRANCH   1   6
HETATM    6  C7  UNL     1      25.278   1.966  52.572  1.00  0.00    -0.033 A 
HETATM    7  C6  UNL     1      25.893   1.220  51.600  1.00  0.00     0.011 A 
HETATM    8  C5  UNL     1      26.997   0.466  51.899  1.00  0.00     0.030 A 
HETATM    9  C4  UNL     1      27.561   0.394  53.157  1.00  0.00     0.029 A 
HETATM   10  C26 UNL     1      26.888   1.168  54.077  1.00  0.00     0.030 A 
HETATM   11  C25 UNL     1      25.776   1.950  53.849  1.00  0.00     0.011 A 
BRANCH   9  12
HETATM   12  N1  UNL     1      28.706  -0.382  53.483  1.00  0.00    -0.386 N 
HETATM   13  C3  UNL     1      29.715   0.429  54.191  1.00  0.00     0.149 C 
BRANCH  12  14
HETATM   14  C2  UNL     1      29.190  -1.694  53.350  1.00  0.00     0.118 C 
HETATM   15  C1  UNL     1      28.265  -2.772  52.910  1.00  0.00     0.026 C 
ENDBRANCH  12  14
ENDBRANCH   9  12
ENDBRANCH   1   6
BRANCH   5  16
HETATM   16  C19 UNL     1      22.299   0.974  52.738  1.00  0.00     0.053 A 
HETATM   17  C20 UNL     1      21.052   1.141  53.300  1.00  0.00     0.031 A 
HETATM   18  C21 UNL     1      20.446   0.143  54.073  1.00  0.00     0.002 A 
HETATM   19  C22 UNL     1      21.088  -1.057  54.300  1.00  0.00     0.000 A 
HETATM   20  C23 UNL     1      22.343  -1.251  53.746  1.00  0.00     0.002 A 
HETATM   21  C24 UNL     1      22.885  -0.244  53.001  1.00  0.00     0.031 A 
ENDBRANCH   5  16
BRANCH   3  22
HETATM   22  C11 UNL     1      22.755   3.706  48.765  1.00  0.00    -0.007 A 
HETATM   23  C12 UNL     1      22.196   2.935  47.766  1.00  0.00     0.016 A 
HETATM   24  C13 UNL     1      21.840   3.343  46.512  1.00  0.00     0.040 A 
HETATM   25  C14 UNL     1      22.075   4.677  46.237  1.00  0.00     0.102 A 
HETATM   26  C15 UNL     1      22.638   5.529  47.190  1.00  0.00     0.103 A 
HETATM   27  O2  UNL     1      21.734   5.156  44.975  1.00  0.00    -0.346 OA
HETATM   28  C16 UNL     1      22.974   5.031  48.454  1.00  0.00     0.053 A 
HETATM   29  O1  UNL     1      22.838   6.853  46.828  1.00  0.00    -0.346 OA
HETATM   30  C17 UNL     1      22.104   7.427  45.741  1.00  0.00     0.202 C 
HETATM   31  C18 UNL     1      22.003   6.477  44.567  1.00  0.00     0.202 C 
ENDBRANCH   3  22
TORSDOF 5
ENDMDL
MODEL 2
REMARK VINA RESULT:      -8.7      3.922      7.151
REMARK  5 active torsions:
REMARK  status: ('A' for Active; 'I' for Inactive)
REMARK    1  A    between atoms: C2_2  and  N1_3 
REMARK    2  A    between atoms: N1_3  and  C4_5 
REMARK    3  A    between atoms: C7_8  and  C8_9 
REMARK    4  A    between atoms: C10_11  and  C11_12 
REMARK    5  A    between atoms: N3_23  and  C19_24 
ROOT
HETATM    1  C8  UNL     1      23.815   2.556  52.671  1.00  0.00     0.149 C 
HETATM    2  C9  UNL     1      22.393   2.414  52.128  1.00  0.00     0.094 C 
HETATM    3  C10 UNL     1      22.024   1.028  52.472  1.00  0.00     0.067 C 
HETATM    4  N2  UNL     1      23.040   0.372  52.923  1.00  0.00    -0.175 NA
HETATM    5  N3  UNL     1      24.185   1.203  52.940  1.00  0.00    -0.260 N 
ENDROOT
BRANCH   1   6
HETATM    6  C7  UNL     1      24.651   3.246  51.678  1.00  0.00    -0.033 A 
HETATM    7  C6  UNL     1      24.284   4.521  51.337  1.00  0.00     0.011 A 
HETATM    8  C5  UNL     1      25.012   5.233  50.420  1.00  0.00     0.030 A 
HETATM    9  C4  UNL     1      26.135   4.742  49.785  1.00  0.00     0.029 A 
HETATM   10  C26 UNL     1      26.440   3.458  50.178  1.00  0.00     0.030 A 
HETATM   11  C25 UNL     1      25.756   2.684  51.091  1.00  0.00     0.011 A 
BRANCH   9  12
HETATM   12  N1  UNL     1      26.903   5.467  48.833  1.00  0.00    -0.386 N 
HETATM   13  C3  UNL     1      26.132   6.594  48.274  1.00  0.00     0.149 C 
BRANCH  12  14
HETATM   14  C2  UNL     1      28.181   5.457  48.249  1.00  0.00     0.118 C 
HETATM   15  C1  UNL     1      28.836   6.748  47.907  1.00  0.00     0.026 C 
ENDBRANCH  12  14
ENDBRANCH   9  12
ENDBRANCH   1   6
BRANCH   5  16
HETATM   16  C19 UNL     1      25.451   0.616  53.204  1.00  0.00     0.053 A 
HETATM   17  C20 UNL     1      25.918  -0.465  52.487  1.00  0.00     0.031 A 
HETATM   18  C21 UNL     1      27.166  -1.045  52.747  1.00  0.00     0.002 A 
HETATM   19  C22 UNL     1      27.979  -0.546  53.743  1.00  0.00     0.000 A 
HETATM   20  C23 UNL     1      27.534   0.540  54.479  1.00  0.00     0.002 A 
HETATM   21  C24 UNL     1      26.310   1.065  54.183  1.00  0.00     0.031 A 
ENDBRANCH   5  16
BRANCH   3  22
HETATM   22  C11 UNL     1      20.691   0.456  52.327  1.00  0.00    -0.007 A 
HETATM   23  C12 UNL     1      19.846   0.848  51.309  1.00  0.00     0.016 A 
HETATM   24  C13 UNL     1      18.582   0.392  51.065  1.00  0.00     0.040 A 
HETATM   25  C14 UNL     1      18.120  -0.566  51.949  1.00  0.00     0.102 A 
HETATM   26  C15 UNL     1      18.910  -1.020  53.008  1.00  0.00     0.103 A 
HETATM   27  O2  UNL     1      16.838  -1.072  51.756  1.00  0.00    -0.346 OA
HETATM   28  C16 UNL     1      20.197  -0.501  53.188  1.00  0.00     0.053 A 
HETATM   29  O1  UNL     1      18.366  -1.983  53.845  1.00  0.00    -0.346 OA
HETATM   30  C17 UNL     1      17.275  -2.798  53.402  1.00  0.00     0.202 C 
HETATM   31  C18 UNL     1      16.244  -1.992  52.642  1.00  0.00     0.202 C 
ENDBRANCH   3  22
TORSDOF 5
ENDMDL
MODEL 3
REMARK VINA RESULT:      -8.7      3.662      8.623
REMARK  5 active torsions:
REMARK  status: ('A' for Active; 'I' for Inactive)
REMARK    1  A    between atoms: C2_2  and  N1_3 
REMARK    2  A    between atoms: N1_3  and  C4_5 
REMARK    3  A    between atoms: C7_8  and  C8_9 
REMARK    4  A    between atoms: C10_11  and  C11_12 
REMARK    5  A    between atoms: N3_23  and  C19_24 
ROOT
HETATM    1  C8  UNL     1      22.606   2.868  51.873  1.00  0.00     0.149 C 
HETATM    2  C9  UNL     1      23.553   2.014  52.718  1.00  0.00     0.094 C 
HETATM    3  C10 UNL     1      24.822   2.052  51.968  1.00  0.00     0.067 C 
HETATM    4  N2  UNL     1      24.666   2.606  50.813  1.00  0.00    -0.175 NA
HETATM    5  N3  UNL     1      23.317   2.999  50.642  1.00  0.00    -0.260 N 
ENDROOT
BRANCH   1   6
HETATM    6  C7  UNL     1      21.302   2.198  51.772  1.00  0.00    -0.033 A 
HETATM    7  C6  UNL     1      21.314   0.860  51.476  1.00  0.00     0.011 A 
HETATM    8  C5  UNL     1      20.139   0.163  51.367  1.00  0.00     0.030 A 
HETATM    9  C4  UNL     1      18.892   0.728  51.537  1.00  0.00     0.029 A 
HETATM   10  C26 UNL     1      18.962   2.072  51.829  1.00  0.00     0.030 A 
HETATM   11  C25 UNL     1      20.102   2.836  51.956  1.00  0.00     0.011 A 
BRANCH   9  12
HETATM   12  N1  UNL     1      17.664   0.019  51.427  1.00  0.00    -0.386 N 
HETATM   13  C3  UNL     1      17.106   0.129  50.066  1.00  0.00     0.149 C 
BRANCH  12  14
HETATM   14  C2  UNL     1      16.803  -0.767  52.210  1.00  0.00     0.118 C 
HETATM   15  C1  UNL     1      17.377  -1.670  53.243  1.00  0.00     0.026 C 
ENDBRANCH  12  14
ENDBRANCH   9  12
ENDBRANCH   1   6
BRANCH   5  16
HETATM   16  C19 UNL     1      22.892   3.438  49.359  1.00  0.00     0.053 A 
HETATM   17  C20 UNL     1      22.817   4.776  49.034  1.00  0.00     0.031 A 
HETATM   18  C21 UNL     1      22.398   5.210  47.771  1.00  0.00     0.002 A 
HETATM   19  C22 UNL     1      22.042   4.300  46.797  1.00  0.00     0.000 A 
HETATM   20  C23 UNL     1      22.108   2.949  47.098  1.00  0.00     0.002 A 
HETATM   21  C24 UNL     1      22.523   2.583  48.345  1.00  0.00     0.031 A 
ENDBRANCH   5  16
BRANCH   3  22
HETATM   22  C11 UNL     1      26.096   1.535  52.452  1.00  0.00    -0.007 A 
HETATM   23  C12 UNL     1      27.003   2.348  53.101  1.00  0.00     0.016 A 
HETATM   24  C13 UNL     1      28.222   1.988  53.600  1.00  0.00     0.040 A 
HETATM   25  C14 UNL     1      28.563   0.659  53.423  1.00  0.00     0.102 A 
HETATM   26  C15 UNL     1      27.703  -0.233  52.777  1.00  0.00     0.103 A 
HETATM   27  O2  UNL     1      29.794   0.228  53.909  1.00  0.00    -0.346 OA
HETATM   28  C16 UNL     1      26.470   0.217  52.295  1.00  0.00     0.053 A 
HETATM   29  O1  UNL     1      28.127  -1.547  52.645  1.00  0.00    -0.346 OA
HETATM   30  C17 UNL     1      29.144  -2.073  53.504  1.00  0.00     0.202 C 
HETATM   31  C18 UNL     1      30.269  -1.083  53.713  1.00  0.00     0.202 C 
ENDBRANCH   3  22
TORSDOF 5
ENDMDL
MODEL 4
REMARK VINA RESULT:      -8.5      3.973      8.682
REMARK  5 active torsions:
REMARK  status: ('A' for Active; 'I' for Inactive)
REMARK    1  A    between atoms: C2_2  and  N1_3 
REMARK    2  A    between atoms: N1_3  and  C4_5 
REMARK    3  A    between atoms: C7_8  and  C8_9 
REMARK    4  A    between atoms: C10_11  and  C11_12 
REMARK    5  A    between atoms: N3_23  and  C19_24 
ROOT
HETATM    1  C8  UNL     1      21.744   1.281  53.092  1.00  0.00     0.149 C 
HETATM    2  C9  UNL     1      22.948   0.572  53.712  1.00  0.00     0.094 C 
HETATM    3  C10 UNL     1      24.065   0.931  52.818  1.00  0.00     0.067 C 
HETATM    4  N2  UNL     1      23.641   1.535  51.760  1.00  0.00    -0.175 NA
HETATM    5  N3  UNL     1      22.232   1.657  51.803  1.00  0.00    -0.260 N 
ENDROOT
BRANCH   1   6
HETATM    6  C7  UNL     1      20.591   0.369  53.081  1.00  0.00    -0.033 A 
HETATM    7  C6  UNL     1      20.708  -0.786  53.808  1.00  0.00     0.011 A 
HETATM    8  C5  UNL     1      19.677  -1.687  53.851  1.00  0.00     0.030 A 
HETATM    9  C4  UNL     1      18.478  -1.515  53.189  1.00  0.00     0.029 A 
HETATM   10  C26 UNL     1      18.437  -0.334  52.480  1.00  0.00     0.030 A 
HETATM   11  C25 UNL     1      19.432   0.617  52.392  1.00  0.00     0.011 A 
BRANCH   9  12
HETATM   12  N1  UNL     1      17.398  -2.438  53.223  1.00  0.00    -0.386 N 
HETATM   13  C3  UNL     1      16.204  -1.886  52.556  1.00  0.00     0.149 C 
BRANCH  12  14
HETATM   14  C2  UNL     1      17.100  -3.728  53.692  1.00  0.00     0.118 C 
HETATM   15  C1  UNL     1      15.987  -4.491  53.068  1.00  0.00     0.026 C 
ENDBRANCH  12  14
ENDBRANCH   9  12
ENDBRANCH   1   6
BRANCH   5  16
HETATM   16  C19 UNL     1      21.549   2.105  50.640  1.00  0.00     0.053 A 
HETATM   17  C20 UNL     1      20.889   3.315  50.602  1.00  0.00     0.031 A 
HETATM   18  C21 UNL     1      20.216   3.757  49.457  1.00  0.00     0.002 A 
HETATM   19  C22 UNL     1      20.193   2.986  48.313  1.00  0.00     0.000 A 
HETATM   20  C23 UNL     1      20.849   1.766  48.324  1.00  0.00     0.002 A 
HETATM   21  C24 UNL     1      21.489   1.385  49.468  1.00  0.00     0.031 A 
ENDBRANCH   5  16
BRANCH   3  22
HETATM   22  C11 UNL     1      25.471   0.647  53.080  1.00  0.00    -0.007 A 
HETATM   23  C12 UNL     1      26.316   1.609  53.594  1.00  0.00     0.016 A 
HETATM   24  C13 UNL     1      27.644   1.470  53.883  1.00  0.00     0.040 A 
HETATM   25  C14 UNL     1      28.177   0.221  53.622  1.00  0.00     0.102 A 
HETATM   26  C15 UNL     1      27.392  -0.811  53.101  1.00  0.00     0.103 A 
HETATM   27  O2  UNL     1      29.526   0.014  53.894  1.00  0.00    -0.346 OA
HETATM   28  C16 UNL     1      26.037  -0.586  52.833  1.00  0.00     0.053 A 
HETATM   29  O1  UNL     1      28.009  -2.031  52.871  1.00  0.00    -0.346 OA
HETATM   30  C17 UNL     1      29.228  -2.367  53.544  1.00  0.00     0.202 C 
HETATM   31  C18 UNL     1      30.183  -1.195  53.593  1.00  0.00     0.202 C 
ENDBRANCH   3  22
TORSDOF 5
ENDMDL
MODEL 5
REMARK VINA RESULT:      -8.5      3.812      7.015
REMARK  5 active torsions:
REMARK  status: ('A' for Active; 'I' for Inactive)
REMARK    1  A    between atoms: C2_2  and  N1_3 
REMARK    2  A    between atoms: N1_3  and  C4_5 
REMARK    3  A    between atoms: C7_8  and  C8_9 
REMARK    4  A    between atoms: C10_11  and  C11_12 
REMARK    5  A    between atoms: N3_23  and  C19_24 
ROOT
HETATM    1  C8  UNL     1      22.654   2.109  49.763  1.00  0.00     0.149 C 
HETATM    2  C9  UNL     1      23.196   3.389  49.126  1.00  0.00     0.094 C 
HETATM    3  C10 UNL     1      24.533   3.541  49.730  1.00  0.00     0.067 C 
HETATM    4  N2  UNL     1      24.714   2.693  50.686  1.00  0.00    -0.175 NA
HETATM    5  N3  UNL     1      23.561   1.888  50.844  1.00  0.00    -0.260 N 
ENDROOT
BRANCH   1   6
HETATM    6  C7  UNL     1      21.252   2.313  50.156  1.00  0.00    -0.033 A 
HETATM    7  C6  UNL     1      20.961   3.469  50.833  1.00  0.00     0.011 A 
HETATM    8  C5  UNL     1      19.678   3.735  51.233  1.00  0.00     0.030 A 
HETATM    9  C4  UNL     1      18.610   2.892  50.998  1.00  0.00     0.029 A 
HETATM   10  C26 UNL     1      18.981   1.755  50.316  1.00  0.00     0.030 A 
HETATM   11  C25 UNL     1      20.247   1.422  49.883  1.00  0.00     0.011 A 
BRANCH   9  12
HETATM   12  N1  UNL     1      17.273   3.153  51.405  1.00  0.00    -0.386 N 
HETATM   13  C3  UNL     1      16.469   1.917  51.413  1.00  0.00     0.149 C 
BRANCH  12  14
HETATM   14  C2  UNL     1      16.462   4.226  51.812  1.00  0.00     0.118 C 
HETATM   15  C1  UNL     1      15.406   3.993  52.832  1.00  0.00     0.026 C 
ENDBRANCH  12  14
ENDBRANCH   9  12
ENDBRANCH   1   6
BRANCH   5  16
HETATM   16  C19 UNL     1      23.475   1.033  51.976  1.00  0.00     0.053 A 
HETATM   17  C20 UNL     1      24.588   0.675  52.706  1.00  0.00     0.031 A 
HETATM   18  C21 UNL     1      24.505  -0.166  53.821  1.00  0.00     0.002 A 
HETATM   19  C22 UNL     1      23.288  -0.672  54.231  1.00  0.00     0.000 A 
HETATM   20  C23 UNL     1      22.153  -0.329  53.514  1.00  0.00     0.002 A 
HETATM   21  C24 UNL     1      22.293   0.496  52.436  1.00  0.00     0.031 A 
ENDBRANCH   5  16
BRANCH   3  22
HETATM   22  C11 UNL     1      25.533   4.517  49.314  1.00  0.00    -0.007 A 
HETATM   23  C12 UNL     1      25.220   5.854  49.178  1.00  0.00     0.016 A 
HETATM   24  C13 UNL     1      26.060   6.863  48.799  1.00  0.00     0.040 A 
HETATM   25  C14 UNL     1      27.360   6.476  48.526  1.00  0.00     0.102 A 
HETATM   26  C15 UNL     1      27.762   5.143  48.640  1.00  0.00     0.103 A 
HETATM   27  O2  UNL     1      28.266   7.457  48.134  1.00  0.00    -0.346 OA
HETATM   28  C16 UNL     1      26.838   4.170  49.035  1.00  0.00     0.053 A 
HETATM   29  O1  UNL     1      29.085   4.847  48.347  1.00  0.00    -0.346 OA
HETATM   30  C17 UNL     1      30.084   5.872  48.383  1.00  0.00     0.202 C 
HETATM   31  C18 UNL     1      29.591   7.159  47.760  1.00  0.00     0.202 C 
ENDBRANCH   3  22
TORSDOF 5
ENDMDL
MODEL 6
REMARK VINA RESULT:      -8.5      3.321      6.750
REMARK  5 active torsions:
REMARK  status: ('A' for Active; 'I' for Inactive)
REMARK    1  A    between atoms: C2_2  and  N1_3 
REMARK    2  A    between atoms: N1_3  and  C4_5 
REMARK    3  A    between atoms: C7_8  and  C8_9 
REMARK    4  A    between atoms: C10_11  and  C11_12 
REMARK    5  A    between atoms: N3_23  and  C19_24 
ROOT
HETATM    1  C8  UNL     1      21.821   1.345  50.256  1.00  0.00     0.149 C 
HETATM    2  C9  UNL     1      22.391   2.557  49.519  1.00  0.00     0.094 C 
HETATM    3  C10 UNL     1      23.714   2.754  50.140  1.00  0.00     0.067 C 
HETATM    4  N2  UNL     1      23.863   1.996  51.173  1.00  0.00    -0.175 NA
HETATM    5  N3  UNL     1      22.699   1.217  51.375  1.00  0.00    -0.260 N 
ENDROOT
BRANCH   1   6
HETATM    6  C7  UNL     1      20.412   1.595  50.594  1.00  0.00    -0.033 A 
HETATM    7  C6  UNL     1      20.123   2.791  51.198  1.00  0.00     0.011 A 
HETATM    8  C5  UNL     1      18.834   3.101  51.542  1.00  0.00     0.030 A 
HETATM    9  C4  UNL     1      17.758   2.266  51.320  1.00  0.00     0.029 A 
HETATM   10  C26 UNL     1      18.127   1.086  50.712  1.00  0.00     0.030 A 
HETATM   11  C25 UNL     1      19.399   0.708  50.338  1.00  0.00     0.011 A 
BRANCH   9  12
HETATM   12  N1  UNL     1      16.414   2.572  51.670  1.00  0.00    -0.386 N 
HETATM   13  C3  UNL     1      16.259   4.006  51.978  1.00  0.00     0.149 C 
BRANCH  12  14
HETATM   14  C2  UNL     1      15.168   1.939  51.813  1.00  0.00     0.118 C 
HETATM   15  C1  UNL     1      15.058   0.736  52.680  1.00  0.00     0.026 C 
ENDBRANCH  12  14
ENDBRANCH   9  12
ENDBRANCH   1   6
BRANCH   5  16
HETATM   16  C19 UNL     1      22.577   0.471  52.578  1.00  0.00     0.053 A 
HETATM   17  C20 UNL     1      23.666  -0.119  53.184  1.00  0.00     0.031 A 
HETATM   18  C21 UNL     1      23.547  -0.855  54.369  1.00  0.00     0.002 A 
HETATM   19  C22 UNL     1      22.319  -1.015  54.977  1.00  0.00     0.000 A 
HETATM   20  C23 UNL     1      21.208  -0.432  54.389  1.00  0.00     0.002 A 
HETATM   21  C24 UNL     1      21.382   0.274  53.234  1.00  0.00     0.031 A 
ENDBRANCH   5  16
BRANCH   3  22
HETATM   22  C11 UNL     1      24.733   3.680  49.662  1.00  0.00    -0.007 A 
HETATM   23  C12 UNL     1      26.064   3.321  49.606  1.00  0.00     0.016 A 
HETATM   24  C13 UNL     1      27.109   4.091  49.180  1.00  0.00     0.040 A 
HETATM   25  C14 UNL     1      26.771   5.366  48.766  1.00  0.00     0.102 A 
HETATM   26  C15 UNL     1      25.447   5.812  48.789  1.00  0.00     0.103 A 
HETATM   27  O2  UNL     1      27.791   6.202  48.320  1.00  0.00    -0.346 OA
HETATM   28  C16 UNL     1      24.434   4.959  49.240  1.00  0.00     0.053 A 
HETATM   29  O1  UNL     1      25.200   7.106  48.354  1.00  0.00    -0.346 OA
HETATM   30  C17 UNL     1      26.137   7.779  47.507  1.00  0.00     0.202 C 
HETATM   31  C18 UNL     1      27.565   7.542  47.950  1.00  0.00     0.202 C 
ENDBRANCH   3  22
TORSDOF 5
ENDMDL
MODEL 7
REMARK VINA RESULT:      -8.5      3.686      5.839
REMARK  5 active torsions:
REMARK  status: ('A' for Active; 'I' for Inactive)
REMARK    1  A    between atoms: C2_2  and  N1_3 
REMARK    2  A    between atoms: N1_3  and  C4_5 
REMARK    3  A    between atoms: C7_8  and  C8_9 
REMARK    4  A    between atoms: C10_11  and  C11_12 
REMARK    5  A    between atoms: N3_23  and  C19_24 
ROOT
HETATM    1  C8  UNL     1      23.351   2.264  50.435  1.00  0.00     0.149 C 
HETATM    2  C9  UNL     1      22.084   1.615  50.992  1.00  0.00     0.094 C 
HETATM    3  C10 UNL     1      21.055   2.658  50.827  1.00  0.00     0.067 C 
HETATM    4  N2  UNL     1      21.580   3.780  50.464  1.00  0.00    -0.175 NA
HETATM    5  N3  UNL     1      22.983   3.641  50.341  1.00  0.00    -0.260 N 
ENDROOT
BRANCH   1   6
HETATM    6  C7  UNL     1      24.481   1.981  51.332  1.00  0.00    -0.033 A 
HETATM    7  C6  UNL     1      25.738   2.210  50.837  1.00  0.00     0.011 A 
HETATM    8  C5  UNL     1      26.844   1.974  51.611  1.00  0.00     0.030 A 
HETATM    9  C4  UNL     1      26.787   1.501  52.906  1.00  0.00     0.029 A 
HETATM   10  C26 UNL     1      25.493   1.295  53.332  1.00  0.00     0.030 A 
HETATM   11  C25 UNL     1      24.338   1.510  52.612  1.00  0.00     0.011 A 
BRANCH   9  12
HETATM   12  N1  UNL     1      27.923   1.251  53.723  1.00  0.00    -0.386 N 
HETATM   13  C3  UNL     1      28.807   2.431  53.781  1.00  0.00     0.149 C 
BRANCH  12  14
HETATM   14  C2  UNL     1      28.480   0.228  54.509  1.00  0.00     0.118 C 
HETATM   15  C1  UNL     1      29.465  -0.705  53.899  1.00  0.00     0.026 C 
ENDBRANCH  12  14
ENDBRANCH   9  12
ENDBRANCH   1   6
BRANCH   5  16
HETATM   16  C19 UNL     1      23.770   4.809  50.153  1.00  0.00     0.053 A 
HETATM   17  C20 UNL     1      23.901   5.766  51.137  1.00  0.00     0.031 A 
HETATM   18  C21 UNL     1      24.677   6.917  50.953  1.00  0.00     0.002 A 
HETATM   19  C22 UNL     1      25.345   7.132  49.766  1.00  0.00     0.000 A 
HETATM   20  C23 UNL     1      25.230   6.186  48.760  1.00  0.00     0.002 A 
HETATM   21  C24 UNL     1      24.461   5.083  48.994  1.00  0.00     0.031 A 
ENDBRANCH   5  16
BRANCH   3  22
HETATM   22  C11 UNL     1      19.626   2.466  51.044  1.00  0.00    -0.007 A 
HETATM   23  C12 UNL     1      19.015   1.256  50.785  1.00  0.00     0.016 A 
HETATM   24  C13 UNL     1      17.694   0.948  50.946  1.00  0.00     0.040 A 
HETATM   25  C14 UNL     1      16.902   1.978  51.420  1.00  0.00     0.102 A 
HETATM   26  C15 UNL     1      17.439   3.236  51.708  1.00  0.00     0.103 A 
HETATM   27  O2  UNL     1      15.546   1.729  51.605  1.00  0.00    -0.346 OA
HETATM   28  C16 UNL     1      18.805   3.468  51.516  1.00  0.00     0.053 A 
HETATM   29  O1  UNL     1      16.571   4.209  52.179  1.00  0.00    -0.346 OA
HETATM   30  C17 UNL     1      15.322   3.842  52.775  1.00  0.00     0.202 C 
HETATM   31  C18 UNL     1      14.640   2.730  52.009  1.00  0.00     0.202 C 
ENDBRANCH   3  22
TORSDOF 5
ENDMDL
MODEL 8
REMARK VINA RESULT:      -8.4      1.224      2.013
REMARK  5 active torsions:
REMARK  status: ('A' for Active; 'I' for Inactive)
REMARK    1  A    between atoms: C2_2  and  N1_3 
REMARK    2  A    between atoms: N1_3  and  C4_5 
REMARK    3  A    between atoms: C7_8  and  C8_9 
REMARK    4  A    between atoms: C10_11  and  C11_12 
REMARK    5  A    between atoms: N3_23  and  C19_24 
ROOT
HETATM    1  C8  UNL     1      23.590   3.508  51.586  1.00  0.00     0.149 C 
HETATM    2  C9  UNL     1      23.875   4.152  50.228  1.00  0.00     0.094 C 
HETATM    3  C10 UNL     1      22.675   3.834  49.431  1.00  0.00     0.067 C 
HETATM    4  N2  UNL     1      21.910   3.000  50.052  1.00  0.00    -0.175 NA
HETATM    5  N3  UNL     1      22.476   2.661  51.303  1.00  0.00    -0.260 N 
ENDROOT
BRANCH   1   6
HETATM    6  C7  UNL     1      24.796   2.816  52.061  1.00  0.00    -0.033 A 
HETATM    7  C6  UNL     1      24.980   2.753  53.418  1.00  0.00     0.011 A 
HETATM    8  C5  UNL     1      26.079   2.123  53.942  1.00  0.00     0.030 A 
HETATM    9  C4  UNL     1      27.056   1.521  53.176  1.00  0.00     0.029 A 
HETATM   10  C26 UNL     1      26.803   1.626  51.826  1.00  0.00     0.030 A 
HETATM   11  C25 UNL     1      25.723   2.242  51.229  1.00  0.00     0.011 A 
BRANCH   9  12
HETATM   12  N1  UNL     1      28.201   0.863  53.702  1.00  0.00    -0.386 N 
HETATM   13  C3  UNL     1      29.204   1.835  54.175  1.00  0.00     0.149 C 
BRANCH  12  14
HETATM   14  C2  UNL     1      28.688  -0.436  53.924  1.00  0.00     0.118 C 
HETATM   15  C1  UNL     1      30.083  -0.769  53.531  1.00  0.00     0.026 C 
ENDBRANCH  12  14
ENDBRANCH   9  12
ENDBRANCH   1   6
BRANCH   5  16
HETATM   16  C19 UNL     1      21.897   1.599  52.049  1.00  0.00     0.053 A 
HETATM   17  C20 UNL     1      20.710   1.752  52.733  1.00  0.00     0.031 A 
HETATM   18  C21 UNL     1      20.138   0.707  53.469  1.00  0.00     0.002 A 
HETATM   19  C22 UNL     1      20.752  -0.526  53.533  1.00  0.00     0.000 A 
HETATM   20  C23 UNL     1      21.947  -0.707  52.854  1.00  0.00     0.002 A 
HETATM   21  C24 UNL     1      22.459   0.346  52.153  1.00  0.00     0.031 A 
ENDBRANCH   5  16
BRANCH   3  22
HETATM   22  C11 UNL     1      22.377   4.380  48.113  1.00  0.00    -0.007 A 
HETATM   23  C12 UNL     1      22.876   5.602  47.711  1.00  0.00     0.016 A 
HETATM   24  C13 UNL     1      22.672   6.221  46.510  1.00  0.00     0.040 A 
HETATM   25  C14 UNL     1      21.876   5.527  45.617  1.00  0.00     0.102 A 
HETATM   26  C15 UNL     1      21.330   4.283  45.943  1.00  0.00     0.103 A 
HETATM   27  O2  UNL     1      21.630   6.104  44.374  1.00  0.00    -0.346 OA
HETATM   28  C16 UNL     1      21.588   3.718  47.197  1.00  0.00     0.053 A 
HETATM   29  O1  UNL     1      20.543   3.659  44.986  1.00  0.00    -0.346 OA
HETATM   30  C17 UNL     1      20.656   4.020  43.605  1.00  0.00     0.202 C 
HETATM   31  C18 UNL     1      20.771   5.518  43.424  1.00  0.00     0.202 C 
ENDBRANCH   3  22
TORSDOF 5
ENDMDL
MODEL 9
REMARK VINA RESULT:      -8.4      7.191      9.543
REMARK  5 active torsions:
REMARK  status: ('A' for Active; 'I' for Inactive)
REMARK    1  A    between atoms: C2_2  and  N1_3 
REMARK    2  A    between atoms: N1_3  and  C4_5 
REMARK    3  A    between atoms: C7_8  and  C8_9 
REMARK    4  A    between atoms: C10_11  and  C11_12 
REMARK    5  A    between atoms: N3_23  and  C19_24 
ROOT
HETATM    1  C8  UNL     1      28.911   7.093  47.454  1.00  0.00     0.149 C 
HETATM    2  C9  UNL     1      27.976   6.124  48.178  1.00  0.00     0.094 C 
HETATM    3  C10 UNL     1      27.089   7.008  48.956  1.00  0.00     0.067 C 
HETATM    4  N2  UNL     1      27.498   8.232  48.916  1.00  0.00    -0.175 NA
HETATM    5  N3  UNL     1      28.673   8.325  48.134  1.00  0.00    -0.260 N 
ENDROOT
BRANCH   1   6
HETATM    6  C7  UNL     1      30.291   6.593  47.532  1.00  0.00    -0.033 A 
HETATM    7  C6  UNL     1      30.638   5.907  48.667  1.00  0.00     0.011 A 
HETATM    8  C5  UNL     1      31.904   5.406  48.817  1.00  0.00     0.030 A 
HETATM    9  C4  UNL     1      32.902   5.547  47.873  1.00  0.00     0.029 A 
HETATM   10  C26 UNL     1      32.479   6.247  46.765  1.00  0.00     0.030 A 
HETATM   11  C25 UNL     1      31.225   6.777  46.546  1.00  0.00     0.011 A 
BRANCH   9  12
HETATM   12  N1  UNL     1      34.220   5.034  48.012  1.00  0.00    -0.386 N 
HETATM   13  C3  UNL     1      35.097   5.999  48.702  1.00  0.00     0.149 C 
BRANCH  12  14
HETATM   14  C2  UNL     1      34.965   3.884  47.703  1.00  0.00     0.118 C 
HETATM   15  C1  UNL     1      34.954   3.361  46.311  1.00  0.00     0.026 C 
ENDBRANCH  12  14
ENDBRANCH   9  12
ENDBRANCH   1   6
BRANCH   5  16
HETATM   16  C19 UNL     1      29.399   9.547  48.136  1.00  0.00     0.053 A 
HETATM   17  C20 UNL     1      30.071   9.995  49.253  1.00  0.00     0.031 A 
HETATM   18  C21 UNL     1      30.786  11.198  49.256  1.00  0.00     0.002 A 
HETATM   19  C22 UNL     1      30.842  11.986  48.124  1.00  0.00     0.000 A 
HETATM   20  C23 UNL     1      30.175  11.558  46.987  1.00  0.00     0.002 A 
HETATM   21  C24 UNL     1      29.494  10.377  47.041  1.00  0.00     0.031 A 
ENDBRANCH   5  16
BRANCH   3  22
HETATM   22  C11 UNL     1      25.901   6.574  49.681  1.00  0.00    -0.007 A 
HETATM   23  C12 UNL     1      25.098   7.474  50.351  1.00  0.00     0.016 A 
HETATM   24  C13 UNL     1      23.966   7.197  51.063  1.00  0.00     0.040 A 
HETATM   25  C14 UNL     1      23.606   5.862  51.103  1.00  0.00     0.102 A 
HETATM   26  C15 UNL     1      24.363   4.885  50.452  1.00  0.00     0.103 A 
HETATM   27  O2  UNL     1      22.460   5.513  51.812  1.00  0.00    -0.346 OA
HETATM   28  C16 UNL     1      25.511   5.253  49.743  1.00  0.00     0.053 A 
HETATM   29  O1  UNL     1      23.927   3.571  50.544  1.00  0.00    -0.346 OA
HETATM   30  C17 UNL     1      22.565   3.279  50.875  1.00  0.00     0.202 C 
HETATM   31  C18 UNL     1      22.051   4.176  51.979  1.00  0.00     0.202 C 
ENDBRANCH   3  22
TORSDOF 5
ENDMDL
