MODEL 1
REMARK VINA RESULT:      -9.0      0.000      0.000
REMARK  3 active torsions:
REMARK  status: ('A' for Active; 'I' for Inactive)
REMARK    1  A    between atoms: N2_5  and  O2_6 
REMARK    2  A    between atoms: C6_11  and  N4_12 
REMARK    3  A    between atoms: N4_12  and  C7_13 
ROOT
HETATM    1  N1  UNL     1      26.709  -0.097  52.959  1.00  0.00    -0.022 N 
HETATM    2  C1  UNL     1      25.591   0.485  53.642  1.00  0.00     0.266 A 
HETATM    3  C2  UNL     1      25.845  -0.794  53.764  1.00  0.00     0.395 A 
HETATM    4  O1  UNL     1      26.559  -1.981  53.528  1.00  0.00    -0.223 OA
HETATM    5  N2  UNL     1      27.834  -1.947  52.940  1.00  0.00     0.037 NA
HETATM    6  N3  UNL     1      28.681  -1.237  53.784  1.00  0.00    -0.283 N 
HETATM    7  C3  UNL     1      29.202   0.090  53.535  1.00  0.00     0.106 C 
HETATM    8  C4  UNL     1      28.603   1.259  53.379  1.00  0.00     0.020 C 
HETATM    9  C5  UNL     1      27.496   2.206  53.290  1.00  0.00     0.029 C 
HETATM   10  C6  UNL     1      26.179   1.854  53.415  1.00  0.00     0.051 C 
HETATM   11  H1  UNL     1      26.959  -0.025  51.882  1.00  0.00     0.282 HD
HETATM   12  H2  UNL     1      26.963  -0.030  51.897  1.00  0.00     0.282 HD
HETATM   13  H5  UNL     1      28.902  -1.782  54.641  1.00  0.00     0.184 HD
ENDROOT
BRANCH  10  14
HETATM   14  N4  UNL     1      24.958   2.418  53.382  1.00  0.00    -0.366 N 
HETATM   15  H9  UNL     1      24.647   2.568  54.391  1.00  0.00     0.161 HD
BRANCH  14  16
HETATM   16  C7  UNL     1      24.246   2.744  52.128  1.00  0.00     0.208 C 
HETATM   17  C8  UNL     1      22.933   2.990  52.647  1.00  0.00     0.052 C 
HETATM   18  C9  UNL     1      22.116   1.953  52.694  1.00  0.00     0.080 C 
HETATM   19  N5  UNL     1      22.445   1.087  51.810  1.00  0.00    -0.276 NA
HETATM   20  C10 UNL     1      22.507   1.527  50.466  1.00  0.00     0.160 C 
HETATM   21  C11 UNL     1      22.501   1.750  49.166  1.00  0.00     0.012 C 
HETATM   22  C12 UNL     1      22.929   3.138  48.854  1.00  0.00    -0.034 A 
HETATM   23  C13 UNL     1      22.973   4.319  48.065  1.00  0.00     0.050 A 
HETATM   24  C15 UNL     1      23.723   3.854  49.725  1.00  0.00     0.136 A 
HETATM   25  S1  UNL     1      24.039   5.568  49.023  1.00  0.00    -0.133 SA
HETATM   26  C14 UNL     1      24.467   4.527  50.538  1.00  0.00     0.058 A 
HETATM   27  N6  UNL     1      24.963   4.011  51.784  1.00  0.00    -0.362 N 
HETATM   28  H16 UNL     1      25.548   4.854  51.708  1.00  0.00     0.162 HD
ENDBRANCH  14  16
ENDBRANCH  10  14
BRANCH   5  29
HETATM   29  O2  UNL     1      28.223  -3.227  52.877  1.00  0.00    -0.270 OA
HETATM   30  H4  UNL     1      28.574  -3.583  53.721  1.00  0.00     0.241 HD
ENDBRANCH   5  29
TORSDOF 3
ENDMDL
MODEL 2
REMARK VINA RESULT:      -8.5      1.801      2.736
REMARK  3 active torsions:
REMARK  status: ('A' for Active; 'I' for Inactive)
REMARK    1  A    between atoms: N2_5  and  O2_6 
REMARK    2  A    between atoms: C6_11  and  N4_12 
REMARK    3  A    between atoms: N4_12  and  C7_13 
ROOT
HETATM    1  N1  UNL     1      26.942   0.066  52.599  1.00  0.00    -0.022 N 
HETATM    2  C1  UNL     1      25.715   0.729  52.934  1.00  0.00     0.266 A 
HETATM    3  C2  UNL     1      25.866  -0.547  53.188  1.00  0.00     0.395 A 
HETATM    4  O1  UNL     1      26.557  -1.771  53.213  1.00  0.00    -0.223 OA
HETATM    5  N2  UNL     1      27.941  -1.817  52.978  1.00  0.00     0.037 NA
HETATM    6  N3  UNL     1      28.574  -1.081  53.973  1.00  0.00    -0.283 N 
HETATM    7  C3  UNL     1      29.207   0.208  53.797  1.00  0.00     0.106 C 
HETATM    8  C4  UNL     1      28.727   1.384  53.426  1.00  0.00     0.020 C 
HETATM    9  C5  UNL     1      27.728   2.359  52.998  1.00  0.00     0.029 C 
HETATM   10  C6  UNL     1      26.408   2.060  52.793  1.00  0.00     0.051 C 
HETATM   11  H1  UNL     1      27.465   0.059  51.624  1.00  0.00     0.282 HD
HETATM   12  H2  UNL     1      27.465   0.054  51.640  1.00  0.00     0.282 HD
HETATM   13  H5  UNL     1      28.539  -1.576  54.887  1.00  0.00     0.184 HD
ENDROOT
BRANCH  10  14
HETATM   14  N4  UNL     1      25.267   2.660  52.411  1.00  0.00    -0.366 N 
HETATM   15  H9  UNL     1      24.465   2.182  52.927  1.00  0.00     0.161 HD
BRANCH  14  16
HETATM   16  C7  UNL     1      25.219   3.780  51.447  1.00  0.00     0.208 C 
HETATM   17  C8  UNL     1      24.602   3.122  50.335  1.00  0.00     0.052 C 
HETATM   18  C9  UNL     1      25.416   2.565  49.456  1.00  0.00     0.080 C 
HETATM   19  N5  UNL     1      26.553   3.152  49.468  1.00  0.00    -0.276 NA
HETATM   20  C10 UNL     1      26.562   4.550  49.240  1.00  0.00     0.160 C 
HETATM   21  C11 UNL     1      26.749   5.819  48.935  1.00  0.00     0.012 C 
HETATM   22  C12 UNL     1      25.619   6.660  49.408  1.00  0.00    -0.034 A 
HETATM   23  C13 UNL     1      24.761   7.793  49.372  1.00  0.00     0.050 A 
HETATM   24  C15 UNL     1      24.821   6.259  50.460  1.00  0.00     0.136 A 
HETATM   25  S1  UNL     1      23.486   7.547  50.761  1.00  0.00    -0.133 SA
HETATM   26  C14 UNL     1      24.074   5.889  51.445  1.00  0.00     0.058 A 
HETATM   27  N6  UNL     1      24.263   4.668  52.179  1.00  0.00    -0.362 N 
HETATM   28  H16 UNL     1      23.599   5.140  52.808  1.00  0.00     0.162 HD
ENDBRANCH  14  16
ENDBRANCH  10  14
BRANCH   5  29
HETATM   29  O2  UNL     1      28.269  -3.111  53.089  1.00  0.00    -0.270 OA
HETATM   30  H4  UNL     1      29.214  -3.303  52.909  1.00  0.00     0.241 HD
ENDBRANCH   5  29
TORSDOF 3
ENDMDL
MODEL 3
REMARK VINA RESULT:      -8.0      2.094      3.380
REMARK  3 active torsions:
REMARK  status: ('A' for Active; 'I' for Inactive)
REMARK    1  A    between atoms: N2_5  and  O2_6 
REMARK    2  A    between atoms: C6_11  and  N4_12 
REMARK    3  A    between atoms: N4_12  and  C7_13 
ROOT
HETATM    1  N1  UNL     1      25.635   1.621  54.093  1.00  0.00    -0.022 N 
HETATM    2  C1  UNL     1      25.458   2.703  53.169  1.00  0.00     0.266 A 
HETATM    3  C2  UNL     1      26.662   2.334  53.530  1.00  0.00     0.395 A 
HETATM    4  O1  UNL     1      27.603   1.555  54.225  1.00  0.00    -0.223 OA
HETATM    5  N2  UNL     1      27.221   0.357  54.851  1.00  0.00     0.037 NA
HETATM    6  N3  UNL     1      26.757  -0.514  53.872  1.00  0.00    -0.283 N 
HETATM    7  C3  UNL     1      25.377  -0.897  53.666  1.00  0.00     0.106 C 
HETATM    8  C4  UNL     1      24.303  -0.191  53.351  1.00  0.00     0.020 C 
HETATM    9  C5  UNL     1      23.517   0.993  53.017  1.00  0.00     0.029 C 
HETATM   10  C6  UNL     1      24.039   2.256  52.933  1.00  0.00     0.051 C 
HETATM   11  H1  UNL     1      25.163   1.494  55.087  1.00  0.00     0.282 HD
HETATM   12  H2  UNL     1      25.174   1.488  55.075  1.00  0.00     0.282 HD
HETATM   13  H5  UNL     1      27.538  -0.870  53.284  1.00  0.00     0.184 HD
ENDROOT
BRANCH  10  14
HETATM   14  N4  UNL     1      23.642   3.515  52.675  1.00  0.00    -0.366 N 
HETATM   15  H9  UNL     1      22.888   3.766  53.387  1.00  0.00     0.161 HD
BRANCH  14  16
HETATM   16  C7  UNL     1      24.203   4.338  51.583  1.00  0.00     0.208 C 
HETATM   17  C8  UNL     1      23.340   3.946  50.509  1.00  0.00     0.052 C 
HETATM   18  C9  UNL     1      23.741   2.923  49.776  1.00  0.00     0.080 C 
HETATM   19  N5  UNL     1      25.017   2.822  49.814  1.00  0.00    -0.276 NA
HETATM   20  C10 UNL     1      25.767   3.957  49.420  1.00  0.00     0.160 C 
HETATM   21  C11 UNL     1      26.601   4.879  48.982  1.00  0.00     0.012 C 
HETATM   22  C12 UNL     1      26.086   6.246  49.253  1.00  0.00    -0.034 A 
HETATM   23  C13 UNL     1      25.960   7.641  49.009  1.00  0.00     0.050 A 
HETATM   24  C15 UNL     1      25.189   6.482  50.274  1.00  0.00     0.136 A 
HETATM   25  S1  UNL     1      24.737   8.306  50.304  1.00  0.00    -0.133 SA
HETATM   26  C14 UNL     1      24.350   6.707  51.230  1.00  0.00     0.058 A 
HETATM   27  N6  UNL     1      23.858   5.692  52.119  1.00  0.00    -0.362 N 
HETATM   28  H16 UNL     1      23.540   6.527  52.628  1.00  0.00     0.162 HD
ENDBRANCH  14  16
ENDBRANCH  10  14
BRANCH   5  29
HETATM   29  O2  UNL     1      28.346  -0.126  55.395  1.00  0.00    -0.270 OA
HETATM   30  H4  UNL     1      29.141  -0.027  54.829  1.00  0.00     0.241 HD
ENDBRANCH   5  29
TORSDOF 3
ENDMDL
MODEL 4
REMARK VINA RESULT:      -7.9      4.906      7.198
REMARK  3 active torsions:
REMARK  status: ('A' for Active; 'I' for Inactive)
REMARK    1  A    between atoms: N2_5  and  O2_6 
REMARK    2  A    between atoms: C6_11  and  N4_12 
REMARK    3  A    between atoms: N4_12  and  C7_13 
ROOT
HETATM    1  N1  UNL     1      26.631   7.591  50.082  1.00  0.00    -0.022 N 
HETATM    2  C1  UNL     1      25.259   7.176  50.104  1.00  0.00     0.266 A 
HETATM    3  C2  UNL     1      25.564   8.449  50.146  1.00  0.00     0.395 A 
HETATM    4  O1  UNL     1      26.433   9.554  50.164  1.00  0.00    -0.223 OA
HETATM    5  N2  UNL     1      27.790   9.403  49.835  1.00  0.00     0.037 NA
HETATM    6  N3  UNL     1      27.870   8.964  48.518  1.00  0.00    -0.283 N 
HETATM    7  C3  UNL     1      28.251   7.634  48.093  1.00  0.00     0.106 C 
HETATM    8  C4  UNL     1      27.706   6.448  48.310  1.00  0.00     0.020 C 
HETATM    9  C5  UNL     1      26.748   5.479  48.833  1.00  0.00     0.029 C 
HETATM   10  C6  UNL     1      25.674   5.813  49.613  1.00  0.00     0.051 C 
HETATM   11  H1  UNL     1      27.454   7.246  50.737  1.00  0.00     0.282 HD
HETATM   12  H2  UNL     1      27.449   7.255  50.725  1.00  0.00     0.282 HD
HETATM   13  H5  UNL     1      27.616   9.721  47.852  1.00  0.00     0.184 HD
ENDROOT
BRANCH  10  14
HETATM   14  N4  UNL     1      24.644   5.225  50.248  1.00  0.00    -0.366 N 
HETATM   15  H9  UNL     1      23.859   5.944  50.318  1.00  0.00     0.161 HD
BRANCH  14  16
HETATM   16  C7  UNL     1      24.675   3.827  50.728  1.00  0.00     0.208 C 
HETATM   17  C8  UNL     1      24.424   3.139  49.497  1.00  0.00     0.052 C 
HETATM   18  C9  UNL     1      23.159   2.881  49.215  1.00  0.00     0.080 C 
HETATM   19  N5  UNL     1      22.469   2.811  50.291  1.00  0.00    -0.276 NA
HETATM   20  C10 UNL     1      22.891   1.880  51.271  1.00  0.00     0.160 C 
HETATM   21  C11 UNL     1      23.086   0.992  52.225  1.00  0.00     0.012 C 
HETATM   22  C12 UNL     1      24.532   0.700  52.404  1.00  0.00    -0.034 A 
HETATM   23  C13 UNL     1      25.641  -0.109  52.774  1.00  0.00     0.050 A 
HETATM   24  C15 UNL     1      25.497   1.613  52.032  1.00  0.00     0.136 A 
HETATM   25  S1  UNL     1      27.202   0.900  52.374  1.00  0.00    -0.133 SA
HETATM   26  C14 UNL     1      26.403   2.466  51.687  1.00  0.00     0.058 A 
HETATM   27  N6  UNL     1      26.115   3.758  51.129  1.00  0.00    -0.362 N 
HETATM   28  H16 UNL     1      27.114   3.886  51.341  1.00  0.00     0.162 HD
ENDBRANCH  14  16
ENDBRANCH  10  14
BRANCH   5  29
HETATM   29  O2  UNL     1      28.312  10.633  49.938  1.00  0.00    -0.270 OA
HETATM   30  H4  UNL     1      28.928  10.747  50.692  1.00  0.00     0.241 HD
ENDBRANCH   5  29
TORSDOF 3
ENDMDL
MODEL 5
REMARK VINA RESULT:      -7.9      2.186      2.572
REMARK  3 active torsions:
REMARK  status: ('A' for Active; 'I' for Inactive)
REMARK    1  A    between atoms: N2_5  and  O2_6 
REMARK    2  A    between atoms: C6_11  and  N4_12 
REMARK    3  A    between atoms: N4_12  and  C7_13 
ROOT
HETATM    1  N1  UNL     1      27.024   1.192  54.190  1.00  0.00    -0.022 N 
HETATM    2  C1  UNL     1      25.885   1.738  53.511  1.00  0.00     0.266 A 
HETATM    3  C2  UNL     1      26.920   2.496  53.776  1.00  0.00     0.395 A 
HETATM    4  O1  UNL     1      28.200   2.775  54.286  1.00  0.00    -0.223 OA
HETATM    5  N2  UNL     1      29.067   1.734  54.656  1.00  0.00     0.037 NA
HETATM    6  N3  UNL     1      29.342   0.976  53.522  1.00  0.00    -0.283 N 
HETATM    7  C3  UNL     1      28.844  -0.356  53.256  1.00  0.00     0.106 C 
HETATM    8  C4  UNL     1      27.617  -0.826  53.104  1.00  0.00     0.020 C 
HETATM    9  C5  UNL     1      26.160  -0.793  53.029  1.00  0.00     0.029 C 
HETATM   10  C6  UNL     1      25.412   0.341  53.202  1.00  0.00     0.051 C 
HETATM   11  H1  UNL     1      27.038   0.626  55.141  1.00  0.00     0.282 HD
HETATM   12  H2  UNL     1      27.047   0.632  55.128  1.00  0.00     0.282 HD
HETATM   13  H5  UNL     1      29.963   1.492  52.866  1.00  0.00     0.184 HD
ENDROOT
BRANCH  10  14
HETATM   14  N4  UNL     1      24.124   0.730  53.213  1.00  0.00    -0.366 N 
HETATM   15  H9  UNL     1      23.761   0.606  54.209  1.00  0.00     0.161 HD
BRANCH  14  16
HETATM   16  C7  UNL     1      23.415   1.232  52.017  1.00  0.00     0.208 C 
HETATM   17  C8  UNL     1      22.245   1.781  52.636  1.00  0.00     0.052 C 
HETATM   18  C9  UNL     1      21.209   0.970  52.756  1.00  0.00     0.080 C 
HETATM   19  N5  UNL     1      21.249   0.061  51.856  1.00  0.00    -0.276 NA
HETATM   20  C10 UNL     1      21.309   0.488  50.507  1.00  0.00     0.160 C 
HETATM   21  C11 UNL     1      21.254   0.720  49.210  1.00  0.00     0.012 C 
HETATM   22  C12 UNL     1      21.978   1.967  48.854  1.00  0.00    -0.034 A 
HETATM   23  C13 UNL     1      22.243   3.113  48.054  1.00  0.00     0.050 A 
HETATM   24  C15 UNL     1      22.987   2.462  49.654  1.00  0.00     0.136 A 
HETATM   25  S1  UNL     1      23.650   4.058  48.915  1.00  0.00    -0.133 SA
HETATM   26  C14 UNL     1      23.933   2.927  50.400  1.00  0.00     0.058 A 
HETATM   27  N6  UNL     1      24.386   2.293  51.607  1.00  0.00    -0.362 N 
HETATM   28  H16 UNL     1      25.149   2.971  51.478  1.00  0.00     0.162 HD
ENDBRANCH  14  16
ENDBRANCH  10  14
BRANCH   5  29
HETATM   29  O2  UNL     1      30.183   2.344  55.077  1.00  0.00    -0.270 OA
HETATM   30  H4  UNL     1      30.116   2.730  55.977  1.00  0.00     0.241 HD
ENDBRANCH   5  29
TORSDOF 3
ENDMDL
MODEL 6
REMARK VINA RESULT:      -7.8      1.724      2.392
REMARK  3 active torsions:
REMARK  status: ('A' for Active; 'I' for Inactive)
REMARK    1  A    between atoms: N2_5  and  O2_6 
REMARK    2  A    between atoms: C6_11  and  N4_12 
REMARK    3  A    between atoms: N4_12  and  C7_13 
ROOT
HETATM    1  N1  UNL     1      26.304   1.362  53.923  1.00  0.00    -0.022 N 
HETATM    2  C1  UNL     1      26.163   2.489  53.048  1.00  0.00     0.266 A 
HETATM    3  C2  UNL     1      27.346   1.972  53.273  1.00  0.00     0.395 A 
HETATM    4  O1  UNL     1      28.254   1.066  53.847  1.00  0.00    -0.223 OA
HETATM    5  N2  UNL     1      27.799  -0.101  54.481  1.00  0.00     0.037 NA
HETATM    6  N3  UNL     1      27.140  -0.878  53.536  1.00  0.00    -0.283 N 
HETATM    7  C3  UNL     1      25.710  -1.092  53.467  1.00  0.00     0.106 C 
HETATM    8  C4  UNL     1      24.700  -0.258  53.283  1.00  0.00     0.020 C 
HETATM    9  C5  UNL     1      24.029   1.019  53.061  1.00  0.00     0.029 C 
HETATM   10  C6  UNL     1      24.684   2.217  52.952  1.00  0.00     0.051 C 
HETATM   11  H1  UNL     1      25.925   1.255  54.958  1.00  0.00     0.282 HD
HETATM   12  H2  UNL     1      25.933   1.249  54.945  1.00  0.00     0.282 HD
HETATM   13  H5  UNL     1      27.810  -1.300  52.862  1.00  0.00     0.184 HD
ENDROOT
BRANCH  10  14
HETATM   14  N4  UNL     1      24.414   3.521  52.767  1.00  0.00    -0.366 N 
HETATM   15  H9  UNL     1      24.717   4.040  53.648  1.00  0.00     0.161 HD
BRANCH  14  16
HETATM   16  C7  UNL     1      23.808   4.060  51.530  1.00  0.00     0.208 C 
HETATM   17  C8  UNL     1      22.662   4.718  52.083  1.00  0.00     0.052 C 
HETATM   18  C9  UNL     1      21.555   4.001  52.164  1.00  0.00     0.080 C 
HETATM   19  N5  UNL     1      21.560   3.075  51.280  1.00  0.00    -0.276 NA
HETATM   20  C10 UNL     1      21.720   3.471  49.930  1.00  0.00     0.160 C 
HETATM   21  C11 UNL     1      21.748   3.682  48.629  1.00  0.00     0.012 C 
HETATM   22  C12 UNL     1      22.592   4.856  48.290  1.00  0.00    -0.034 A 
HETATM   23  C13 UNL     1      22.992   5.960  47.488  1.00  0.00     0.050 A 
HETATM   24  C15 UNL     1      23.601   5.278  49.132  1.00  0.00     0.136 A 
HETATM   25  S1  UNL     1      24.433   6.797  48.403  1.00  0.00    -0.133 SA
HETATM   26  C14 UNL     1      24.547   5.674  49.916  1.00  0.00     0.058 A 
HETATM   27  N6  UNL     1      24.886   5.026  51.153  1.00  0.00    -0.362 N 
HETATM   28  H16 UNL     1      25.710   5.634  51.052  1.00  0.00     0.162 HD
ENDBRANCH  14  16
ENDBRANCH  10  14
BRANCH   5  29
HETATM   29  O2  UNL     1      28.909  -0.728  54.893  1.00  0.00    -0.270 OA
HETATM   30  H4  UNL     1      28.823  -1.166  55.767  1.00  0.00     0.241 HD
ENDBRANCH   5  29
TORSDOF 3
ENDMDL
MODEL 7
REMARK VINA RESULT:      -7.6      5.069      6.995
REMARK  3 active torsions:
REMARK  status: ('A' for Active; 'I' for Inactive)
REMARK    1  A    between atoms: N2_5  and  O2_6 
REMARK    2  A    between atoms: C6_11  and  N4_12 
REMARK    3  A    between atoms: N4_12  and  C7_13 
ROOT
HETATM    1  N1  UNL     1      26.790   7.819  50.117  1.00  0.00    -0.022 N 
HETATM    2  C1  UNL     1      25.356   7.815  50.103  1.00  0.00     0.266 A 
HETATM    3  C2  UNL     1      26.013   8.947  50.045  1.00  0.00     0.395 A 
HETATM    4  O1  UNL     1      27.163   9.755  50.008  1.00  0.00    -0.223 OA
HETATM    5  N2  UNL     1      28.427   9.192  49.768  1.00  0.00     0.037 NA
HETATM    6  N3  UNL     1      28.411   8.615  48.503  1.00  0.00    -0.283 N 
HETATM    7  C3  UNL     1      28.404   7.196  48.222  1.00  0.00     0.106 C 
HETATM    8  C4  UNL     1      27.536   6.242  48.517  1.00  0.00     0.020 C 
HETATM    9  C5  UNL     1      26.327   5.644  49.074  1.00  0.00     0.029 C 
HETATM   10  C6  UNL     1      25.374   6.347  49.761  1.00  0.00     0.051 C 
HETATM   11  H1  UNL     1      27.462   7.324  50.844  1.00  0.00     0.282 HD
HETATM   12  H2  UNL     1      27.461   7.333  50.831  1.00  0.00     0.282 HD
HETATM   13  H5  UNL     1      28.402   9.341  47.758  1.00  0.00     0.184 HD
ENDROOT
BRANCH  10  14
HETATM   14  N4  UNL     1      24.203   6.144  50.392  1.00  0.00    -0.366 N 
HETATM   15  H9  UNL     1      23.908   7.072  50.827  1.00  0.00     0.161 HD
BRANCH  14  16
HETATM   16  C7  UNL     1      23.512   4.837  50.424  1.00  0.00     0.208 C 
HETATM   17  C8  UNL     1      22.654   5.040  51.553  1.00  0.00     0.052 C 
HETATM   18  C9  UNL     1      23.133   4.674  52.728  1.00  0.00     0.080 C 
HETATM   19  N5  UNL     1      24.011   3.753  52.584  1.00  0.00    -0.276 NA
HETATM   20  C10 UNL     1      23.611   2.581  51.897  1.00  0.00     0.160 C 
HETATM   21  C11 UNL     1      23.367   1.392  51.382  1.00  0.00     0.012 C 
HETATM   22  C12 UNL     1      22.378   1.475  50.277  1.00  0.00    -0.034 A 
HETATM   23  C13 UNL     1      21.353   0.968  49.433  1.00  0.00     0.050 A 
HETATM   24  C15 UNL     1      22.199   2.643  49.564  1.00  0.00     0.136 A 
HETATM   25  S1  UNL     1      20.857   2.391  48.273  1.00  0.00    -0.133 SA
HETATM   26  C14 UNL     1      22.029   3.734  48.895  1.00  0.00     0.058 A 
HETATM   27  N6  UNL     1      22.773   4.940  49.128  1.00  0.00    -0.362 N 
HETATM   28  H16 UNL     1      22.342   5.182  48.225  1.00  0.00     0.162 HD
ENDBRANCH  14  16
ENDBRANCH  10  14
BRANCH   5  29
HETATM   29  O2  UNL     1      29.277  10.227  49.786  1.00  0.00    -0.270 OA
HETATM   30  H4  UNL     1      30.216   9.980  49.647  1.00  0.00     0.241 HD
ENDBRANCH   5  29
TORSDOF 3
ENDMDL
MODEL 8
REMARK VINA RESULT:      -7.4      2.594      3.983
REMARK  3 active torsions:
REMARK  status: ('A' for Active; 'I' for Inactive)
REMARK    1  A    between atoms: N2_5  and  O2_6 
REMARK    2  A    between atoms: C6_11  and  N4_12 
REMARK    3  A    between atoms: N4_12  and  C7_13 
ROOT
HETATM    1  N1  UNL     1      24.389   0.129  54.192  1.00  0.00    -0.022 N 
HETATM    2  C1  UNL     1      24.780   0.196  52.814  1.00  0.00     0.266 A 
HETATM    3  C2  UNL     1      25.515  -0.460  53.677  1.00  0.00     0.395 A 
HETATM    4  O1  UNL     1      25.851  -0.961  54.947  1.00  0.00    -0.223 OA
HETATM    5  N2  UNL     1      24.913  -0.952  55.992  1.00  0.00     0.037 NA
HETATM    6  N3  UNL     1      23.839  -1.751  55.616  1.00  0.00    -0.283 N 
HETATM    7  C3  UNL     1      22.522  -1.277  55.250  1.00  0.00     0.106 C 
HETATM    8  C4  UNL     1      22.106  -0.495  54.267  1.00  0.00     0.020 C 
HETATM    9  C5  UNL     1      22.208   0.352  53.083  1.00  0.00     0.029 C 
HETATM   10  C6  UNL     1      23.387   0.641  52.450  1.00  0.00     0.051 C 
HETATM   11  H1  UNL     1      24.129   0.969  54.864  1.00  0.00     0.282 HD
HETATM   12  H2  UNL     1      24.131   0.953  54.862  1.00  0.00     0.282 HD
HETATM   13  H5  UNL     1      24.097  -2.759  55.626  1.00  0.00     0.184 HD
ENDROOT
BRANCH  10  14
HETATM   14  N4  UNL     1      23.843   1.349  51.401  1.00  0.00    -0.366 N 
HETATM   15  H9  UNL     1      24.826   0.999  51.181  1.00  0.00     0.161 HD
BRANCH  14  16
HETATM   16  C7  UNL     1      23.057   2.406  50.729  1.00  0.00     0.208 C 
HETATM   17  C8  UNL     1      24.116   3.146  50.111  1.00  0.00     0.052 C 
HETATM   18  C9  UNL     1      24.622   4.144  50.812  1.00  0.00     0.080 C 
HETATM   19  N5  UNL     1      23.756   4.589  51.643  1.00  0.00    -0.276 NA
HETATM   20  C10 UNL     1      22.514   5.018  51.115  1.00  0.00     0.160 C 
HETATM   21  C11 UNL     1      21.360   5.557  50.773  1.00  0.00     0.012 C 
HETATM   22  C12 UNL     1      20.780   4.879  49.586  1.00  0.00    -0.034 A 
HETATM   23  C13 UNL     1      19.978   4.808  48.414  1.00  0.00     0.050 A 
HETATM   24  C15 UNL     1      21.113   3.578  49.270  1.00  0.00     0.136 A 
HETATM   25  S1  UNL     1      20.219   3.063  47.700  1.00  0.00    -0.133 SA
HETATM   26  C14 UNL     1      21.423   2.360  48.973  1.00  0.00     0.058 A 
HETATM   27  N6  UNL     1      22.319   1.549  49.749  1.00  0.00    -0.362 N 
HETATM   28  H16 UNL     1      21.912   0.820  49.149  1.00  0.00     0.162 HD
ENDBRANCH  14  16
ENDBRANCH  10  14
BRANCH   5  29
HETATM   29  O2  UNL     1      25.549  -1.505  57.034  1.00  0.00    -0.270 OA
HETATM   30  H4  UNL     1      25.301  -1.125  57.904  1.00  0.00     0.241 HD
ENDBRANCH   5  29
TORSDOF 3
ENDMDL
MODEL 9
REMARK VINA RESULT:      -7.4      3.130      4.353
REMARK  3 active torsions:
REMARK  status: ('A' for Active; 'I' for Inactive)
REMARK    1  A    between atoms: N2_5  and  O2_6 
REMARK    2  A    between atoms: C6_11  and  N4_12 
REMARK    3  A    between atoms: N4_12  and  C7_13 
ROOT
HETATM    1  N1  UNL     1      25.052   0.069  53.210  1.00  0.00    -0.022 N 
HETATM    2  C1  UNL     1      23.675  -0.316  53.321  1.00  0.00     0.266 A 
HETATM    3  C2  UNL     1      24.567  -0.812  54.143  1.00  0.00     0.395 A 
HETATM    4  O1  UNL     1      25.856  -0.979  54.676  1.00  0.00    -0.223 OA
HETATM    5  N2  UNL     1      26.894  -0.098  54.334  1.00  0.00     0.037 NA
HETATM    6  N3  UNL     1      26.541   1.176  54.766  1.00  0.00    -0.283 N 
HETATM    7  C3  UNL     1      26.150   2.278  53.915  1.00  0.00     0.106 C 
HETATM    8  C4  UNL     1      25.135   2.431  53.079  1.00  0.00     0.020 C 
HETATM    9  C5  UNL     1      23.921   2.074  52.353  1.00  0.00     0.029 C 
HETATM   10  C6  UNL     1      23.286   0.868  52.474  1.00  0.00     0.051 C 
HETATM   11  H1  UNL     1      25.691   0.047  52.306  1.00  0.00     0.282 HD
HETATM   12  H2  UNL     1      25.689   0.050  52.322  1.00  0.00     0.282 HD
HETATM   13  H5  UNL     1      26.590   1.248  55.803  1.00  0.00     0.184 HD
ENDROOT
BRANCH  10  14
HETATM   14  N4  UNL     1      22.215   0.217  51.985  1.00  0.00    -0.366 N 
HETATM   15  H9  UNL     1      22.408  -0.828  52.070  1.00  0.00     0.161 HD
BRANCH  14  16
HETATM   16  C7  UNL     1      21.021   0.905  51.447  1.00  0.00     0.208 C 
HETATM   17  C8  UNL     1      21.121   0.530  50.068  1.00  0.00     0.052 C 
HETATM   18  C9  UNL     1      21.793   1.352  49.283  1.00  0.00     0.080 C 
HETATM   19  N5  UNL     1      21.767   2.541  49.758  1.00  0.00    -0.276 NA
HETATM   20  C10 UNL     1      20.495   3.115  49.996  1.00  0.00     0.160 C 
HETATM   21  C11 UNL     1      19.398   3.826  50.167  1.00  0.00     0.012 C 
HETATM   22  C12 UNL     1      18.261   2.971  50.594  1.00  0.00    -0.034 A 
HETATM   23  C13 UNL     1      16.886   2.632  50.715  1.00  0.00     0.050 A 
HETATM   24  C15 UNL     1      18.474   1.768  51.237  1.00  0.00     0.136 A 
HETATM   25  S1  UNL     1      16.821   0.949  51.599  1.00  0.00    -0.133 SA
HETATM   26  C14 UNL     1      18.668   0.643  51.840  1.00  0.00     0.058 A 
HETATM   27  N6  UNL     1      19.967   0.126  52.169  1.00  0.00    -0.362 N 
HETATM   28  H16 UNL     1      19.387  -0.508  52.734  1.00  0.00     0.162 HD
ENDBRANCH  14  16
ENDBRANCH  10  14
BRANCH   5  29
HETATM   29  O2  UNL     1      27.960  -0.533  55.019  1.00  0.00    -0.270 OA
HETATM   30  H4  UNL     1      28.274  -1.423  54.753  1.00  0.00     0.241 HD
ENDBRANCH   5  29
TORSDOF 3
ENDMDL
