MODEL 1
REMARK VINA RESULT:      -6.7      0.000      0.000
REMARK  5 active torsions:
REMARK  status: ('A' for Active; 'I' for Inactive)
REMARK    1  A    between atoms: C2_2  and  C3_3 
REMARK    2  A    between atoms: C3_3  and  C4_4 
REMARK    3  A    between atoms: C4_4  and  N1_6 
REMARK    4  A    between atoms: N1_6  and  C6_7 
REMARK    5  A    between atoms: N4_15  and  C12_16 
ROOT
HETATM    1  C6  UNL     1      20.963   0.267  51.941  1.00  0.00     0.251 C 
HETATM    2  C7  UNL     1      22.128   0.854  51.211  1.00  0.00     0.067 C 
HETATM    3  C8  UNL     1      21.926   2.116  51.519  1.00  0.00     0.238 A 
HETATM    4  N2  UNL     1      20.844   2.848  51.963  1.00  0.00     0.113 N 
HETATM    5  C9  UNL     1      19.781   2.514  52.189  1.00  0.00     0.295 A 
HETATM    6  C10 UNL     1      19.712   1.069  51.905  1.00  0.00     0.104 C 
HETATM    7  N3  UNL     1      20.369   3.796  52.292  1.00  0.00    -0.035 NA
HETATM    8  C11 UNL     1      21.538   4.272  52.064  1.00  0.00     0.436 A 
HETATM    9  N4  UNL     1      22.609   3.410  51.593  1.00  0.00    -0.281 N 
ENDROOT
BRANCH   1  10
HETATM   10  N1  UNL     1      21.400   0.066  53.308  1.00  0.00     0.097 N 
HETATM   11  H8  UNL     1      20.557  -0.154  53.885  1.00  0.00     0.317 HD
BRANCH  10  12
HETATM   12  C4  UNL     1      22.389  -0.957  53.468  1.00  0.00     0.233 C 
HETATM   13  C5  UNL     1      21.802  -1.946  54.470  1.00  0.00     0.044 C 
BRANCH  12  14
HETATM   14  C3  UNL     1      23.630  -0.405  54.040  1.00  0.00     0.101 C 
BRANCH  14  15
HETATM   15  C2  UNL     1      24.792  -0.621  53.441  1.00  0.00    -0.174 C 
HETATM   16  C1  UNL     1      25.867  -1.107  52.846  1.00  0.00     0.091 C 
ENDBRANCH  14  15
ENDBRANCH  12  14
ENDBRANCH  10  12
ENDBRANCH   1  10
BRANCH   9  17
HETATM   17  C12 UNL     1      23.984   3.249  51.178  1.00  0.00     0.040 A 
HETATM   18  C13 UNL     1      24.327   3.518  49.848  1.00  0.00     0.030 A 
HETATM   19  C14 UNL     1      25.605   3.361  49.426  1.00  0.00     0.004 A 
HETATM   20  C15 UNL     1      26.479   2.932  50.399  1.00  0.00     0.019 A 
HETATM   21  C16 UNL     1      26.230   2.649  51.708  1.00  0.00     0.013 A 
HETATM   22 BR1  UNL     1      27.595   2.062  52.905  1.00  0.00    -0.051 Br
HETATM   23  C17 UNL     1      24.927   2.814  52.121  1.00  0.00     0.049 A 
ENDBRANCH   9  17
TORSDOF 5
ENDMDL
MODEL 2
REMARK VINA RESULT:      -6.7      2.182      4.789
REMARK  5 active torsions:
REMARK  status: ('A' for Active; 'I' for Inactive)
REMARK    1  A    between atoms: C2_2  and  C3_3 
REMARK    2  A    between atoms: C3_3  and  C4_4 
REMARK    3  A    between atoms: C4_4  and  N1_6 
REMARK    4  A    between atoms: N1_6  and  C6_7 
REMARK    5  A    between atoms: N4_15  and  C12_16 
ROOT
HETATM    1  C6  UNL     1      24.111   3.755  49.213  1.00  0.00     0.251 C 
HETATM    2  C7  UNL     1      24.795   2.909  50.237  1.00  0.00     0.067 C 
HETATM    3  C8  UNL     1      24.390   3.548  51.311  1.00  0.00     0.238 A 
HETATM    4  N2  UNL     1      23.888   4.809  51.561  1.00  0.00     0.113 N 
HETATM    5  C9  UNL     1      23.686   5.669  50.845  1.00  0.00     0.295 A 
HETATM    6  C10 UNL     1      24.082   5.214  49.500  1.00  0.00     0.104 C 
HETATM    7  N3  UNL     1      23.485   5.587  52.243  1.00  0.00    -0.035 NA
HETATM    8  C11 UNL     1      23.677   4.681  53.129  1.00  0.00     0.436 A 
HETATM    9  N4  UNL     1      24.216   3.383  52.757  1.00  0.00    -0.281 N 
ENDROOT
BRANCH   1  10
HETATM   10  N1  UNL     1      22.765   3.234  49.089  1.00  0.00     0.097 N 
HETATM   11  H8  UNL     1      22.113   4.046  48.998  1.00  0.00     0.317 HD
BRANCH  10  12
HETATM   12  C4  UNL     1      22.580   2.328  47.996  1.00  0.00     0.233 C 
HETATM   13  C5  UNL     1      21.964   3.156  46.872  1.00  0.00     0.044 C 
BRANCH  12  14
HETATM   14  C3  UNL     1      21.630   1.259  48.352  1.00  0.00     0.101 C 
BRANCH  14  15
HETATM   15  C2  UNL     1      21.453   0.923  49.622  1.00  0.00    -0.174 C 
HETATM   16  C1  UNL     1      21.030   0.486  50.794  1.00  0.00     0.091 C 
ENDBRANCH  14  15
ENDBRANCH  12  14
ENDBRANCH  10  12
ENDBRANCH   1  10
BRANCH   9  17
HETATM   17  C12 UNL     1      24.645   2.058  53.142  1.00  0.00     0.040 A 
HETATM   18  C13 UNL     1      23.736   0.997  53.048  1.00  0.00     0.030 A 
HETATM   19  C14 UNL     1      24.104  -0.253  53.417  1.00  0.00     0.004 A 
HETATM   20  C15 UNL     1      25.400  -0.357  53.869  1.00  0.00     0.019 A 
HETATM   21  C16 UNL     1      26.344   0.617  53.991  1.00  0.00     0.013 A 
HETATM   22 BR1  UNL     1      28.101   0.262  54.646  1.00  0.00    -0.051 Br
HETATM   23  C17 UNL     1      25.955   1.883  53.613  1.00  0.00     0.049 A 
ENDBRANCH   9  17
TORSDOF 5
ENDMDL
MODEL 3
REMARK VINA RESULT:      -6.7      2.861      6.452
REMARK  5 active torsions:
REMARK  status: ('A' for Active; 'I' for Inactive)
REMARK    1  A    between atoms: C2_2  and  C3_3 
REMARK    2  A    between atoms: C3_3  and  C4_4 
REMARK    3  A    between atoms: C4_4  and  N1_6 
REMARK    4  A    between atoms: N1_6  and  C6_7 
REMARK    5  A    between atoms: N4_15  and  C12_16 
ROOT
HETATM    1  C6  UNL     1      26.122   1.185  51.762  1.00  0.00     0.251 C 
HETATM    2  C7  UNL     1      24.830   0.463  51.971  1.00  0.00     0.067 C 
HETATM    3  C8  UNL     1      25.028   0.076  53.211  1.00  0.00     0.238 A 
HETATM    4  N2  UNL     1      26.138  -0.078  54.016  1.00  0.00     0.113 N 
HETATM    5  C9  UNL     1      27.237   0.106  53.787  1.00  0.00     0.295 A 
HETATM    6  C10 UNL     1      27.317   0.557  52.386  1.00  0.00     0.104 C 
HETATM    7  N3  UNL     1      26.622  -0.337  54.981  1.00  0.00    -0.035 NA
HETATM    8  C11 UNL     1      25.413  -0.573  55.338  1.00  0.00     0.436 A 
HETATM    9  N4  UNL     1      24.314  -0.381  54.407  1.00  0.00    -0.281 N 
ENDROOT
BRANCH   1  10
HETATM   10  N1  UNL     1      25.925   2.525  52.274  1.00  0.00     0.097 N 
HETATM   11  H8  UNL     1      26.754   2.768  52.863  1.00  0.00     0.317 HD
BRANCH  10  12
HETATM   12  C4  UNL     1      25.727   3.521  51.265  1.00  0.00     0.233 C 
HETATM   13  C5  UNL     1      24.224   3.553  51.005  1.00  0.00     0.044 C 
BRANCH  12  14
HETATM   14  C3  UNL     1      26.401   3.140  50.010  1.00  0.00     0.101 C 
BRANCH  14  15
HETATM   15  C2  UNL     1      26.930   4.073  49.231  1.00  0.00    -0.174 C 
HETATM   16  C1  UNL     1      27.696   4.939  48.591  1.00  0.00     0.091 C 
ENDBRANCH  14  15
ENDBRANCH  12  14
ENDBRANCH  10  12
ENDBRANCH   1  10
BRANCH   9  17
HETATM   17  C12 UNL     1      22.898  -0.432  54.127  1.00  0.00     0.040 A 
HETATM   18  C13 UNL     1      22.174  -1.571  54.498  1.00  0.00     0.030 A 
HETATM   19  C14 UNL     1      20.848  -1.655  54.235  1.00  0.00     0.004 A 
HETATM   20  C15 UNL     1      20.322  -0.555  53.597  1.00  0.00     0.019 A 
HETATM   21  C16 UNL     1      20.950   0.587  53.203  1.00  0.00     0.013 A 
HETATM   22 BR1  UNL     1      20.031   2.010  52.325  1.00  0.00    -0.051 Br
HETATM   23  C17 UNL     1      22.298   0.657  53.478  1.00  0.00     0.049 A 
ENDBRANCH   9  17
TORSDOF 5
ENDMDL
MODEL 4
REMARK VINA RESULT:      -6.6      1.527      2.186
REMARK  5 active torsions:
REMARK  status: ('A' for Active; 'I' for Inactive)
REMARK    1  A    between atoms: C2_2  and  C3_3 
REMARK    2  A    between atoms: C3_3  and  C4_4 
REMARK    3  A    between atoms: C4_4  and  N1_6 
REMARK    4  A    between atoms: N1_6  and  C6_7 
REMARK    5  A    between atoms: N4_15  and  C12_16 
ROOT
HETATM    1  C6  UNL     1      20.623   1.664  51.348  1.00  0.00     0.251 C 
HETATM    2  C7  UNL     1      22.104   1.594  51.155  1.00  0.00     0.067 C 
HETATM    3  C8  UNL     1      22.401   2.818  51.529  1.00  0.00     0.238 A 
HETATM    4  N2  UNL     1      21.693   3.995  51.654  1.00  0.00     0.113 N 
HETATM    5  C9  UNL     1      20.595   4.213  51.448  1.00  0.00     0.295 A 
HETATM    6  C10 UNL     1      19.987   2.955  50.977  1.00  0.00     0.104 C 
HETATM    7  N3  UNL     1      21.618   5.072  51.913  1.00  0.00    -0.035 NA
HETATM    8  C11 UNL     1      22.865   4.931  52.172  1.00  0.00     0.436 A 
HETATM    9  N4  UNL     1      23.516   3.642  52.002  1.00  0.00    -0.281 N 
ENDROOT
BRANCH   1  10
HETATM   10  N1  UNL     1      20.381   1.360  52.744  1.00  0.00     0.097 N 
HETATM   11  H8  UNL     1      19.463   1.781  53.009  1.00  0.00     0.317 HD
BRANCH  10  12
HETATM   12  C4  UNL     1      20.392  -0.037  53.055  1.00  0.00     0.233 C 
HETATM   13  C5  UNL     1      18.957  -0.516  52.861  1.00  0.00     0.044 C 
BRANCH  12  14
HETATM   14  C3  UNL     1      20.764  -0.260  54.464  1.00  0.00     0.101 C 
BRANCH  14  15
HETATM   15  C2  UNL     1      21.942  -0.787  54.766  1.00  0.00    -0.174 C 
HETATM   16  C1  UNL     1      23.009  -1.324  55.329  1.00  0.00     0.091 C 
ENDBRANCH  14  15
ENDBRANCH  12  14
ENDBRANCH  10  12
ENDBRANCH   1  10
BRANCH   9  17
HETATM   17  C12 UNL     1      24.710   2.832  52.080  1.00  0.00     0.040 A 
HETATM   18  C13 UNL     1      25.581   2.801  50.985  1.00  0.00     0.030 A 
HETATM   19  C14 UNL     1      26.700   2.038  51.023  1.00  0.00     0.004 A 
HETATM   20  C15 UNL     1      26.874   1.338  52.195  1.00  0.00     0.019 A 
HETATM   21  C16 UNL     1      26.081   1.311  53.302  1.00  0.00     0.013 A 
HETATM   22 BR1  UNL     1      26.505   0.263  54.839  1.00  0.00    -0.051 Br
HETATM   23  C17 UNL     1      24.947   2.091  53.248  1.00  0.00     0.049 A 
ENDBRANCH   9  17
TORSDOF 5
ENDMDL
MODEL 5
REMARK VINA RESULT:      -6.6      3.266      4.771
REMARK  5 active torsions:
REMARK  status: ('A' for Active; 'I' for Inactive)
REMARK    1  A    between atoms: C2_2  and  C3_3 
REMARK    2  A    between atoms: C3_3  and  C4_4 
REMARK    3  A    between atoms: C4_4  and  N1_6 
REMARK    4  A    between atoms: N1_6  and  C6_7 
REMARK    5  A    between atoms: N4_15  and  C12_16 
ROOT
HETATM    1  C6  UNL     1      26.030   1.755  51.774  1.00  0.00     0.251 C 
HETATM    2  C7  UNL     1      26.474   2.644  50.657  1.00  0.00     0.067 C 
HETATM    3  C8  UNL     1      25.427   3.436  50.620  1.00  0.00     0.238 A 
HETATM    4  N2  UNL     1      24.124   3.349  51.066  1.00  0.00     0.113 N 
HETATM    5  C9  UNL     1      23.597   2.506  51.619  1.00  0.00     0.295 A 
HETATM    6  C10 UNL     1      24.582   1.422  51.794  1.00  0.00     0.104 C 
HETATM    7  N3  UNL     1      23.104   3.764  51.203  1.00  0.00    -0.035 NA
HETATM    8  C11 UNL     1      23.605   4.769  50.584  1.00  0.00     0.436 A 
HETATM    9  N4  UNL     1      24.993   4.756  50.153  1.00  0.00    -0.281 N 
ENDROOT
BRANCH   1  10
HETATM   10  N1  UNL     1      26.416   2.422  53.001  1.00  0.00     0.097 N 
HETATM   11  H8  UNL     1      25.550   2.587  53.562  1.00  0.00     0.317 HD
BRANCH  10  12
HETATM   12  C4  UNL     1      27.382   1.711  53.782  1.00  0.00     0.233 C 
HETATM   13  C5  UNL     1      28.683   2.497  53.648  1.00  0.00     0.044 C 
BRANCH  12  14
HETATM   14  C3  UNL     1      27.606   0.359  53.239  1.00  0.00     0.101 C 
BRANCH  14  15
HETATM   15  C2  UNL     1      28.721  -0.298  53.528  1.00  0.00    -0.174 C 
HETATM   16  C1  UNL     1      29.762  -1.108  53.591  1.00  0.00     0.091 C 
ENDBRANCH  14  15
ENDBRANCH  12  14
ENDBRANCH  10  12
ENDBRANCH   1  10
BRANCH   9  17
HETATM   17  C12 UNL     1      26.098   5.419  49.499  1.00  0.00     0.040 A 
HETATM   18  C13 UNL     1      27.127   4.643  48.951  1.00  0.00     0.030 A 
HETATM   19  C14 UNL     1      28.184   5.237  48.347  1.00  0.00     0.004 A 
HETATM   20  C15 UNL     1      28.134   6.613  48.332  1.00  0.00     0.019 A 
HETATM   21  C16 UNL     1      27.178   7.440  48.838  1.00  0.00     0.013 A 
HETATM   22 BR1  UNL     1      27.299   9.340  48.714  1.00  0.00    -0.051 Br
HETATM   23  C17 UNL     1      26.111   6.821  49.450  1.00  0.00     0.049 A 
ENDBRANCH   9  17
TORSDOF 5
ENDMDL
MODEL 6
REMARK VINA RESULT:      -6.5      6.994      9.895
REMARK  5 active torsions:
REMARK  status: ('A' for Active; 'I' for Inactive)
REMARK    1  A    between atoms: C2_2  and  C3_3 
REMARK    2  A    between atoms: C3_3  and  C4_4 
REMARK    3  A    between atoms: C4_4  and  N1_6 
REMARK    4  A    between atoms: N1_6  and  C6_7 
REMARK    5  A    between atoms: N4_15  and  C12_16 
ROOT
HETATM    1  C6  UNL     1      28.292   7.699  48.004  1.00  0.00     0.251 C 
HETATM    2  C7  UNL     1      29.348   7.172  47.087  1.00  0.00     0.067 C 
HETATM    3  C8  UNL     1      30.400   7.501  47.803  1.00  0.00     0.238 A 
HETATM    4  N2  UNL     1      30.641   8.398  48.822  1.00  0.00     0.113 N 
HETATM    5  C9  UNL     1      29.934   9.129  49.333  1.00  0.00     0.295 A 
HETATM    6  C10 UNL     1      28.617   8.978  48.689  1.00  0.00     0.104 C 
HETATM    7  N3  UNL     1      31.306   8.878  49.570  1.00  0.00    -0.035 NA
HETATM    8  C11 UNL     1      32.180   8.091  49.059  1.00  0.00     0.436 A 
HETATM    9  N4  UNL     1      31.819   7.184  47.981  1.00  0.00    -0.281 N 
ENDROOT
BRANCH   1  10
HETATM   10  N1  UNL     1      28.035   6.653  48.973  1.00  0.00     0.097 N 
HETATM   11  H8  UNL     1      27.865   7.108  49.898  1.00  0.00     0.317 HD
BRANCH  10  12
HETATM   12  C4  UNL     1      26.942   5.793  48.637  1.00  0.00     0.233 C 
HETATM   13  C5  UNL     1      25.812   6.167  49.592  1.00  0.00     0.044 C 
BRANCH  12  14
HETATM   14  C3  UNL     1      27.292   4.380  48.872  1.00  0.00     0.101 C 
BRANCH  14  15
HETATM   15  C2  UNL     1      26.664   3.687  49.811  1.00  0.00    -0.174 C 
HETATM   16  C1  UNL     1      26.172   2.776  50.631  1.00  0.00     0.091 C 
ENDBRANCH  14  15
ENDBRANCH  12  14
ENDBRANCH  10  12
ENDBRANCH   1  10
BRANCH   9  17
HETATM   17  C12 UNL     1      32.203   6.156  47.041  1.00  0.00     0.040 A 
HETATM   18  C13 UNL     1      32.551   6.525  45.737  1.00  0.00     0.030 A 
HETATM   19  C14 UNL     1      32.899   5.582  44.829  1.00  0.00     0.004 A 
HETATM   20  C15 UNL     1      32.873   4.292  45.308  1.00  0.00     0.019 A 
HETATM   21  C16 UNL     1      32.549   3.848  46.553  1.00  0.00     0.013 A 
HETATM   22 BR1  UNL     1      32.576   1.998  47.019  1.00  0.00    -0.051 Br
HETATM   23  C17 UNL     1      32.197   4.818  47.465  1.00  0.00     0.049 A 
ENDBRANCH   9  17
TORSDOF 5
ENDMDL
MODEL 7
REMARK VINA RESULT:      -6.5      2.938      5.436
REMARK  5 active torsions:
REMARK  status: ('A' for Active; 'I' for Inactive)
REMARK    1  A    between atoms: C2_2  and  C3_3 
REMARK    2  A    between atoms: C3_3  and  C4_4 
REMARK    3  A    between atoms: C4_4  and  N1_6 
REMARK    4  A    between atoms: N1_6  and  C6_7 
REMARK    5  A    between atoms: N4_15  and  C12_16 
ROOT
HETATM    1  C6  UNL     1      25.091   2.653  52.453  1.00  0.00     0.251 C 
HETATM    2  C7  UNL     1      23.858   2.013  53.004  1.00  0.00     0.067 C 
HETATM    3  C8  UNL     1      23.232   1.800  51.868  1.00  0.00     0.238 A 
HETATM    4  N2  UNL     1      23.330   2.316  50.593  1.00  0.00     0.113 N 
HETATM    5  C9  UNL     1      24.029   3.112  50.179  1.00  0.00     0.295 A 
HETATM    6  C10 UNL     1      24.880   3.563  51.296  1.00  0.00     0.104 C 
HETATM    7  N3  UNL     1      23.020   2.366  49.528  1.00  0.00    -0.035 NA
HETATM    8  C11 UNL     1      22.189   1.461  49.896  1.00  0.00     0.436 A 
HETATM    9  N4  UNL     1      22.167   0.990  51.271  1.00  0.00    -0.281 N 
ENDROOT
BRANCH   1  10
HETATM   10  N1  UNL     1      25.984   1.571  52.094  1.00  0.00     0.097 N 
HETATM   11  H8  UNL     1      26.590   1.902  51.309  1.00  0.00     0.317 HD
BRANCH  10  12
HETATM   12  C4  UNL     1      26.793   1.090  53.173  1.00  0.00     0.233 C 
HETATM   13  C5  UNL     1      27.932   2.095  53.317  1.00  0.00     0.044 C 
BRANCH  12  14
HETATM   14  C3  UNL     1      27.378  -0.223  52.847  1.00  0.00     0.101 C 
BRANCH  14  15
HETATM   15  C2  UNL     1      28.557  -0.569  53.346  1.00  0.00    -0.174 C 
HETATM   16  C1  UNL     1      29.781  -1.005  53.581  1.00  0.00     0.091 C 
ENDBRANCH  14  15
ENDBRANCH  12  14
ENDBRANCH  10  12
ENDBRANCH   1  10
BRANCH   9  17
HETATM   17  C12 UNL     1      21.600   0.126  52.280  1.00  0.00     0.040 A 
HETATM   18  C13 UNL     1      22.454  -0.493  53.201  1.00  0.00     0.030 A 
HETATM   19  C14 UNL     1      21.953  -1.322  54.148  1.00  0.00     0.004 A 
HETATM   20  C15 UNL     1      20.586  -1.477  54.105  1.00  0.00     0.019 A 
HETATM   21  C16 UNL     1      19.687  -0.916  53.249  1.00  0.00     0.013 A 
HETATM   22 BR1  UNL     1      17.814  -1.264  53.360  1.00  0.00    -0.051 Br
HETATM   23  C17 UNL     1      20.212  -0.077  52.292  1.00  0.00     0.049 A 
ENDBRANCH   9  17
TORSDOF 5
ENDMDL
MODEL 8
REMARK VINA RESULT:      -6.5      2.019      4.568
REMARK  5 active torsions:
REMARK  status: ('A' for Active; 'I' for Inactive)
REMARK    1  A    between atoms: C2_2  and  C3_3 
REMARK    2  A    between atoms: C3_3  and  C4_4 
REMARK    3  A    between atoms: C4_4  and  N1_6 
REMARK    4  A    between atoms: N1_6  and  C6_7 
REMARK    5  A    between atoms: N4_15  and  C12_16 
ROOT
HETATM    1  C6  UNL     1      22.725   2.741  51.798  1.00  0.00     0.251 C 
HETATM    2  C7  UNL     1      24.024   2.631  52.529  1.00  0.00     0.067 C 
HETATM    3  C8  UNL     1      23.888   1.401  52.970  1.00  0.00     0.238 A 
HETATM    4  N2  UNL     1      22.821   0.548  53.160  1.00  0.00     0.113 N 
HETATM    5  C9  UNL     1      21.712   0.712  52.966  1.00  0.00     0.295 A 
HETATM    6  C10 UNL     1      21.562   2.086  52.452  1.00  0.00     0.104 C 
HETATM    7  N3  UNL     1      22.386  -0.428  53.461  1.00  0.00    -0.035 NA
HETATM    8  C11 UNL     1      23.611  -0.712  53.714  1.00  0.00     0.436 A 
HETATM    9  N4  UNL     1      24.661   0.266  53.480  1.00  0.00    -0.281 N 
ENDROOT
BRANCH   1  10
HETATM   10  N1  UNL     1      22.951   2.181  50.481  1.00  0.00     0.097 N 
HETATM   11  H8  UNL     1      22.382   1.308  50.402  1.00  0.00     0.317 HD
BRANCH  10  12
HETATM   12  C4  UNL     1      22.647   3.069  49.400  1.00  0.00     0.233 C 
HETATM   13  C5  UNL     1      22.498   2.183  48.167  1.00  0.00     0.044 C 
BRANCH  12  14
HETATM   14  C3  UNL     1      23.759   4.006  49.160  1.00  0.00     0.101 C 
BRANCH  14  15
HETATM   15  C2  UNL     1      25.013   3.592  49.272  1.00  0.00    -0.174 C 
HETATM   16  C1  UNL     1      26.249   3.302  49.637  1.00  0.00     0.091 C 
ENDBRANCH  14  15
ENDBRANCH  12  14
ENDBRANCH  10  12
ENDBRANCH   1  10
BRANCH   9  17
HETATM   17  C12 UNL     1      26.062   0.619  53.520  1.00  0.00     0.040 A 
HETATM   18  C13 UNL     1      26.419   1.972  53.576  1.00  0.00     0.030 A 
HETATM   19  C14 UNL     1      27.723   2.335  53.598  1.00  0.00     0.004 A 
HETATM   20  C15 UNL     1      28.609   1.282  53.561  1.00  0.00     0.019 A 
HETATM   21  C16 UNL     1      28.349  -0.054  53.506  1.00  0.00     0.013 A 
HETATM   22 BR1  UNL     1      29.735  -1.365  53.462  1.00  0.00    -0.051 Br
HETATM   23  C17 UNL     1      27.018  -0.406  53.484  1.00  0.00     0.049 A 
ENDBRANCH   9  17
TORSDOF 5
ENDMDL
MODEL 9
REMARK VINA RESULT:      -6.5      1.796      5.355
REMARK  5 active torsions:
REMARK  status: ('A' for Active; 'I' for Inactive)
REMARK    1  A    between atoms: C2_2  and  C3_3 
REMARK    2  A    between atoms: C3_3  and  C4_4 
REMARK    3  A    between atoms: C4_4  and  N1_6 
REMARK    4  A    between atoms: N1_6  and  C6_7 
REMARK    5  A    between atoms: N4_15  and  C12_16 
ROOT
HETATM    1  C6  UNL     1      23.564   4.870  51.698  1.00  0.00     0.251 C 
HETATM    2  C7  UNL     1      23.434   3.720  52.644  1.00  0.00     0.067 C 
HETATM    3  C8  UNL     1      22.249   3.297  52.265  1.00  0.00     0.238 A 
HETATM    4  N2  UNL     1      21.191   3.856  51.578  1.00  0.00     0.113 N 
HETATM    5  C9  UNL     1      21.076   4.898  51.137  1.00  0.00     0.295 A 
HETATM    6  C10 UNL     1      22.316   5.635  51.441  1.00  0.00     0.104 C 
HETATM    7  N3  UNL     1      20.178   3.806  51.127  1.00  0.00    -0.035 NA
HETATM    8  C11 UNL     1      20.209   2.609  51.587  1.00  0.00     0.436 A 
HETATM    9  N4  UNL     1      21.376   2.121  52.303  1.00  0.00    -0.281 N 
ENDROOT
BRANCH   1  10
HETATM   10  N1  UNL     1      24.089   4.322  50.464  1.00  0.00     0.097 N 
HETATM   11  H8  UNL     1      23.306   4.280  49.773  1.00  0.00     0.317 HD
BRANCH  10  12
HETATM   12  C4  UNL     1      25.192   5.050  49.915  1.00  0.00     0.233 C 
HETATM   13  C5  UNL     1      24.630   5.817  48.722  1.00  0.00     0.044 C 
BRANCH  12  14
HETATM   14  C3  UNL     1      26.236   4.134  49.422  1.00  0.00     0.101 C 
BRANCH  14  15
HETATM   15  C2  UNL     1      27.368   4.618  48.931  1.00  0.00    -0.174 C 
HETATM   16  C1  UNL     1      28.332   5.312  48.355  1.00  0.00     0.091 C 
ENDBRANCH  14  15
ENDBRANCH  12  14
ENDBRANCH  10  12
ENDBRANCH   1  10
BRANCH   9  17
HETATM   17  C12 UNL     1      22.045   1.052  53.008  1.00  0.00     0.040 A 
HETATM   18  C13 UNL     1      21.345   0.348  53.995  1.00  0.00     0.030 A 
HETATM   19  C14 UNL     1      21.950  -0.649  54.684  1.00  0.00     0.004 A 
HETATM   20  C15 UNL     1      23.258  -0.879  54.323  1.00  0.00     0.019 A 
HETATM   21  C16 UNL     1      24.010  -0.246  53.380  1.00  0.00     0.013 A 
HETATM   22 BR1  UNL     1      25.824  -0.722  53.029  1.00  0.00    -0.051 Br
HETATM   23  C17 UNL     1      23.380   0.765  52.689  1.00  0.00     0.049 A 
ENDBRANCH   9  17
TORSDOF 5
ENDMDL
