MODEL 1
REMARK VINA RESULT:      -7.8      0.000      0.000
REMARK  6 active torsions:
REMARK  status: ('A' for Active; 'I' for Inactive)
REMARK    1  A    between atoms: C2_2  and  C3_3 
REMARK    2  A    between atoms: C3_3  and  N1_4 
REMARK    3  A    between atoms: N1_4  and  C4_5 
REMARK    4  A    between atoms: C4_5  and  C5_6 
REMARK    5  A    between atoms: C9_12  and  C10_13 
REMARK    6  A    between atoms: C10_13  and  C11_14 
ROOT
HETATM    1  C5  UNL     1      27.515  -0.711  53.282  1.00  0.00     0.089 A 
HETATM    2  N2  UNL     1      28.332  -1.766  53.232  1.00  0.00    -0.240 NA
HETATM    3  C6  UNL     1      29.657  -1.595  53.468  1.00  0.00     0.236 A 
HETATM    4  N3  UNL     1      30.096  -0.371  53.743  1.00  0.00    -0.222 NA
HETATM    5  C7  UNL     1      29.297   0.700  53.799  1.00  0.00     0.164 A 
HETATM    6  C8  UNL     1      27.959   0.559  53.566  1.00  0.00     0.074 A 
HETATM    7  C9  UNL     1      27.400   1.748  53.679  1.00  0.00     0.097 A 
HETATM    8  O1  UNL     1      28.349   2.742  53.996  1.00  0.00    -0.239 OA
HETATM    9  N4  UNL     1      29.545   2.072  54.070  1.00  0.00    -0.242 N 
HETATM   10  H16 UNL     1      30.509   2.427  54.281  1.00  0.00     0.196 HD
ENDROOT
BRANCH   7  11
HETATM   11  C10 UNL     1      26.018   2.162  53.534  1.00  0.00     0.107 C 
BRANCH  11  12
HETATM   12  C11 UNL     1      25.643   2.549  52.150  1.00  0.00    -0.052 A 
HETATM   13  C12 UNL     1      24.312   2.712  51.749  1.00  0.00     0.007 A 
HETATM   14  C13 UNL     1      24.018   3.077  50.432  1.00  0.00     0.001 A 
HETATM   15  C14 UNL     1      25.021   3.280  49.511  1.00  0.00     0.000 A 
HETATM   16  C15 UNL     1      26.347   3.130  49.864  1.00  0.00     0.001 A 
HETATM   17  C16 UNL     1      26.619   2.768  51.171  1.00  0.00     0.007 A 
ENDBRANCH  11  12
ENDBRANCH   7  11
BRANCH   1  18
HETATM   18  C4  UNL     1      26.236  -0.895  53.054  1.00  0.00     0.116 C 
BRANCH  18  19
HETATM   19  N1  UNL     1      25.512  -1.264  54.256  1.00  0.00    -0.393 N 
HETATM   20  H6  UNL     1      26.111  -1.934  54.835  1.00  0.00     0.159 HD
BRANCH  19  21
HETATM   21  C3  UNL     1      24.198  -0.892  54.779  1.00  0.00     0.145 C 
BRANCH  21  22
HETATM   22  C2  UNL     1      23.359  -0.457  53.646  1.00  0.00    -0.018 C 
HETATM   23  C1  UNL     1      22.199   0.176  53.455  1.00  0.00     0.008 C 
ENDBRANCH  21  22
ENDBRANCH  19  21
ENDBRANCH  18  19
ENDBRANCH   1  18
TORSDOF 6
ENDMDL
MODEL 2
REMARK VINA RESULT:      -7.8      1.999      5.043
REMARK  6 active torsions:
REMARK  status: ('A' for Active; 'I' for Inactive)
REMARK    1  A    between atoms: C2_2  and  C3_3 
REMARK    2  A    between atoms: C3_3  and  N1_4 
REMARK    3  A    between atoms: N1_4  and  C4_5 
REMARK    4  A    between atoms: C4_5  and  C5_6 
REMARK    5  A    between atoms: C9_12  and  C10_13 
REMARK    6  A    between atoms: C10_13  and  C11_14 
ROOT
HETATM    1  C5  UNL     1      27.199   1.788  52.549  1.00  0.00     0.089 A 
HETATM    2  N2  UNL     1      28.288   2.533  52.754  1.00  0.00    -0.240 NA
HETATM    3  C6  UNL     1      29.033   2.333  53.870  1.00  0.00     0.236 A 
HETATM    4  N3  UNL     1      28.646   1.394  54.726  1.00  0.00    -0.222 NA
HETATM    5  C7  UNL     1      27.559   0.636  54.543  1.00  0.00     0.164 A 
HETATM    6  C8  UNL     1      26.791   0.815  53.429  1.00  0.00     0.074 A 
HETATM    7  C9  UNL     1      25.791  -0.045  53.484  1.00  0.00     0.097 A 
HETATM    8  O1  UNL     1      25.852  -0.841  54.646  1.00  0.00    -0.239 OA
HETATM    9  N4  UNL     1      26.972  -0.404  55.311  1.00  0.00    -0.242 N 
HETATM   10  H16 UNL     1      27.388  -0.723  56.219  1.00  0.00     0.196 HD
ENDROOT
BRANCH   7  11
HETATM   11  C10 UNL     1      24.694  -0.281  52.566  1.00  0.00     0.107 C 
BRANCH  11  12
HETATM   12  C11 UNL     1      23.351  -0.053  53.157  1.00  0.00    -0.052 A 
HETATM   13  C12 UNL     1      22.509   0.984  52.737  1.00  0.00     0.007 A 
HETATM   14  C13 UNL     1      21.255   1.151  53.330  1.00  0.00     0.001 A 
HETATM   15  C14 UNL     1      20.824   0.308  54.330  1.00  0.00     0.000 A 
HETATM   16  C15 UNL     1      21.622  -0.727  54.775  1.00  0.00     0.001 A 
HETATM   17  C16 UNL     1      22.860  -0.877  54.177  1.00  0.00     0.007 A 
ENDBRANCH  11  12
ENDBRANCH   7  11
BRANCH   1  18
HETATM   18  C4  UNL     1      26.493   1.993  51.462  1.00  0.00     0.116 C 
BRANCH  18  19
HETATM   19  N1  UNL     1      26.714   3.313  50.905  1.00  0.00    -0.393 N 
HETATM   20  H6  UNL     1      27.444   3.826  51.493  1.00  0.00     0.159 HD
BRANCH  19  21
HETATM   21  C3  UNL     1      26.155   4.010  49.746  1.00  0.00     0.145 C 
BRANCH  21  22
HETATM   22  C2  UNL     1      27.274   4.464  48.899  1.00  0.00    -0.018 C 
HETATM   23  C1  UNL     1      27.787   5.618  48.467  1.00  0.00     0.008 C 
ENDBRANCH  21  22
ENDBRANCH  19  21
ENDBRANCH  18  19
ENDBRANCH   1  18
TORSDOF 6
ENDMDL
MODEL 3
REMARK VINA RESULT:      -7.5      2.884      5.608
REMARK  6 active torsions:
REMARK  status: ('A' for Active; 'I' for Inactive)
REMARK    1  A    between atoms: C2_2  and  C3_3 
REMARK    2  A    between atoms: C3_3  and  N1_4 
REMARK    3  A    between atoms: N1_4  and  C4_5 
REMARK    4  A    between atoms: C4_5  and  C5_6 
REMARK    5  A    between atoms: C9_12  and  C10_13 
REMARK    6  A    between atoms: C10_13  and  C11_14 
ROOT
HETATM    1  C5  UNL     1      22.625  -0.385  53.062  1.00  0.00     0.089 A 
HETATM    2  N2  UNL     1      21.348  -0.660  53.339  1.00  0.00    -0.240 NA
HETATM    3  C6  UNL     1      21.034  -1.251  54.519  1.00  0.00     0.236 A 
HETATM    4  N3  UNL     1      22.019  -1.537  55.363  1.00  0.00    -0.222 NA
HETATM    5  C7  UNL     1      23.305  -1.271  55.108  1.00  0.00     0.164 A 
HETATM    6  C8  UNL     1      23.651  -0.677  53.929  1.00  0.00     0.074 A 
HETATM    7  C9  UNL     1      24.962  -0.525  53.920  1.00  0.00     0.097 A 
HETATM    8  O1  UNL     1      25.550  -1.015  55.104  1.00  0.00    -0.239 OA
HETATM    9  N4  UNL     1      24.497  -1.485  55.850  1.00  0.00    -0.242 N 
HETATM   10  H16 UNL     1      24.484  -1.933  56.798  1.00  0.00     0.196 HD
ENDROOT
BRANCH   7  11
HETATM   11  C10 UNL     1      25.843   0.046  52.920  1.00  0.00     0.107 C 
BRANCH  11  12
HETATM   12  C11 UNL     1      27.279  -0.264  53.130  1.00  0.00    -0.052 A 
HETATM   13  C12 UNL     1      27.804  -1.551  52.960  1.00  0.00     0.007 A 
HETATM   14  C13 UNL     1      29.165  -1.785  53.172  1.00  0.00     0.001 A 
HETATM   15  C14 UNL     1      30.011  -0.766  53.549  1.00  0.00     0.000 A 
HETATM   16  C15 UNL     1      29.536   0.517  53.728  1.00  0.00     0.001 A 
HETATM   17  C16 UNL     1      28.186   0.731  53.515  1.00  0.00     0.007 A 
ENDBRANCH  11  12
ENDBRANCH   7  11
BRANCH   1  18
HETATM   18  C4  UNL     1      22.910   0.190  51.918  1.00  0.00     0.116 C 
BRANCH  18  19
HETATM   19  N1  UNL     1      22.398   1.544  51.841  1.00  0.00    -0.393 N 
HETATM   20  H6  UNL     1      21.422   1.577  52.275  1.00  0.00     0.159 HD
BRANCH  19  21
HETATM   21  C3  UNL     1      22.957   2.791  51.318  1.00  0.00     0.145 C 
BRANCH  21  22
HETATM   22  C2  UNL     1      23.551   3.536  52.444  1.00  0.00    -0.018 C 
HETATM   23  C1  UNL     1      24.475   3.340  53.388  1.00  0.00     0.008 C 
ENDBRANCH  21  22
ENDBRANCH  19  21
ENDBRANCH  18  19
ENDBRANCH   1  18
TORSDOF 6
ENDMDL
MODEL 4
REMARK VINA RESULT:      -7.1      2.599      5.015
REMARK  6 active torsions:
REMARK  status: ('A' for Active; 'I' for Inactive)
REMARK    1  A    between atoms: C2_2  and  C3_3 
REMARK    2  A    between atoms: C3_3  and  N1_4 
REMARK    3  A    between atoms: N1_4  and  C4_5 
REMARK    4  A    between atoms: C4_5  and  C5_6 
REMARK    5  A    between atoms: C9_12  and  C10_13 
REMARK    6  A    between atoms: C10_13  and  C11_14 
ROOT
HETATM    1  C5  UNL     1      23.877   1.697  51.597  1.00  0.00     0.089 A 
HETATM    2  N2  UNL     1      22.992   2.074  50.670  1.00  0.00    -0.240 NA
HETATM    3  C6  UNL     1      23.378   2.922  49.685  1.00  0.00     0.236 A 
HETATM    4  N3  UNL     1      24.635   3.351  49.679  1.00  0.00    -0.222 NA
HETATM    5  C7  UNL     1      25.540   2.989  50.596  1.00  0.00     0.164 A 
HETATM    6  C8  UNL     1      25.180   2.136  51.599  1.00  0.00     0.074 A 
HETATM    7  C9  UNL     1      26.238   1.937  52.362  1.00  0.00     0.097 A 
HETATM    8  O1  UNL     1      27.358   2.655  51.894  1.00  0.00    -0.239 OA
HETATM    9  N4  UNL     1      26.909   3.317  50.778  1.00  0.00    -0.242 N 
HETATM   10  H16 UNL     1      27.414   3.963  50.125  1.00  0.00     0.196 HD
ENDROOT
BRANCH   7  11
HETATM   11  C10 UNL     1      26.409   1.127  53.551  1.00  0.00     0.107 C 
BRANCH  11  12
HETATM   12  C11 UNL     1      27.169  -0.129  53.325  1.00  0.00    -0.052 A 
HETATM   13  C12 UNL     1      26.578  -1.279  52.787  1.00  0.00     0.007 A 
HETATM   14  C13 UNL     1      27.342  -2.433  52.596  1.00  0.00     0.001 A 
HETATM   15  C14 UNL     1      28.678  -2.465  52.929  1.00  0.00     0.000 A 
HETATM   16  C15 UNL     1      29.300  -1.354  53.462  1.00  0.00     0.001 A 
HETATM   17  C16 UNL     1      28.528  -0.220  53.644  1.00  0.00     0.007 A 
ENDBRANCH  11  12
ENDBRANCH   7  11
BRANCH   1  18
HETATM   18  C4  UNL     1      23.487   0.873  52.541  1.00  0.00     0.116 C 
BRANCH  18  19
HETATM   19  N1  UNL     1      22.043   0.776  52.622  1.00  0.00    -0.393 N 
HETATM   20  H6  UNL     1      21.631   0.820  51.636  1.00  0.00     0.159 HD
BRANCH  19  21
HETATM   21  C3  UNL     1      21.118   0.625  53.745  1.00  0.00     0.145 C 
BRANCH  21  22
HETATM   22  C2  UNL     1      21.658  -0.408  54.649  1.00  0.00    -0.018 C 
HETATM   23  C1  UNL     1      21.860  -1.727  54.641  1.00  0.00     0.008 C 
ENDBRANCH  21  22
ENDBRANCH  19  21
ENDBRANCH  18  19
ENDBRANCH   1  18
TORSDOF 6
ENDMDL
MODEL 5
REMARK VINA RESULT:      -6.8      2.329      4.848
REMARK  6 active torsions:
REMARK  status: ('A' for Active; 'I' for Inactive)
REMARK    1  A    between atoms: C2_2  and  C3_3 
REMARK    2  A    between atoms: C3_3  and  N1_4 
REMARK    3  A    between atoms: N1_4  and  C4_5 
REMARK    4  A    between atoms: C4_5  and  C5_6 
REMARK    5  A    between atoms: C9_12  and  C10_13 
REMARK    6  A    between atoms: C10_13  and  C11_14 
ROOT
HETATM    1  C5  UNL     1      24.977  -0.431  54.374  1.00  0.00     0.089 A 
HETATM    2  N2  UNL     1      24.964  -1.181  55.478  1.00  0.00    -0.240 NA
HETATM    3  C6  UNL     1      23.787  -1.674  55.937  1.00  0.00     0.236 A 
HETATM    4  N3  UNL     1      22.678  -1.387  55.263  1.00  0.00    -0.222 NA
HETATM    5  C7  UNL     1      22.665  -0.638  54.154  1.00  0.00     0.164 A 
HETATM    6  C8  UNL     1      23.836  -0.129  53.670  1.00  0.00     0.074 A 
HETATM    7  C9  UNL     1      23.557   0.564  52.583  1.00  0.00     0.097 A 
HETATM    8  O1  UNL     1      22.177   0.546  52.294  1.00  0.00    -0.239 OA
HETATM    9  N4  UNL     1      21.620  -0.215  53.292  1.00  0.00    -0.242 N 
HETATM   10  H16 UNL     1      20.621  -0.485  53.461  1.00  0.00     0.196 HD
ENDROOT
BRANCH   7  11
HETATM   11  C10 UNL     1      24.420   1.305  51.684  1.00  0.00     0.107 C 
BRANCH  11  12
HETATM   12  C11 UNL     1      24.052   2.735  51.531  1.00  0.00    -0.052 A 
HETATM   13  C12 UNL     1      23.912   3.347  50.280  1.00  0.00     0.007 A 
HETATM   14  C13 UNL     1      23.564   4.697  50.196  1.00  0.00     0.001 A 
HETATM   15  C14 UNL     1      23.353   5.448  51.331  1.00  0.00     0.000 A 
HETATM   16  C15 UNL     1      23.480   4.885  52.584  1.00  0.00     0.001 A 
HETATM   17  C16 UNL     1      23.826   3.547  52.648  1.00  0.00     0.007 A 
ENDBRANCH  11  12
ENDBRANCH   7  11
BRANCH   1  18
HETATM   18  C4  UNL     1      26.126   0.034  53.943  1.00  0.00     0.116 C 
BRANCH  18  19
HETATM   19  N1  UNL     1      27.185  -0.128  54.920  1.00  0.00    -0.393 N 
HETATM   20  H6  UNL     1      26.779  -0.554  55.812  1.00  0.00     0.159 HD
BRANCH  19  21
HETATM   21  C3  UNL     1      28.618   0.162  54.890  1.00  0.00     0.145 C 
BRANCH  21  22
HETATM   22  C2  UNL     1      29.200  -0.517  53.717  1.00  0.00    -0.018 C 
HETATM   23  C1  UNL     1      29.616  -1.741  53.384  1.00  0.00     0.008 C 
ENDBRANCH  21  22
ENDBRANCH  19  21
ENDBRANCH  18  19
ENDBRANCH   1  18
TORSDOF 6
ENDMDL
MODEL 6
REMARK VINA RESULT:      -6.8      2.086      2.900
REMARK  6 active torsions:
REMARK  status: ('A' for Active; 'I' for Inactive)
REMARK    1  A    between atoms: C2_2  and  C3_3 
REMARK    2  A    between atoms: C3_3  and  N1_4 
REMARK    3  A    between atoms: N1_4  and  C4_5 
REMARK    4  A    between atoms: C4_5  and  C5_6 
REMARK    5  A    between atoms: C9_12  and  C10_13 
REMARK    6  A    between atoms: C10_13  and  C11_14 
ROOT
HETATM    1  C5  UNL     1      25.509  -0.401  53.082  1.00  0.00     0.089 A 
HETATM    2  N2  UNL     1      26.503  -1.252  53.350  1.00  0.00    -0.240 NA
HETATM    3  C6  UNL     1      27.788  -0.846  53.195  1.00  0.00     0.236 A 
HETATM    4  N3  UNL     1      28.011   0.396  52.777  1.00  0.00    -0.222 NA
HETATM    5  C7  UNL     1      27.033   1.265  52.503  1.00  0.00     0.164 A 
HETATM    6  C8  UNL     1      25.730   0.885  52.650  1.00  0.00     0.074 A 
HETATM    7  C9  UNL     1      24.968   1.910  52.320  1.00  0.00     0.097 A 
HETATM    8  O1  UNL     1      25.737   3.028  51.936  1.00  0.00    -0.239 OA
HETATM    9  N4  UNL     1      27.041   2.613  52.054  1.00  0.00    -0.242 N 
HETATM   10  H16 UNL     1      27.936   3.127  51.869  1.00  0.00     0.196 HD
ENDROOT
BRANCH   7  11
HETATM   11  C10 UNL     1      23.525   2.050  52.297  1.00  0.00     0.107 C 
BRANCH  11  12
HETATM   12  C11 UNL     1      22.921   1.880  50.951  1.00  0.00    -0.052 A 
HETATM   13  C12 UNL     1      23.320   2.642  49.846  1.00  0.00     0.007 A 
HETATM   14  C13 UNL     1      22.715   2.440  48.603  1.00  0.00     0.001 A 
HETATM   15  C14 UNL     1      21.725   1.497  48.439  1.00  0.00     0.000 A 
HETATM   16  C15 UNL     1      21.301   0.725  49.502  1.00  0.00     0.001 A 
HETATM   17  C16 UNL     1      21.910   0.939  50.726  1.00  0.00     0.007 A 
ENDBRANCH  11  12
ENDBRANCH   7  11
BRANCH   1  18
HETATM   18  C4  UNL     1      24.272  -0.810  53.241  1.00  0.00     0.116 C 
BRANCH  18  19
HETATM   19  N1  UNL     1      23.879  -0.838  54.636  1.00  0.00    -0.393 N 
HETATM   20  H6  UNL     1      24.640  -0.375  55.227  1.00  0.00     0.159 HD
BRANCH  19  21
HETATM   21  C3  UNL     1      22.693  -1.348  55.325  1.00  0.00     0.145 C 
BRANCH  21  22
HETATM   22  C2  UNL     1      21.501  -0.875  54.597  1.00  0.00    -0.018 C 
HETATM   23  C1  UNL     1      20.861   0.276  54.381  1.00  0.00     0.008 C 
ENDBRANCH  21  22
ENDBRANCH  19  21
ENDBRANCH  18  19
ENDBRANCH   1  18
TORSDOF 6
ENDMDL
MODEL 7
REMARK VINA RESULT:      -6.6      3.310      6.727
REMARK  6 active torsions:
REMARK  status: ('A' for Active; 'I' for Inactive)
REMARK    1  A    between atoms: C2_2  and  C3_3 
REMARK    2  A    between atoms: C3_3  and  N1_4 
REMARK    3  A    between atoms: N1_4  and  C4_5 
REMARK    4  A    between atoms: C4_5  and  C5_6 
REMARK    5  A    between atoms: C9_12  and  C10_13 
REMARK    6  A    between atoms: C10_13  and  C11_14 
ROOT
HETATM    1  C5  UNL     1      25.002   3.544  50.549  1.00  0.00     0.089 A 
HETATM    2  N2  UNL     1      24.313   4.652  50.265  1.00  0.00    -0.240 NA
HETATM    3  C6  UNL     1      23.129   4.879  50.888  1.00  0.00     0.236 A 
HETATM    4  N3  UNL     1      22.696   3.980  51.766  1.00  0.00    -0.222 NA
HETATM    5  C7  UNL     1      23.369   2.864  52.066  1.00  0.00     0.164 A 
HETATM    6  C8  UNL     1      24.562   2.609  51.455  1.00  0.00     0.074 A 
HETATM    7  C9  UNL     1      25.018   1.461  51.918  1.00  0.00     0.097 A 
HETATM    8  O1  UNL     1      24.140   0.897  52.866  1.00  0.00    -0.239 OA
HETATM    9  N4  UNL     1      23.100   1.789  52.954  1.00  0.00    -0.242 N 
HETATM   10  H16 UNL     1      22.231   1.761  53.540  1.00  0.00     0.196 HD
ENDROOT
BRANCH   7  11
HETATM   11  C10 UNL     1      26.232   0.730  51.610  1.00  0.00     0.107 C 
BRANCH  11  12
HETATM   12  C11 UNL     1      27.317   0.910  52.608  1.00  0.00    -0.052 A 
HETATM   13  C12 UNL     1      27.808   2.171  52.968  1.00  0.00     0.007 A 
HETATM   14  C13 UNL     1      28.831   2.280  53.913  1.00  0.00     0.001 A 
HETATM   15  C14 UNL     1      29.373   1.161  54.505  1.00  0.00     0.000 A 
HETATM   16  C15 UNL     1      28.918  -0.101  54.181  1.00  0.00     0.001 A 
HETATM   17  C16 UNL     1      27.905  -0.190  53.242  1.00  0.00     0.007 A 
ENDBRANCH  11  12
ENDBRANCH   7  11
BRANCH   1  18
HETATM   18  C4  UNL     1      26.147   3.343  49.939  1.00  0.00     0.116 C 
BRANCH  18  19
HETATM   19  N1  UNL     1      26.824   4.584  49.620  1.00  0.00    -0.393 N 
HETATM   20  H6  UNL     1      26.514   5.342  50.308  1.00  0.00     0.159 HD
BRANCH  19  21
HETATM   21  C3  UNL     1      27.802   4.949  48.595  1.00  0.00     0.145 C 
BRANCH  21  22
HETATM   22  C2  UNL     1      27.599   6.369  48.250  1.00  0.00    -0.018 C 
HETATM   23  C1  UNL     1      28.222   7.319  47.550  1.00  0.00     0.008 C 
ENDBRANCH  21  22
ENDBRANCH  19  21
ENDBRANCH  18  19
ENDBRANCH   1  18
TORSDOF 6
ENDMDL
MODEL 8
REMARK VINA RESULT:      -6.6      2.680      4.948
REMARK  6 active torsions:
REMARK  status: ('A' for Active; 'I' for Inactive)
REMARK    1  A    between atoms: C2_2  and  C3_3 
REMARK    2  A    between atoms: C3_3  and  N1_4 
REMARK    3  A    between atoms: N1_4  and  C4_5 
REMARK    4  A    between atoms: C4_5  and  C5_6 
REMARK    5  A    between atoms: C9_12  and  C10_13 
REMARK    6  A    between atoms: C10_13  and  C11_14 
ROOT
HETATM    1  C5  UNL     1      24.588  -0.437  53.789  1.00  0.00     0.089 A 
HETATM    2  N2  UNL     1      25.020  -1.088  54.873  1.00  0.00    -0.240 NA
HETATM    3  C6  UNL     1      24.123  -1.513  55.796  1.00  0.00     0.236 A 
HETATM    4  N3  UNL     1      22.834  -1.264  55.587  1.00  0.00    -0.222 NA
HETATM    5  C7  UNL     1      22.378  -0.614  54.510  1.00  0.00     0.164 A 
HETATM    6  C8  UNL     1      23.258  -0.174  53.563  1.00  0.00     0.074 A 
HETATM    7  C9  UNL     1      22.566   0.428  52.615  1.00  0.00     0.097 A 
HETATM    8  O1  UNL     1      21.183   0.414  52.891  1.00  0.00    -0.239 OA
HETATM    9  N4  UNL     1      21.073  -0.246  54.090  1.00  0.00    -0.242 N 
HETATM   10  H16 UNL     1      20.224  -0.478  54.660  1.00  0.00     0.196 HD
ENDROOT
BRANCH   7  11
HETATM   11  C10 UNL     1      22.999   1.069  51.388  1.00  0.00     0.107 C 
BRANCH  11  12
HETATM   12  C11 UNL     1      22.998   2.552  51.447  1.00  0.00    -0.052 A 
HETATM   13  C12 UNL     1      22.580   3.348  50.373  1.00  0.00     0.007 A 
HETATM   14  C13 UNL     1      22.601   4.740  50.484  1.00  0.00     0.001 A 
HETATM   15  C14 UNL     1      23.029   5.354  51.641  1.00  0.00     0.000 A 
HETATM   16  C15 UNL     1      23.448   4.608  52.723  1.00  0.00     0.001 A 
HETATM   17  C16 UNL     1      23.422   3.231  52.595  1.00  0.00     0.007 A 
ENDBRANCH  11  12
ENDBRANCH   7  11
BRANCH   1  18
HETATM   18  C4  UNL     1      25.470  -0.036  52.904  1.00  0.00     0.116 C 
BRANCH  18  19
HETATM   19  N1  UNL     1      26.357   0.981  53.435  1.00  0.00    -0.393 N 
HETATM   20  H6  UNL     1      26.538   0.785  54.470  1.00  0.00     0.159 HD
BRANCH  19  21
HETATM   21  C3  UNL     1      27.011   2.142  52.832  1.00  0.00     0.145 C 
BRANCH  21  22
HETATM   22  C2  UNL     1      26.717   2.137  51.387  1.00  0.00    -0.018 C 
HETATM   23  C1  UNL     1      26.492   3.026  50.416  1.00  0.00     0.008 C 
ENDBRANCH  21  22
ENDBRANCH  19  21
ENDBRANCH  18  19
ENDBRANCH   1  18
TORSDOF 6
ENDMDL
MODEL 9
REMARK VINA RESULT:      -6.3      3.636      6.770
REMARK  6 active torsions:
REMARK  status: ('A' for Active; 'I' for Inactive)
REMARK    1  A    between atoms: C2_2  and  C3_3 
REMARK    2  A    between atoms: C3_3  and  N1_4 
REMARK    3  A    between atoms: N1_4  and  C4_5 
REMARK    4  A    between atoms: C4_5  and  C5_6 
REMARK    5  A    between atoms: C9_12  and  C10_13 
REMARK    6  A    between atoms: C10_13  and  C11_14 
ROOT
HETATM    1  C5  UNL     1      23.748   2.684  49.974  1.00  0.00     0.089 A 
HETATM    2  N2  UNL     1      23.282   2.787  48.727  1.00  0.00    -0.240 NA
HETATM    3  C6  UNL     1      22.205   2.052  48.354  1.00  0.00     0.236 A 
HETATM    4  N3  UNL     1      21.649   1.247  49.254  1.00  0.00    -0.222 NA
HETATM    5  C7  UNL     1      22.098   1.127  50.508  1.00  0.00     0.164 A 
HETATM    6  C8  UNL     1      23.180   1.855  50.912  1.00  0.00     0.074 A 
HETATM    7  C9  UNL     1      23.419   1.561  52.175  1.00  0.00     0.097 A 
HETATM    8  O1  UNL     1      22.498   0.616  52.673  1.00  0.00    -0.239 OA
HETATM    9  N4  UNL     1      21.666   0.346  51.613  1.00  0.00    -0.242 N 
HETATM   10  H16 UNL     1      20.843  -0.299  51.545  1.00  0.00     0.196 HD
ENDROOT
BRANCH   7  11
HETATM   11  C10 UNL     1      24.440   2.045  53.084  1.00  0.00     0.107 C 
BRANCH  11  12
HETATM   12  C11 UNL     1      25.603   1.134  53.228  1.00  0.00    -0.052 A 
HETATM   13  C12 UNL     1      26.420   1.130  54.365  1.00  0.00     0.007 A 
HETATM   14  C13 UNL     1      27.503   0.251  54.447  1.00  0.00     0.001 A 
HETATM   15  C14 UNL     1      27.787  -0.622  53.420  1.00  0.00     0.000 A 
HETATM   16  C15 UNL     1      27.008  -0.653  52.282  1.00  0.00     0.001 A 
HETATM   17  C16 UNL     1      25.941   0.225  52.218  1.00  0.00     0.007 A 
ENDBRANCH  11  12
ENDBRANCH   7  11
BRANCH   1  18
HETATM   18  C4  UNL     1      24.788   3.406  50.318  1.00  0.00     0.116 C 
BRANCH  18  19
HETATM   19  N1  UNL     1      25.130   4.392  49.311  1.00  0.00    -0.393 N 
HETATM   20  H6  UNL     1      24.514   4.243  48.450  1.00  0.00     0.159 HD
BRANCH  19  21
HETATM   21  C3  UNL     1      26.098   5.488  49.280  1.00  0.00     0.145 C 
BRANCH  21  22
HETATM   22  C2  UNL     1      27.352   4.976  48.695  1.00  0.00    -0.018 C 
HETATM   23  C1  UNL     1      28.547   5.451  48.337  1.00  0.00     0.008 C 
ENDBRANCH  21  22
ENDBRANCH  19  21
ENDBRANCH  18  19
ENDBRANCH   1  18
TORSDOF 6
ENDMDL
