MODEL 1
REMARK VINA RESULT:      -7.9      0.000      0.000
REMARK  7 active torsions:
REMARK  status: ('A' for Active; 'I' for Inactive)
REMARK    1  A    between atoms: C2_2  and  C3_3 
REMARK    2  A    between atoms: C3_3  and  N1_4 
REMARK    3  A    between atoms: C5_6  and  C6_7 
REMARK    4  A    between atoms: C10_11  and  O1_12 
REMARK    5  A    between atoms: O1_12  and  C11_13 
REMARK    6  A    between atoms: C11_13  and  C12_14 
REMARK    7  A    between atoms: C18_21  and  N2_22 
ROOT
HETATM    1  N1  UNL     1      24.525   0.715  52.846  1.00  0.00    -0.340 N 
HETATM    2  C4  UNL     1      23.530   1.270  52.148  1.00  0.00     0.106 A 
HETATM    3  C5  UNL     1      22.284   0.834  52.618  1.00  0.00     0.008 A 
HETATM    4  C17 UNL     1      22.621  -0.016  53.645  1.00  0.00     0.068 A 
HETATM    5  C18 UNL     1      21.712  -0.697  54.428  1.00  0.00     0.137 A 
HETATM    6  N3  UNL     1      22.186  -1.499  55.403  1.00  0.00    -0.224 NA
HETATM    7  C19 UNL     1      23.537  -1.588  55.559  1.00  0.00     0.237 A 
HETATM    8  N4  UNL     1      24.419  -0.904  54.772  1.00  0.00    -0.223 NA
HETATM    9  C20 UNL     1      23.987  -0.089  53.782  1.00  0.00     0.146 A 
ENDROOT
BRANCH   3  10
HETATM   10  C6  UNL     1      21.072   1.314  51.971  1.00  0.00    -0.021 A 
HETATM   11  C7  UNL     1      20.678   0.603  50.834  1.00  0.00     0.012 A 
HETATM   12  C8  UNL     1      19.558   0.878  50.076  1.00  0.00     0.004 A 
HETATM   13  C9  UNL     1      18.779   1.933  50.480  1.00  0.00     0.037 A 
HETATM   14  C10 UNL     1      19.125   2.665  51.594  1.00  0.00     0.069 A 
HETATM   15  C16 UNL     1      20.251   2.362  52.328  1.00  0.00     0.049 A 
BRANCH  14  16
HETATM   16  O1  UNL     1      18.339   3.731  52.001  1.00  0.00    -0.349 OA
BRANCH  16  17
HETATM   17  C11 UNL     1      17.277   4.096  51.144  1.00  0.00     0.207 C 
BRANCH  17  18
HETATM   18  C12 UNL     1      15.937   4.063  51.804  1.00  0.00     0.145 C 
HETATM   19  C13 UNL     1      15.372   2.670  51.922  1.00  0.00     0.036 C 
HETATM   20  C14 UNL     1      14.216   2.919  52.880  1.00  0.00     0.029 C 
HETATM   21  C15 UNL     1      14.596   4.274  53.474  1.00  0.00     0.168 C 
HETATM   22  O2  UNL     1      15.920   4.504  53.106  1.00  0.00    -0.384 OA
ENDBRANCH  17  18
ENDBRANCH  16  17
ENDBRANCH  14  16
ENDBRANCH   3  10
BRANCH   1  23
HETATM   23  C3  UNL     1      25.954   0.898  52.681  1.00  0.00     0.135 C 
BRANCH  23  24
HETATM   24  C2  UNL     1      26.632  -0.239  52.045  1.00  0.00     0.010 C 
HETATM   25  C1  UNL     1      27.446  -1.075  52.721  1.00  0.00     0.007 C 
ENDBRANCH  23  24
ENDBRANCH   1  23
BRANCH   5  26
HETATM   26  N2  UNL     1      20.316  -0.606  54.284  1.00  0.00    -0.383 N 
HETATM   27  H20 UNL     1      19.484  -1.206  54.522  1.00  0.00     0.157 HD
HETATM   28  H21 UNL     1      20.072   0.307  53.814  1.00  0.00     0.157 HD
ENDBRANCH   5  26
TORSDOF 7
ENDMDL
MODEL 2
REMARK VINA RESULT:      -7.9      5.485      9.127
REMARK  7 active torsions:
REMARK  status: ('A' for Active; 'I' for Inactive)
REMARK    1  A    between atoms: C2_2  and  C3_3 
REMARK    2  A    between atoms: C3_3  and  N1_4 
REMARK    3  A    between atoms: C5_6  and  C6_7 
REMARK    4  A    between atoms: C10_11  and  O1_12 
REMARK    5  A    between atoms: O1_12  and  C11_13 
REMARK    6  A    between atoms: C11_13  and  C12_14 
REMARK    7  A    between atoms: C18_21  and  N2_22 
ROOT
HETATM    1  N1  UNL     1      23.716   0.423  52.579  1.00  0.00    -0.340 N 
HETATM    2  C4  UNL     1      23.893   1.372  51.656  1.00  0.00     0.106 A 
HETATM    3  C5  UNL     1      25.110   2.040  51.851  1.00  0.00     0.008 A 
HETATM    4  C17 UNL     1      25.634   1.412  52.956  1.00  0.00     0.068 A 
HETATM    5  C18 UNL     1      26.846   1.727  53.534  1.00  0.00     0.137 A 
HETATM    6  N3  UNL     1      27.238   1.024  54.617  1.00  0.00    -0.224 NA
HETATM    7  C19 UNL     1      26.411   0.043  55.076  1.00  0.00     0.237 A 
HETATM    8  N4  UNL     1      25.214  -0.253  54.487  1.00  0.00    -0.223 NA
HETATM    9  C20 UNL     1      24.783   0.427  53.399  1.00  0.00     0.146 A 
ENDROOT
BRANCH   3  10
HETATM   10  C6  UNL     1      25.477   3.126  50.954  1.00  0.00    -0.021 A 
HETATM   11  C7  UNL     1      24.601   4.215  50.943  1.00  0.00     0.012 A 
HETATM   12  C8  UNL     1      24.763   5.353  50.178  1.00  0.00     0.004 A 
HETATM   13  C9  UNL     1      25.871   5.407  49.371  1.00  0.00     0.037 A 
HETATM   14  C10 UNL     1      26.763   4.359  49.348  1.00  0.00     0.069 A 
HETATM   15  C16 UNL     1      26.572   3.237  50.125  1.00  0.00     0.049 A 
BRANCH  14  16
HETATM   16  O1  UNL     1      27.883   4.413  48.533  1.00  0.00    -0.349 OA
BRANCH  16  17
HETATM   17  C11 UNL     1      28.457   5.689  48.333  1.00  0.00     0.207 C 
BRANCH  17  18
HETATM   18  C12 UNL     1      29.910   5.643  47.990  1.00  0.00     0.145 C 
HETATM   19  C13 UNL     1      30.438   6.960  47.479  1.00  0.00     0.036 C 
HETATM   20  C14 UNL     1      31.936   6.699  47.529  1.00  0.00     0.029 C 
HETATM   21  C15 UNL     1      32.006   5.489  48.458  1.00  0.00     0.168 C 
HETATM   22  O2  UNL     1      30.748   5.376  49.048  1.00  0.00    -0.384 OA
ENDBRANCH  17  18
ENDBRANCH  16  17
ENDBRANCH  14  16
ENDBRANCH   3  10
BRANCH   1  23
HETATM   23  C3  UNL     1      22.598  -0.488  52.733  1.00  0.00     0.135 C 
BRANCH  23  24
HETATM   24  C2  UNL     1      21.589  -0.036  53.700  1.00  0.00     0.010 C 
HETATM   25  C1  UNL     1      21.507  -0.527  54.953  1.00  0.00     0.007 C 
ENDBRANCH  23  24
ENDBRANCH   1  23
BRANCH   5  26
HETATM   26  N2  UNL     1      27.712   2.730  53.064  1.00  0.00    -0.383 N 
HETATM   27  H20 UNL     1      28.658   3.108  53.333  1.00  0.00     0.157 HD
HETATM   28  H21 UNL     1      27.275   3.205  52.229  1.00  0.00     0.157 HD
ENDBRANCH   5  26
TORSDOF 7
ENDMDL
MODEL 3
REMARK VINA RESULT:      -7.8      4.821      8.019
REMARK  7 active torsions:
REMARK  status: ('A' for Active; 'I' for Inactive)
REMARK    1  A    between atoms: C2_2  and  C3_3 
REMARK    2  A    between atoms: C3_3  and  N1_4 
REMARK    3  A    between atoms: C5_6  and  C6_7 
REMARK    4  A    between atoms: C10_11  and  O1_12 
REMARK    5  A    between atoms: O1_12  and  C11_13 
REMARK    6  A    between atoms: C11_13  and  C12_14 
REMARK    7  A    between atoms: C18_21  and  N2_22 
ROOT
HETATM    1  N1  UNL     1      23.462  -0.159  53.095  1.00  0.00    -0.340 N 
HETATM    2  C4  UNL     1      23.375   0.926  52.321  1.00  0.00     0.106 A 
HETATM    3  C5  UNL     1      24.480   1.767  52.510  1.00  0.00     0.008 A 
HETATM    4  C17 UNL     1      25.222   1.094  53.452  1.00  0.00     0.068 A 
HETATM    5  C18 UNL     1      26.425   1.537  53.963  1.00  0.00     0.137 A 
HETATM    6  N3  UNL     1      27.047   0.770  54.883  1.00  0.00    -0.224 NA
HETATM    7  C19 UNL     1      26.449  -0.397  55.253  1.00  0.00     0.237 A 
HETATM    8  N4  UNL     1      25.258  -0.816  54.733  1.00  0.00    -0.223 NA
HETATM    9  C20 UNL     1      24.600  -0.079  53.808  1.00  0.00     0.146 A 
ENDROOT
BRANCH   3  10
HETATM   10  C6  UNL     1      24.559   3.016  51.768  1.00  0.00    -0.021 A 
HETATM   11  C7  UNL     1      23.774   4.060  52.264  1.00  0.00     0.012 A 
HETATM   12  C8  UNL     1      23.708   5.327  51.723  1.00  0.00     0.004 A 
HETATM   13  C9  UNL     1      24.475   5.570  50.612  1.00  0.00     0.037 A 
HETATM   14  C10 UNL     1      25.266   4.573  50.085  1.00  0.00     0.069 A 
HETATM   15  C16 UNL     1      25.309   3.318  50.651  1.00  0.00     0.049 A 
BRANCH  14  16
HETATM   16  O1  UNL     1      26.042   4.818  48.963  1.00  0.00    -0.349 OA
BRANCH  16  17
HETATM   17  C11 UNL     1      26.232   6.173  48.609  1.00  0.00     0.207 C 
BRANCH  17  18
HETATM   18  C12 UNL     1      27.669   6.564  48.494  1.00  0.00     0.145 C 
HETATM   19  C13 UNL     1      28.587   5.386  48.287  1.00  0.00     0.036 C 
HETATM   20  C14 UNL     1      29.873   6.101  47.897  1.00  0.00     0.029 C 
HETATM   21  C15 UNL     1      29.352   7.486  47.520  1.00  0.00     0.168 C 
HETATM   22  O2  UNL     1      27.967   7.369  47.419  1.00  0.00    -0.384 OA
ENDBRANCH  17  18
ENDBRANCH  16  17
ENDBRANCH  14  16
ENDBRANCH   3  10
BRANCH   1  23
HETATM   23  C3  UNL     1      22.532  -1.268  53.202  1.00  0.00     0.135 C 
BRANCH  23  24
HETATM   24  C2  UNL     1      21.682  -1.221  54.399  1.00  0.00     0.010 C 
HETATM   25  C1  UNL     1      20.989  -0.123  54.760  1.00  0.00     0.007 C 
ENDBRANCH  23  24
ENDBRANCH   1  23
BRANCH   5  26
HETATM   26  N2  UNL     1      27.056   2.734  53.582  1.00  0.00    -0.383 N 
HETATM   27  H20 UNL     1      26.769   3.739  53.452  1.00  0.00     0.157 HD
HETATM   28  H21 UNL     1      28.074   2.544  53.384  1.00  0.00     0.157 HD
ENDBRANCH   5  26
TORSDOF 7
ENDMDL
MODEL 4
REMARK VINA RESULT:      -7.8      4.897      8.663
REMARK  7 active torsions:
REMARK  status: ('A' for Active; 'I' for Inactive)
REMARK    1  A    between atoms: C2_2  and  C3_3 
REMARK    2  A    between atoms: C3_3  and  N1_4 
REMARK    3  A    between atoms: C5_6  and  C6_7 
REMARK    4  A    between atoms: C10_11  and  O1_12 
REMARK    5  A    between atoms: O1_12  and  C11_13 
REMARK    6  A    between atoms: C11_13  and  C12_14 
REMARK    7  A    between atoms: C18_21  and  N2_22 
ROOT
HETATM    1  N1  UNL     1      21.967   2.801  49.486  1.00  0.00    -0.340 N 
HETATM    2  C4  UNL     1      22.145   1.751  50.292  1.00  0.00     0.106 A 
HETATM    3  C5  UNL     1      22.847   2.120  51.448  1.00  0.00     0.008 A 
HETATM    4  C17 UNL     1      23.067   3.464  51.261  1.00  0.00     0.068 A 
HETATM    5  C18 UNL     1      23.730   4.281  52.153  1.00  0.00     0.137 A 
HETATM    6  N3  UNL     1      23.870   5.585  51.840  1.00  0.00    -0.224 NA
HETATM    7  C19 UNL     1      23.348   6.020  50.658  1.00  0.00     0.237 A 
HETATM    8  N4  UNL     1      22.694   5.193  49.790  1.00  0.00    -0.223 NA
HETATM    9  C20 UNL     1      22.530   3.878  50.064  1.00  0.00     0.146 A 
ENDROOT
BRANCH   3  10
HETATM   10  C6  UNL     1      23.159   1.106  52.445  1.00  0.00    -0.021 A 
HETATM   11  C7  UNL     1      22.084   0.693  53.236  1.00  0.00     0.012 A 
HETATM   12  C8  UNL     1      22.153  -0.261  54.230  1.00  0.00     0.004 A 
HETATM   13  C9  UNL     1      23.377  -0.841  54.451  1.00  0.00     0.037 A 
HETATM   14  C10 UNL     1      24.467  -0.468  53.697  1.00  0.00     0.069 A 
HETATM   15  C16 UNL     1      24.362   0.489  52.711  1.00  0.00     0.049 A 
BRANCH  14  16
HETATM   16  O1  UNL     1      25.703  -1.054  53.919  1.00  0.00    -0.349 OA
BRANCH  16  17
HETATM   17  C11 UNL     1      26.483  -1.336  52.775  1.00  0.00     0.207 C 
BRANCH  17  18
HETATM   18  C12 UNL     1      27.905  -0.898  52.898  1.00  0.00     0.145 C 
HETATM   19  C13 UNL     1      28.052   0.455  53.546  1.00  0.00     0.036 C 
HETATM   20  C14 UNL     1      29.550   0.475  53.815  1.00  0.00     0.029 C 
HETATM   21  C15 UNL     1      29.903  -1.006  53.693  1.00  0.00     0.168 C 
HETATM   22  O2  UNL     1      28.693  -1.698  53.693  1.00  0.00    -0.384 OA
ENDBRANCH  17  18
ENDBRANCH  16  17
ENDBRANCH  14  16
ENDBRANCH   3  10
BRANCH   1  23
HETATM   23  C3  UNL     1      21.296   2.848  48.201  1.00  0.00     0.135 C 
BRANCH  23  24
HETATM   24  C2  UNL     1      22.201   3.043  47.061  1.00  0.00     0.010 C 
HETATM   25  C1  UNL     1      21.789   3.538  45.877  1.00  0.00     0.007 C 
ENDBRANCH  23  24
ENDBRANCH   1  23
BRANCH   5  26
HETATM   26  N2  UNL     1      24.265   3.847  53.379  1.00  0.00    -0.383 N 
HETATM   27  H20 UNL     1      25.016   4.173  54.041  1.00  0.00     0.157 HD
HETATM   28  H21 UNL     1      23.766   2.969  53.686  1.00  0.00     0.157 HD
ENDBRANCH   5  26
TORSDOF 7
ENDMDL
MODEL 5
REMARK VINA RESULT:      -7.6      3.426      5.027
REMARK  7 active torsions:
REMARK  status: ('A' for Active; 'I' for Inactive)
REMARK    1  A    between atoms: C2_2  and  C3_3 
REMARK    2  A    between atoms: C3_3  and  N1_4 
REMARK    3  A    between atoms: C5_6  and  C6_7 
REMARK    4  A    between atoms: C10_11  and  O1_12 
REMARK    5  A    between atoms: O1_12  and  C11_13 
REMARK    6  A    between atoms: C11_13  and  C12_14 
REMARK    7  A    between atoms: C18_21  and  N2_22 
ROOT
HETATM    1  N1  UNL     1      27.413   0.687  54.004  1.00  0.00    -0.340 N 
HETATM    2  C4  UNL     1      27.291   1.615  53.051  1.00  0.00     0.106 A 
HETATM    3  C5  UNL     1      25.971   1.682  52.584  1.00  0.00     0.008 A 
HETATM    4  C17 UNL     1      25.328   0.726  53.334  1.00  0.00     0.068 A 
HETATM    5  C18 UNL     1      23.986   0.422  53.232  1.00  0.00     0.137 A 
HETATM    6  N3  UNL     1      23.488  -0.540  54.035  1.00  0.00    -0.224 NA
HETATM    7  C19 UNL     1      24.341  -1.157  54.900  1.00  0.00     0.237 A 
HETATM    8  N4  UNL     1      25.667  -0.840  54.985  1.00  0.00    -0.223 NA
HETATM    9  C20 UNL     1      26.208   0.120  54.199  1.00  0.00     0.146 A 
ENDROOT
BRANCH   3  10
HETATM   10  C6  UNL     1      25.638   2.624  51.525  1.00  0.00    -0.021 A 
HETATM   11  C7  UNL     1      26.635   2.823  50.566  1.00  0.00     0.012 A 
HETATM   12  C8  UNL     1      26.526   3.661  49.474  1.00  0.00     0.004 A 
HETATM   13  C9  UNL     1      25.346   4.345  49.331  1.00  0.00     0.037 A 
HETATM   14  C10 UNL     1      24.334   4.182  50.250  1.00  0.00     0.069 A 
HETATM   15  C16 UNL     1      24.476   3.336  51.329  1.00  0.00     0.049 A 
BRANCH  14  16
HETATM   16  O1  UNL     1      23.141   4.873  50.105  1.00  0.00    -0.349 OA
BRANCH  16  17
HETATM   17  C11 UNL     1      22.416   4.638  48.916  1.00  0.00     0.207 C 
BRANCH  17  18
HETATM   18  C12 UNL     1      21.589   3.395  48.955  1.00  0.00     0.145 C 
HETATM   19  C13 UNL     1      22.299   2.196  48.379  1.00  0.00     0.036 C 
HETATM   20  C14 UNL     1      21.375   1.077  48.841  1.00  0.00     0.029 C 
HETATM   21  C15 UNL     1      20.581   1.771  49.946  1.00  0.00     0.168 C 
HETATM   22  O2  UNL     1      21.249   2.964  50.217  1.00  0.00    -0.384 OA
ENDBRANCH  17  18
ENDBRANCH  16  17
ENDBRANCH  14  16
ENDBRANCH   3  10
BRANCH   1  23
HETATM   23  C3  UNL     1      28.601   0.304  54.743  1.00  0.00     0.135 C 
BRANCH  23  24
HETATM   24  C2  UNL     1      29.623  -0.363  53.925  1.00  0.00     0.010 C 
HETATM   25  C1  UNL     1      29.442  -1.584  53.384  1.00  0.00     0.007 C 
ENDBRANCH  23  24
ENDBRANCH   1  23
BRANCH   5  26
HETATM   26  N2  UNL     1      23.095   1.058  52.350  1.00  0.00    -0.383 N 
HETATM   27  H20 UNL     1      22.667   0.843  51.411  1.00  0.00     0.157 HD
HETATM   28  H21 UNL     1      22.796   1.982  52.761  1.00  0.00     0.157 HD
ENDBRANCH   5  26
TORSDOF 7
ENDMDL
MODEL 6
REMARK VINA RESULT:      -7.5      4.804      7.308
REMARK  7 active torsions:
REMARK  status: ('A' for Active; 'I' for Inactive)
REMARK    1  A    between atoms: C2_2  and  C3_3 
REMARK    2  A    between atoms: C3_3  and  N1_4 
REMARK    3  A    between atoms: C5_6  and  C6_7 
REMARK    4  A    between atoms: C10_11  and  O1_12 
REMARK    5  A    between atoms: O1_12  and  C11_13 
REMARK    6  A    between atoms: C11_13  and  C12_14 
REMARK    7  A    between atoms: C18_21  and  N2_22 
ROOT
HETATM    1  N1  UNL     1      24.052   0.134  52.976  1.00  0.00    -0.340 N 
HETATM    2  C4  UNL     1      24.035   1.094  52.047  1.00  0.00     0.106 A 
HETATM    3  C5  UNL     1      25.204   1.865  52.102  1.00  0.00     0.008 A 
HETATM    4  C17 UNL     1      25.908   1.287  53.131  1.00  0.00     0.068 A 
HETATM    5  C18 UNL     1      27.149   1.707  53.563  1.00  0.00     0.137 A 
HETATM    6  N3  UNL     1      27.726   1.043  54.586  1.00  0.00    -0.224 NA
HETATM    7  C19 UNL     1      27.048  -0.006  55.132  1.00  0.00     0.237 A 
HETATM    8  N4  UNL     1      25.820  -0.405  54.686  1.00  0.00    -0.223 NA
HETATM    9  C20 UNL     1      25.205   0.232  53.664  1.00  0.00     0.146 A 
ENDROOT
BRANCH   3  10
HETATM   10  C6  UNL     1      25.366   2.978  51.178  1.00  0.00    -0.021 A 
HETATM   11  C7  UNL     1      26.425   2.858  50.274  1.00  0.00     0.012 A 
HETATM   12  C8  UNL     1      26.751   3.787  49.308  1.00  0.00     0.004 A 
HETATM   13  C9  UNL     1      25.969   4.912  49.239  1.00  0.00     0.037 A 
HETATM   14  C10 UNL     1      24.913   5.077  50.107  1.00  0.00     0.069 A 
HETATM   15  C16 UNL     1      24.615   4.127  51.061  1.00  0.00     0.049 A 
BRANCH  14  16
HETATM   16  O1  UNL     1      24.122   6.213  50.037  1.00  0.00    -0.349 OA
BRANCH  16  17
HETATM   17  C11 UNL     1      24.485   7.288  50.880  1.00  0.00     0.207 C 
BRANCH  17  18
HETATM   18  C12 UNL     1      25.021   8.471  50.142  1.00  0.00     0.145 C 
HETATM   19  C13 UNL     1      26.528   8.524  50.126  1.00  0.00     0.036 C 
HETATM   20  C14 UNL     1      26.757   9.601  49.076  1.00  0.00     0.029 C 
HETATM   21  C15 UNL     1      25.400   9.643  48.377  1.00  0.00     0.168 C 
HETATM   22  O2  UNL     1      24.705   8.513  48.804  1.00  0.00    -0.384 OA
ENDBRANCH  17  18
ENDBRANCH  16  17
ENDBRANCH  14  16
ENDBRANCH   3  10
BRANCH   1  23
HETATM   23  C3  UNL     1      23.044  -0.870  53.254  1.00  0.00     0.135 C 
BRANCH  23  24
HETATM   24  C2  UNL     1      22.226  -0.584  54.440  1.00  0.00     0.010 C 
HETATM   25  C1  UNL     1      21.096   0.150  54.389  1.00  0.00     0.007 C 
ENDBRANCH  23  24
ENDBRANCH   1  23
BRANCH   5  26
HETATM   26  N2  UNL     1      27.863   2.781  53.003  1.00  0.00    -0.383 N 
HETATM   27  H20 UNL     1      28.673   3.390  53.288  1.00  0.00     0.157 HD
HETATM   28  H21 UNL     1      27.460   3.011  52.055  1.00  0.00     0.157 HD
ENDBRANCH   5  26
TORSDOF 7
ENDMDL
MODEL 7
REMARK VINA RESULT:      -7.5      4.984      8.369
REMARK  7 active torsions:
REMARK  status: ('A' for Active; 'I' for Inactive)
REMARK    1  A    between atoms: C2_2  and  C3_3 
REMARK    2  A    between atoms: C3_3  and  N1_4 
REMARK    3  A    between atoms: C5_6  and  C6_7 
REMARK    4  A    between atoms: C10_11  and  O1_12 
REMARK    5  A    between atoms: O1_12  and  C11_13 
REMARK    6  A    between atoms: C11_13  and  C12_14 
REMARK    7  A    between atoms: C18_21  and  N2_22 
ROOT
HETATM    1  N1  UNL     1      24.098   4.697  49.970  1.00  0.00    -0.340 N 
HETATM    2  C4  UNL     1      24.240   3.866  51.007  1.00  0.00     0.106 A 
HETATM    3  C5  UNL     1      23.498   2.694  50.815  1.00  0.00     0.008 A 
HETATM    4  C17 UNL     1      22.910   2.896  49.589  1.00  0.00     0.068 A 
HETATM    5  C18 UNL     1      22.074   1.996  48.963  1.00  0.00     0.137 A 
HETATM    6  N3  UNL     1      21.569   2.327  47.757  1.00  0.00    -0.224 NA
HETATM    7  C19 UNL     1      21.917   3.534  47.226  1.00  0.00     0.237 A 
HETATM    8  N4  UNL     1      22.748   4.410  47.864  1.00  0.00    -0.223 NA
HETATM    9  C20 UNL     1      23.276   4.118  49.075  1.00  0.00     0.146 A 
ENDROOT
BRANCH   3  10
HETATM   10  C6  UNL     1      23.507   1.668  51.848  1.00  0.00    -0.021 A 
HETATM   11  C7  UNL     1      22.267   1.391  52.429  1.00  0.00     0.012 A 
HETATM   12  C8  UNL     1      22.046   0.451  53.415  1.00  0.00     0.004 A 
HETATM   13  C9  UNL     1      23.136  -0.259  53.852  1.00  0.00     0.037 A 
HETATM   14  C10 UNL     1      24.380  -0.022  53.310  1.00  0.00     0.069 A 
HETATM   15  C16 UNL     1      24.564   0.925  52.325  1.00  0.00     0.049 A 
BRANCH  14  16
HETATM   16  O1  UNL     1      25.481  -0.739  53.751  1.00  0.00    -0.349 OA
BRANCH  16  17
HETATM   17  C11 UNL     1      26.105  -0.277  54.932  1.00  0.00     0.207 C 
BRANCH  17  18
HETATM   18  C12 UNL     1      27.545   0.076  54.748  1.00  0.00     0.145 C 
HETATM   19  C13 UNL     1      28.197  -0.677  53.617  1.00  0.00     0.036 C 
HETATM   20  C14 UNL     1      29.497   0.102  53.478  1.00  0.00     0.029 C 
HETATM   21  C15 UNL     1      29.163   1.394  54.220  1.00  0.00     0.168 C 
HETATM   22  O2  UNL     1      27.782   1.388  54.411  1.00  0.00    -0.384 OA
ENDBRANCH  17  18
ENDBRANCH  16  17
ENDBRANCH  14  16
ENDBRANCH   3  10
BRANCH   1  23
HETATM   23  C3  UNL     1      24.693   6.005  49.775  1.00  0.00     0.135 C 
BRANCH  23  24
HETATM   24  C2  UNL     1      25.840   6.009  48.858  1.00  0.00     0.010 C 
HETATM   25  C1  UNL     1      26.811   5.074  48.900  1.00  0.00     0.007 C 
ENDBRANCH  23  24
ENDBRANCH   1  23
BRANCH   5  26
HETATM   26  N2  UNL     1      21.715   0.744  49.495  1.00  0.00    -0.383 N 
HETATM   27  H20 UNL     1      21.984  -0.260  49.328  1.00  0.00     0.157 HD
HETATM   28  H21 UNL     1      20.992   0.881  50.250  1.00  0.00     0.157 HD
ENDBRANCH   5  26
TORSDOF 7
ENDMDL
MODEL 8
REMARK VINA RESULT:      -7.3      3.886      6.140
REMARK  7 active torsions:
REMARK  status: ('A' for Active; 'I' for Inactive)
REMARK    1  A    between atoms: C2_2  and  C3_3 
REMARK    2  A    between atoms: C3_3  and  N1_4 
REMARK    3  A    between atoms: C5_6  and  C6_7 
REMARK    4  A    between atoms: C10_11  and  O1_12 
REMARK    5  A    between atoms: O1_12  and  C11_13 
REMARK    6  A    between atoms: C11_13  and  C12_14 
REMARK    7  A    between atoms: C18_21  and  N2_22 
ROOT
HETATM    1  N1  UNL     1      24.658  -0.006  53.241  1.00  0.00    -0.340 N 
HETATM    2  C4  UNL     1      24.669   0.857  52.222  1.00  0.00     0.106 A 
HETATM    3  C5  UNL     1      23.377   1.330  51.953  1.00  0.00     0.008 A 
HETATM    4  C17 UNL     1      22.608   0.682  52.890  1.00  0.00     0.068 A 
HETATM    5  C18 UNL     1      21.244   0.833  53.024  1.00  0.00     0.137 A 
HETATM    6  N3  UNL     1      20.617   0.133  53.992  1.00  0.00    -0.224 NA
HETATM    7  C19 UNL     1      21.370  -0.683  54.782  1.00  0.00     0.237 A 
HETATM    8  N4  UNL     1      22.721  -0.816  54.632  1.00  0.00    -0.223 NA
HETATM    9  C20 UNL     1      23.390  -0.133  53.674  1.00  0.00     0.146 A 
ENDROOT
BRANCH   3  10
HETATM   10  C6  UNL     1      23.177   2.270  50.860  1.00  0.00    -0.021 A 
HETATM   11  C7  UNL     1      22.624   1.727  49.697  1.00  0.00     0.012 A 
HETATM   12  C8  UNL     1      22.341   2.438  48.548  1.00  0.00     0.004 A 
HETATM   13  C9  UNL     1      22.629   3.780  48.561  1.00  0.00     0.037 A 
HETATM   14  C10 UNL     1      23.176   4.361  49.683  1.00  0.00     0.069 A 
HETATM   15  C16 UNL     1      23.445   3.621  50.814  1.00  0.00     0.049 A 
BRANCH  14  16
HETATM   16  O1  UNL     1      23.467   5.716  49.696  1.00  0.00    -0.349 OA
BRANCH  16  17
HETATM   17  C11 UNL     1      24.542   6.123  50.518  1.00  0.00     0.207 C 
BRANCH  17  18
HETATM   18  C12 UNL     1      25.808   6.376  49.765  1.00  0.00     0.145 C 
HETATM   19  C13 UNL     1      26.526   5.109  49.376  1.00  0.00     0.036 C 
HETATM   20  C14 UNL     1      27.546   5.659  48.390  1.00  0.00     0.029 C 
HETATM   21  C15 UNL     1      26.948   7.024  48.058  1.00  0.00     0.168 C 
HETATM   22  O2  UNL     1      25.646   7.011  48.555  1.00  0.00    -0.384 OA
ENDBRANCH  17  18
ENDBRANCH  16  17
ENDBRANCH  14  16
ENDBRANCH   3  10
BRANCH   1  23
HETATM   23  C3  UNL     1      25.775  -0.719  53.831  1.00  0.00     0.135 C 
BRANCH  23  24
HETATM   24  C2  UNL     1      26.841  -1.053  52.876  1.00  0.00     0.010 C 
HETATM   25  C1  UNL     1      26.914  -2.247  52.253  1.00  0.00     0.007 C 
ENDBRANCH  23  24
ENDBRANCH   1  23
BRANCH   5  26
HETATM   26  N2  UNL     1      20.457   1.678  52.221  1.00  0.00    -0.383 N 
HETATM   27  H20 UNL     1      20.126   2.677  52.262  1.00  0.00     0.157 HD
HETATM   28  H21 UNL     1      20.130   1.147  51.370  1.00  0.00     0.157 HD
ENDBRANCH   5  26
TORSDOF 7
ENDMDL
MODEL 9
REMARK VINA RESULT:      -7.3      3.610      5.700
REMARK  7 active torsions:
REMARK  status: ('A' for Active; 'I' for Inactive)
REMARK    1  A    between atoms: C2_2  and  C3_3 
REMARK    2  A    between atoms: C3_3  and  N1_4 
REMARK    3  A    between atoms: C5_6  and  C6_7 
REMARK    4  A    between atoms: C10_11  and  O1_12 
REMARK    5  A    between atoms: O1_12  and  C11_13 
REMARK    6  A    between atoms: C11_13  and  C12_14 
REMARK    7  A    between atoms: C18_21  and  N2_22 
ROOT
HETATM    1  N1  UNL     1      23.913   0.069  53.029  1.00  0.00    -0.340 N 
HETATM    2  C4  UNL     1      23.927   1.041  52.113  1.00  0.00     0.106 A 
HETATM    3  C5  UNL     1      25.111   1.787  52.193  1.00  0.00     0.008 A 
HETATM    4  C17 UNL     1      25.791   1.180  53.222  1.00  0.00     0.068 A 
HETATM    5  C18 UNL     1      27.034   1.568  53.676  1.00  0.00     0.137 A 
HETATM    6  N3  UNL     1      27.585   0.878  54.696  1.00  0.00    -0.224 NA
HETATM    7  C19 UNL     1      26.878  -0.164  55.219  1.00  0.00     0.237 A 
HETATM    8  N4  UNL     1      25.648  -0.531  54.753  1.00  0.00    -0.223 NA
HETATM    9  C20 UNL     1      25.059   0.133  53.732  1.00  0.00     0.146 A 
ENDROOT
BRANCH   3  10
HETATM   10  C6  UNL     1      25.307   2.909  51.287  1.00  0.00    -0.021 A 
HETATM   11  C7  UNL     1      26.332   2.750  50.350  1.00  0.00     0.012 A 
HETATM   12  C8  UNL     1      26.681   3.681  49.392  1.00  0.00     0.004 A 
HETATM   13  C9  UNL     1      25.960   4.849  49.369  1.00  0.00     0.037 A 
HETATM   14  C10 UNL     1      24.941   5.052  50.273  1.00  0.00     0.069 A 
HETATM   15  C16 UNL     1      24.619   4.100  51.216  1.00  0.00     0.049 A 
BRANCH  14  16
HETATM   16  O1  UNL     1      24.213   6.232  50.249  1.00  0.00    -0.349 OA
BRANCH  16  17
HETATM   17  C11 UNL     1      23.487   6.503  49.068  1.00  0.00     0.207 C 
BRANCH  17  18
HETATM   18  C12 UNL     1      22.066   6.045  49.121  1.00  0.00     0.145 C 
HETATM   19  C13 UNL     1      21.865   4.675  48.525  1.00  0.00     0.036 C 
HETATM   20  C14 UNL     1      20.452   4.369  49.002  1.00  0.00     0.029 C 
HETATM   21  C15 UNL     1      20.280   5.387  50.127  1.00  0.00     0.168 C 
HETATM   22  O2  UNL     1      21.550   5.899  50.388  1.00  0.00    -0.384 OA
ENDBRANCH  17  18
ENDBRANCH  16  17
ENDBRANCH  14  16
ENDBRANCH   3  10
BRANCH   1  23
HETATM   23  C3  UNL     1      22.880  -0.918  53.280  1.00  0.00     0.135 C 
BRANCH  23  24
HETATM   24  C2  UNL     1      22.034  -0.615  54.442  1.00  0.00     0.010 C 
HETATM   25  C1  UNL     1      20.954   0.188  54.368  1.00  0.00     0.007 C 
ENDBRANCH  23  24
ENDBRANCH   1  23
BRANCH   5  26
HETATM   26  N2  UNL     1      27.777   2.635  53.139  1.00  0.00    -0.383 N 
HETATM   27  H20 UNL     1      28.102   3.581  53.470  1.00  0.00     0.157 HD
HETATM   28  H21 UNL     1      28.068   2.396  52.153  1.00  0.00     0.157 HD
ENDBRANCH   5  26
TORSDOF 7
ENDMDL
