MODEL 1
REMARK VINA RESULT:      -7.7      0.000      0.000
REMARK  2 active torsions:
REMARK  status: ('A' for Active; 'I' for Inactive)
REMARK       I    between atoms: C2_2  and  N1_4 
REMARK    1  A    between atoms: N1_4  and  C3_5 
REMARK    2  A    between atoms: C8_12  and  N4_13 
ROOT
HETATM    1  C3  UNL     1      24.519  -0.006  52.931  1.00  0.00     0.081 C 
HETATM    2  C4  UNL     1      23.289  -0.312  52.569  1.00  0.00     0.035 C 
HETATM    3  C5  UNL     1      22.170  -1.152  52.982  1.00  0.00     0.022 C 
HETATM    4  C6  UNL     1      21.874  -1.642  54.197  1.00  0.00     0.118 C 
HETATM    5  N2  UNL     1      22.456  -1.575  55.511  1.00  0.00    -0.254 NA
HETATM    6  C7  UNL     1      23.681  -1.327  55.899  1.00  0.00     0.235 C 
HETATM    7  N3  UNL     1      24.912  -1.031  55.224  1.00  0.00    -0.222 NA
HETATM    8  C8  UNL     1      25.253  -0.520  54.078  1.00  0.00     0.158 C 
ENDROOT
BRANCH   8   9
HETATM    9  N4  UNL     1      26.676  -0.445  53.899  1.00  0.00    -0.335 N 
HETATM   10  C9  UNL     1      27.380   0.686  54.396  1.00  0.00     0.120 A 
HETATM   11  C10 UNL     1      28.690   0.690  54.196  1.00  0.00     0.087 A 
HETATM   12 CL1  UNL     1      29.667   2.045  54.771  1.00  0.00    -0.080 Cl
HETATM   13  C11 UNL     1      29.433  -0.365  53.516  1.00  0.00     0.137 A 
HETATM   14  F1  UNL     1      30.775  -0.313  53.336  1.00  0.00    -0.205 F 
HETATM   15  C12 UNL     1      28.723  -1.406  53.068  1.00  0.00     0.037 A 
HETATM   16  C13 UNL     1      27.253  -1.580  53.202  1.00  0.00     0.160 A 
ENDBRANCH   8   9
BRANCH   1  17
HETATM   17  N1  UNL     1      25.314   0.912  52.215  1.00  0.00    -0.324 N 
HETATM   18  C2  UNL     1      25.259   2.281  51.873  1.00  0.00     0.218 C 
HETATM   19  C1  UNL     1      26.222   3.080  51.088  1.00  0.00     0.117 C 
HETATM   20  O1  UNL     1      24.290   2.931  52.266  1.00  0.00    -0.274 OA
HETATM   21  H4  UNL     1      26.210   0.562  51.782  1.00  0.00     0.169 HD
ENDBRANCH   1  17
TORSDOF 2
ENDMDL
MODEL 2
REMARK VINA RESULT:      -7.5      3.275      5.494
REMARK  2 active torsions:
REMARK  status: ('A' for Active; 'I' for Inactive)
REMARK       I    between atoms: C2_2  and  N1_4 
REMARK    1  A    between atoms: N1_4  and  C3_5 
REMARK    2  A    between atoms: C8_12  and  N4_13 
ROOT
HETATM    1  C3  UNL     1      26.743   0.727  53.832  1.00  0.00     0.081 C 
HETATM    2  C4  UNL     1      27.983   1.108  54.064  1.00  0.00     0.035 C 
HETATM    3  C5  UNL     1      29.317   0.545  54.247  1.00  0.00     0.022 C 
HETATM    4  C6  UNL     1      29.816  -0.626  53.819  1.00  0.00     0.118 C 
HETATM    5  N2  UNL     1      29.324  -1.747  53.064  1.00  0.00    -0.254 NA
HETATM    6  C7  UNL     1      28.105  -2.180  52.860  1.00  0.00     0.235 C 
HETATM    7  N3  UNL     1      26.800  -1.753  53.275  1.00  0.00    -0.222 NA
HETATM    8  C8  UNL     1      26.257  -0.633  53.653  1.00  0.00     0.158 C 
ENDROOT
BRANCH   8   9
HETATM    9  N4  UNL     1      24.862  -0.765  53.968  1.00  0.00    -0.335 N 
HETATM   10  C9  UNL     1      23.894  -0.473  52.967  1.00  0.00     0.120 A 
HETATM   11  C10 UNL     1      22.626  -0.615  53.325  1.00  0.00     0.087 A 
HETATM   12 CL1  UNL     1      21.337  -0.280  52.164  1.00  0.00    -0.080 Cl
HETATM   13  C11 UNL     1      22.175  -1.041  54.645  1.00  0.00     0.137 A 
HETATM   14  F1  UNL     1      20.865  -1.172  54.962  1.00  0.00    -0.205 F 
HETATM   15  C12 UNL     1      23.126  -1.304  55.549  1.00  0.00     0.037 A 
HETATM   16  C13 UNL     1      24.592  -1.199  55.325  1.00  0.00     0.160 A 
ENDBRANCH   8   9
BRANCH   1  17
HETATM   17  N1  UNL     1      25.678   1.644  53.716  1.00  0.00    -0.324 N 
HETATM   18  C2  UNL     1      25.218   2.580  52.765  1.00  0.00     0.218 C 
HETATM   19  C1  UNL     1      24.044   3.475  52.836  1.00  0.00     0.117 C 
HETATM   20  O1  UNL     1      25.857   2.694  51.719  1.00  0.00    -0.274 OA
HETATM   21  H4  UNL     1      24.993   1.714  54.516  1.00  0.00     0.169 HD
ENDBRANCH   1  17
TORSDOF 2
ENDMDL
MODEL 3
REMARK VINA RESULT:      -7.4      2.391      4.870
REMARK  2 active torsions:
REMARK  status: ('A' for Active; 'I' for Inactive)
REMARK       I    between atoms: C2_2  and  N1_4 
REMARK    1  A    between atoms: N1_4  and  C3_5 
REMARK    2  A    between atoms: C8_12  and  N4_13 
ROOT
HETATM    1  C3  UNL     1      24.874   2.601  52.257  1.00  0.00     0.081 C 
HETATM    2  C4  UNL     1      24.065   3.633  52.130  1.00  0.00     0.035 C 
HETATM    3  C5  UNL     1      23.988   4.926  51.459  1.00  0.00     0.022 C 
HETATM    4  C6  UNL     1      24.610   5.350  50.347  1.00  0.00     0.118 C 
HETATM    5  N2  UNL     1      25.541   4.789  49.404  1.00  0.00    -0.254 NA
HETATM    6  C7  UNL     1      26.393   3.801  49.517  1.00  0.00     0.235 C 
HETATM    7  N3  UNL     1      26.754   2.897  50.570  1.00  0.00    -0.222 NA
HETATM    8  C8  UNL     1      26.179   2.422  51.636  1.00  0.00     0.158 C 
ENDROOT
BRANCH   8   9
HETATM    9  N4  UNL     1      27.017   1.516  52.369  1.00  0.00    -0.335 N 
HETATM   10  C9  UNL     1      26.872   0.115  52.166  1.00  0.00     0.120 A 
HETATM   11  C10 UNL     1      27.676  -0.662  52.875  1.00  0.00     0.087 A 
HETATM   12 CL1  UNL     1      27.585  -2.419  52.703  1.00  0.00    -0.080 Cl
HETATM   13  C11 UNL     1      28.675  -0.184  53.824  1.00  0.00     0.137 A 
HETATM   14  F1  UNL     1      29.476  -1.021  54.526  1.00  0.00    -0.205 F 
HETATM   15  C12 UNL     1      28.771   1.142  53.978  1.00  0.00     0.037 A 
HETATM   16  C13 UNL     1      27.954   2.162  53.269  1.00  0.00     0.160 A 
ENDBRANCH   8   9
BRANCH   1  17
HETATM   17  N1  UNL     1      24.554   1.480  53.049  1.00  0.00    -0.324 N 
HETATM   18  C2  UNL     1      23.534   0.505  53.097  1.00  0.00     0.218 C 
HETATM   19  C1  UNL     1      23.372  -0.624  54.038  1.00  0.00     0.117 C 
HETATM   20  O1  UNL     1      22.639   0.571  52.255  1.00  0.00    -0.274 OA
HETATM   21  H4  UNL     1      25.199   1.234  53.848  1.00  0.00     0.169 HD
ENDBRANCH   1  17
TORSDOF 2
ENDMDL
MODEL 4
REMARK VINA RESULT:      -7.3      3.375      5.791
REMARK  2 active torsions:
REMARK  status: ('A' for Active; 'I' for Inactive)
REMARK       I    between atoms: C2_2  and  N1_4 
REMARK    1  A    between atoms: N1_4  and  C3_5 
REMARK    2  A    between atoms: C8_12  and  N4_13 
ROOT
HETATM    1  C3  UNL     1      26.364   0.013  53.056  1.00  0.00     0.081 C 
HETATM    2  C4  UNL     1      27.187  -1.016  53.047  1.00  0.00     0.035 C 
HETATM    3  C5  UNL     1      28.614  -1.316  53.108  1.00  0.00     0.022 C 
HETATM    4  C6  UNL     1      29.618  -0.591  53.627  1.00  0.00     0.118 C 
HETATM    5  N2  UNL     1      29.741   0.680  54.290  1.00  0.00    -0.254 NA
HETATM    6  C7  UNL     1      28.969   1.737  54.277  1.00  0.00     0.235 C 
HETATM    7  N3  UNL     1      27.733   2.076  53.633  1.00  0.00    -0.222 NA
HETATM    8  C8  UNL     1      26.715   1.422  53.156  1.00  0.00     0.158 C 
ENDROOT
BRANCH   8   9
HETATM    9  N4  UNL     1      25.709   2.280  52.599  1.00  0.00    -0.335 N 
HETATM   10  C9  UNL     1      25.652   2.461  51.189  1.00  0.00     0.120 A 
HETATM   11  C10 UNL     1      24.699   3.267  50.744  1.00  0.00     0.087 A 
HETATM   12 CL1  UNL     1      24.533   3.566  49.010  1.00  0.00    -0.080 Cl
HETATM   13  C11 UNL     1      23.731   3.960  51.587  1.00  0.00     0.137 A 
HETATM   14  F1  UNL     1      22.774   4.775  51.082  1.00  0.00    -0.205 F 
HETATM   15  C12 UNL     1      23.829   3.755  52.905  1.00  0.00     0.037 A 
HETATM   16  C13 UNL     1      24.830   2.889  53.580  1.00  0.00     0.160 A 
ENDBRANCH   8   9
BRANCH   1  17
HETATM   17  N1  UNL     1      24.965  -0.136  52.974  1.00  0.00    -0.324 N 
HETATM   18  C2  UNL     1      23.924  -0.610  53.802  1.00  0.00     0.218 C 
HETATM   19  C1  UNL     1      22.475  -0.686  53.520  1.00  0.00     0.117 C 
HETATM   20  O1  UNL     1      24.227  -1.025  54.921  1.00  0.00    -0.274 OA
HETATM   21  H4  UNL     1      24.484   0.163  52.082  1.00  0.00     0.169 HD
ENDBRANCH   1  17
TORSDOF 2
ENDMDL
MODEL 5
REMARK VINA RESULT:      -7.1      4.762      7.616
REMARK  2 active torsions:
REMARK  status: ('A' for Active; 'I' for Inactive)
REMARK       I    between atoms: C2_2  and  N1_4 
REMARK    1  A    between atoms: N1_4  and  C3_5 
REMARK    2  A    between atoms: C8_12  and  N4_13 
ROOT
HETATM    1  C3  UNL     1      26.152   3.746  49.988  1.00  0.00     0.081 C 
HETATM    2  C4  UNL     1      27.117   4.230  49.232  1.00  0.00     0.035 C 
HETATM    3  C5  UNL     1      27.479   5.445  48.511  1.00  0.00     0.022 C 
HETATM    4  C6  UNL     1      27.087   6.712  48.722  1.00  0.00     0.118 C 
HETATM    5  N2  UNL     1      26.222   7.387  49.653  1.00  0.00    -0.254 NA
HETATM    6  C7  UNL     1      25.224   6.946  50.377  1.00  0.00     0.235 C 
HETATM    7  N3  UNL     1      24.589   5.671  50.550  1.00  0.00    -0.222 NA
HETATM    8  C8  UNL     1      24.934   4.425  50.404  1.00  0.00     0.158 C 
ENDROOT
BRANCH   8   9
HETATM    9  N4  UNL     1      23.876   3.510  50.726  1.00  0.00    -0.335 N 
HETATM   10  C9  UNL     1      23.254   2.771  49.680  1.00  0.00     0.120 A 
HETATM   11  C10 UNL     1      22.285   1.946  50.048  1.00  0.00     0.087 A 
HETATM   12 CL1  UNL     1      21.442   0.977  48.834  1.00  0.00    -0.080 Cl
HETATM   13  C11 UNL     1      21.830   1.753  51.420  1.00  0.00     0.137 A 
HETATM   14  F1  UNL     1      20.833   0.895  51.745  1.00  0.00    -0.205 F 
HETATM   15  C12 UNL     1      22.448   2.471  52.365  1.00  0.00     0.037 A 
HETATM   16  C13 UNL     1      23.550   3.442  52.138  1.00  0.00     0.160 A 
ENDBRANCH   8   9
BRANCH   1  17
HETATM   17  N1  UNL     1      26.188   2.441  50.520  1.00  0.00    -0.324 N 
HETATM   18  C2  UNL     1      26.859   1.768  51.564  1.00  0.00     0.218 C 
HETATM   19  C1  UNL     1      26.757   0.350  51.971  1.00  0.00     0.117 C 
HETATM   20  O1  UNL     1      27.645   2.419  52.253  1.00  0.00    -0.274 OA
HETATM   21  H4  UNL     1      25.579   1.704  50.072  1.00  0.00     0.169 HD
ENDBRANCH   1  17
TORSDOF 2
ENDMDL
MODEL 6
REMARK VINA RESULT:      -6.9      4.118      5.997
REMARK  2 active torsions:
REMARK  status: ('A' for Active; 'I' for Inactive)
REMARK       I    between atoms: C2_2  and  N1_4 
REMARK    1  A    between atoms: N1_4  and  C3_5 
REMARK    2  A    between atoms: C8_12  and  N4_13 
ROOT
HETATM    1  C3  UNL     1      26.665   2.288  52.225  1.00  0.00     0.081 C 
HETATM    2  C4  UNL     1      27.821   2.083  52.824  1.00  0.00     0.035 C 
HETATM    3  C5  UNL     1      28.454   1.162  53.762  1.00  0.00     0.022 C 
HETATM    4  C6  UNL     1      28.144  -0.114  54.048  1.00  0.00     0.118 C 
HETATM    5  N2  UNL     1      27.154  -1.061  53.610  1.00  0.00    -0.254 NA
HETATM    6  C7  UNL     1      25.978  -0.887  53.061  1.00  0.00     0.235 C 
HETATM    7  N3  UNL     1      25.203   0.258  52.678  1.00  0.00    -0.222 NA
HETATM    8  C8  UNL     1      25.453   1.492  52.351  1.00  0.00     0.158 C 
ENDROOT
BRANCH   8   9
HETATM    9  N4  UNL     1      24.268   2.241  52.045  1.00  0.00    -0.335 N 
HETATM   10  C9  UNL     1      23.458   1.842  50.945  1.00  0.00     0.120 A 
HETATM   11  C10 UNL     1      22.380   2.579  50.719  1.00  0.00     0.087 A 
HETATM   12 CL1  UNL     1      21.300   2.176  49.380  1.00  0.00    -0.080 Cl
HETATM   13  C11 UNL     1      21.984   3.741  51.507  1.00  0.00     0.137 A 
HETATM   14  F1  UNL     1      20.870   4.462  51.234  1.00  0.00    -0.205 F 
HETATM   15  C12 UNL     1      22.780   4.073  52.529  1.00  0.00     0.037 A 
HETATM   16  C13 UNL     1      24.025   3.365  52.929  1.00  0.00     0.160 A 
ENDBRANCH   8   9
BRANCH   1  17
HETATM   17  N1  UNL     1      26.453   3.360  51.334  1.00  0.00    -0.324 N 
HETATM   18  C2  UNL     1      26.604   3.600  49.951  1.00  0.00     0.218 C 
HETATM   19  C1  UNL     1      26.319   4.834  49.187  1.00  0.00     0.117 C 
HETATM   20  O1  UNL     1      27.028   2.679  49.253  1.00  0.00    -0.274 OA
HETATM   21  H4  UNL     1      26.085   4.268  51.727  1.00  0.00     0.169 HD
ENDBRANCH   1  17
TORSDOF 2
ENDMDL
MODEL 7
REMARK VINA RESULT:      -6.6      4.474      6.567
REMARK  2 active torsions:
REMARK  status: ('A' for Active; 'I' for Inactive)
REMARK       I    between atoms: C2_2  and  N1_4 
REMARK    1  A    between atoms: N1_4  and  C3_5 
REMARK    2  A    between atoms: C8_12  and  N4_13 
ROOT
HETATM    1  C3  UNL     1      23.486   0.316  53.064  1.00  0.00     0.081 C 
HETATM    2  C4  UNL     1      24.296  -0.599  53.557  1.00  0.00     0.035 C 
HETATM    3  C5  UNL     1      25.696  -0.782  53.925  1.00  0.00     0.022 C 
HETATM    4  C6  UNL     1      26.615   0.135  54.269  1.00  0.00     0.118 C 
HETATM    5  N2  UNL     1      26.645   1.566  54.417  1.00  0.00    -0.254 NA
HETATM    6  C7  UNL     1      25.890   2.502  53.900  1.00  0.00     0.235 C 
HETATM    7  N3  UNL     1      24.766   2.513  53.010  1.00  0.00    -0.222 NA
HETATM    8  C8  UNL     1      23.827   1.677  52.675  1.00  0.00     0.158 C 
ENDROOT
BRANCH   8   9
HETATM    9  N4  UNL     1      22.919   2.214  51.701  1.00  0.00    -0.335 N 
HETATM   10  C9  UNL     1      23.004   1.771  50.352  1.00  0.00     0.120 A 
HETATM   11  C10 UNL     1      22.137   2.309  49.507  1.00  0.00     0.087 A 
HETATM   12 CL1  UNL     1      22.151   1.833  47.805  1.00  0.00    -0.080 Cl
HETATM   13  C11 UNL     1      21.128   3.299  49.865  1.00  0.00     0.137 A 
HETATM   14  F1  UNL     1      20.263   3.819  48.962  1.00  0.00    -0.205 F 
HETATM   15  C12 UNL     1      21.090   3.682  51.146  1.00  0.00     0.037 A 
HETATM   16  C13 UNL     1      21.981   3.188  52.229  1.00  0.00     0.160 A 
ENDBRANCH   8   9
BRANCH   1  17
HETATM   17  N1  UNL     1      22.114   0.077  52.847  1.00  0.00    -0.324 N 
HETATM   18  C2  UNL     1      20.954  -0.075  53.637  1.00  0.00     0.218 C 
HETATM   19  C1  UNL     1      19.564  -0.332  53.205  1.00  0.00     0.117 C 
HETATM   20  O1  UNL     1      21.077   0.013  54.859  1.00  0.00    -0.274 OA
HETATM   21  H4  UNL     1      21.779  -0.035  51.852  1.00  0.00     0.169 HD
ENDBRANCH   1  17
TORSDOF 2
ENDMDL
MODEL 8
REMARK VINA RESULT:      -6.5      3.778      5.584
REMARK  2 active torsions:
REMARK  status: ('A' for Active; 'I' for Inactive)
REMARK       I    between atoms: C2_2  and  N1_4 
REMARK    1  A    between atoms: N1_4  and  C3_5 
REMARK    2  A    between atoms: C8_12  and  N4_13 
ROOT
HETATM    1  C3  UNL     1      24.152   1.839  52.254  1.00  0.00     0.081 C 
HETATM    2  C4  UNL     1      23.500   1.037  53.072  1.00  0.00     0.035 C 
HETATM    3  C5  UNL     1      22.200   0.389  53.213  1.00  0.00     0.022 C 
HETATM    4  C6  UNL     1      21.300   0.067  52.270  1.00  0.00     0.118 C 
HETATM    5  N2  UNL     1      21.206   0.198  50.840  1.00  0.00    -0.254 NA
HETATM    6  C7  UNL     1      21.799   1.018  50.009  1.00  0.00     0.235 C 
HETATM    7  N3  UNL     1      22.747   2.085  50.149  1.00  0.00    -0.222 NA
HETATM    8  C8  UNL     1      23.664   2.417  51.010  1.00  0.00     0.158 C 
ENDROOT
BRANCH   8   9
HETATM    9  N4  UNL     1      24.352   3.626  50.658  1.00  0.00    -0.335 N 
HETATM   10  C9  UNL     1      25.529   3.550  49.862  1.00  0.00     0.120 A 
HETATM   11  C10 UNL     1      26.113   4.704  49.575  1.00  0.00     0.087 A 
HETATM   12 CL1  UNL     1      27.582   4.730  48.592  1.00  0.00    -0.080 Cl
HETATM   13  C11 UNL     1      25.637   6.011  50.012  1.00  0.00     0.137 A 
HETATM   14  F1  UNL     1      26.271   7.164  49.691  1.00  0.00    -0.205 F 
HETATM   15  C12 UNL     1      24.526   6.027  50.758  1.00  0.00     0.037 A 
HETATM   16  C13 UNL     1      23.741   4.836  51.176  1.00  0.00     0.160 A 
ENDBRANCH   8   9
BRANCH   1  17
HETATM   17  N1  UNL     1      25.478   2.253  52.496  1.00  0.00    -0.324 N 
HETATM   18  C2  UNL     1      26.685   1.659  52.921  1.00  0.00     0.218 C 
HETATM   19  C1  UNL     1      28.009   2.286  53.120  1.00  0.00     0.117 C 
HETATM   20  O1  UNL     1      26.674   0.453  53.168  1.00  0.00    -0.274 OA
HETATM   21  H4  UNL     1      25.717   3.270  52.345  1.00  0.00     0.169 HD
ENDBRANCH   1  17
TORSDOF 2
ENDMDL
MODEL 9
REMARK VINA RESULT:      -6.2      4.103      5.683
REMARK  2 active torsions:
REMARK  status: ('A' for Active; 'I' for Inactive)
REMARK       I    between atoms: C2_2  and  N1_4 
REMARK    1  A    between atoms: N1_4  and  C3_5 
REMARK    2  A    between atoms: C8_12  and  N4_13 
ROOT
HETATM    1  C3  UNL     1      23.336   0.667  52.744  1.00  0.00     0.081 C 
HETATM    2  C4  UNL     1      23.405  -0.250  53.688  1.00  0.00     0.035 C 
HETATM    3  C5  UNL     1      22.549  -0.959  54.633  1.00  0.00     0.022 C 
HETATM    4  C6  UNL     1      21.229  -1.201  54.574  1.00  0.00     0.118 C 
HETATM    5  N2  UNL     1      20.163  -0.906  53.654  1.00  0.00    -0.254 NA
HETATM    6  C7  UNL     1      20.043   0.028  52.744  1.00  0.00     0.235 C 
HETATM    7  N3  UNL     1      20.873   1.106  52.290  1.00  0.00    -0.222 NA
HETATM    8  C8  UNL     1      22.147   1.368  52.282  1.00  0.00     0.158 C 
ENDROOT
BRANCH   8   9
HETATM    9  N4  UNL     1      22.454   2.636  51.682  1.00  0.00    -0.335 N 
HETATM   10  C9  UNL     1      22.485   2.745  50.264  1.00  0.00     0.120 A 
HETATM   11  C10 UNL     1      22.776   3.943  49.779  1.00  0.00     0.087 A 
HETATM   12 CL1  UNL     1      22.842   4.196  48.031  1.00  0.00    -0.080 Cl
HETATM   13  C11 UNL     1      23.058   5.124  50.587  1.00  0.00     0.137 A 
HETATM   14  F1  UNL     1      23.350   6.329  50.041  1.00  0.00    -0.205 F 
HETATM   15  C12 UNL     1      23.016   4.967  51.915  1.00  0.00     0.037 A 
HETATM   16  C13 UNL     1      22.708   3.702  52.632  1.00  0.00     0.160 A 
ENDBRANCH   8   9
BRANCH   1  17
HETATM   17  N1  UNL     1      24.468   1.099  52.022  1.00  0.00    -0.324 N 
HETATM   18  C2  UNL     1      25.664   1.796  52.296  1.00  0.00     0.218 C 
HETATM   19  C1  UNL     1      26.757   2.163  51.371  1.00  0.00     0.117 C 
HETATM   20  O1  UNL     1      25.860   2.164  53.454  1.00  0.00    -0.274 OA
HETATM   21  H4  UNL     1      24.510   0.886  50.989  1.00  0.00     0.169 HD
ENDBRANCH   1  17
TORSDOF 2
ENDMDL
