MODEL 1
REMARK VINA RESULT:      -7.8      0.000      0.000
REMARK  2 active torsions:
REMARK  status: ('A' for Active; 'I' for Inactive)
REMARK    1  A    between atoms: C9_11  and  C10_12 
REMARK    2  A    between atoms: C9_11  and  C11_14 
ROOT
HETATM    1  C1  UNL     1      22.288   1.817  47.823  1.00  0.00     0.067 C 
HETATM    2  C2  UNL     1      22.990   3.019  48.422  1.00  0.00    -0.000 C 
HETATM    3  C3  UNL     1      22.513   4.208  47.983  1.00  0.00     0.016 C 
HETATM    4  C4  UNL     1      22.797   5.680  48.189  1.00  0.00     0.143 C 
HETATM    5  N1  UNL     1      24.030   5.754  48.833  1.00  0.00    -0.416 N 
HETATM    6  C5  UNL     1      24.396   6.728  49.758  1.00  0.00     0.144 C 
HETATM    7  C6  UNL     1      23.728   6.466  51.109  1.00  0.00     0.291 C 
HETATM    8  N2  UNL     1      23.805   5.008  51.337  1.00  0.00     0.088 N 
HETATM    9  C7  UNL     1      23.375   4.842  52.680  1.00  0.00     0.310 C 
HETATM   10  C8  UNL     1      25.043   4.425  51.031  1.00  0.00     0.315 C 
HETATM   11  C9  UNL     1      24.989   2.981  50.517  1.00  0.00     0.140 C 
HETATM   12  N4  UNL     1      23.991   2.994  49.486  1.00  0.00    -0.373 N 
HETATM   13  H7  UNL     1      24.862   5.549  48.213  1.00  0.00     0.153 HD
HETATM   14  H23 UNL     1      23.155   2.533  49.961  1.00  0.00     0.161 HD
ENDROOT
BRANCH  11  15
HETATM   15  C10 UNL     1      26.395   2.778  49.977  1.00  0.00     0.269 C 
HETATM   16  O1  UNL     1      26.891   3.720  49.382  1.00  0.00    -0.304 OA
ENDBRANCH  11  15
BRANCH  11  17
HETATM   17  C11 UNL     1      24.738   1.952  51.520  1.00  0.00     0.011 A 
HETATM   18  C12 UNL     1      23.882   1.078  51.977  1.00  0.00     0.087 A 
HETATM   19  C13 UNL     1      24.315   0.295  53.125  1.00  0.00     0.248 A 
HETATM   20  O2  UNL     1      23.642  -0.592  53.706  1.00  0.00    -0.268 OA
HETATM   21  N3  UNL     1      25.632   0.792  53.378  1.00  0.00    -0.310 N 
HETATM   22  C14 UNL     1      26.481   0.297  54.446  1.00  0.00     0.163 A 
HETATM   23  C18 UNL     1      25.910   1.816  52.397  1.00  0.00     0.050 A 
HETATM   24  C15 UNL     1      27.773   0.993  54.472  1.00  0.00     0.035 A 
HETATM   25  C16 UNL     1      28.154   1.947  53.645  1.00  0.00     0.116 A 
HETATM   26  F1  UNL     1      29.333   2.606  53.641  1.00  0.00    -0.206 F 
HETATM   27  C17 UNL     1      27.147   2.288  52.641  1.00  0.00     0.072 A 
ENDBRANCH  11  17
TORSDOF 2
ENDMDL
MODEL 2
REMARK VINA RESULT:      -7.5      4.291      5.903
REMARK  2 active torsions:
REMARK  status: ('A' for Active; 'I' for Inactive)
REMARK    1  A    between atoms: C9_11  and  C10_12 
REMARK    2  A    between atoms: C9_11  and  C11_14 
ROOT
HETATM    1  C1  UNL     1      20.967  -1.013  54.412  1.00  0.00     0.067 C 
HETATM    2  C2  UNL     1      20.098  -0.551  53.259  1.00  0.00    -0.000 C 
HETATM    3  C3  UNL     1      18.812  -0.966  53.341  1.00  0.00     0.016 C 
HETATM    4  C4  UNL     1      17.537  -0.849  52.534  1.00  0.00     0.143 C 
HETATM    5  N1  UNL     1      17.911  -0.372  51.280  1.00  0.00    -0.416 N 
HETATM    6  C5  UNL     1      17.141   0.465  50.477  1.00  0.00     0.144 C 
HETATM    7  C6  UNL     1      17.168   1.899  51.009  1.00  0.00     0.291 C 
HETATM    8  N2  UNL     1      18.562   2.165  51.421  1.00  0.00     0.088 N 
HETATM    9  C7  UNL     1      18.583   3.557  51.701  1.00  0.00     0.310 C 
HETATM   10  C8  UNL     1      19.540   1.723  50.518  1.00  0.00     0.315 C 
HETATM   11  C9  UNL     1      20.866   1.271  51.144  1.00  0.00     0.140 C 
HETATM   12  N4  UNL     1      20.488   0.377  52.200  1.00  0.00    -0.373 N 
HETATM   13  H7  UNL     1      18.390  -1.085  50.662  1.00  0.00     0.153 HD
HETATM   14  H23 UNL     1      20.630   0.970  53.074  1.00  0.00     0.161 HD
ENDROOT
BRANCH  11  15
HETATM   15  C10 UNL     1      21.545   0.563  49.983  1.00  0.00     0.269 C 
HETATM   16  O1  UNL     1      21.244   0.942  48.864  1.00  0.00    -0.304 OA
ENDBRANCH  11  15
BRANCH  11  17
HETATM   17  C11 UNL     1      21.753   2.333  51.606  1.00  0.00     0.011 A 
HETATM   18  C12 UNL     1      21.937   3.623  51.689  1.00  0.00     0.087 A 
HETATM   19  C13 UNL     1      23.166   4.056  52.339  1.00  0.00     0.248 A 
HETATM   20  O2  UNL     1      23.524   5.246  52.519  1.00  0.00    -0.268 OA
HETATM   21  N3  UNL     1      23.800   2.821  52.688  1.00  0.00    -0.310 N 
HETATM   22  C14 UNL     1      25.076   2.745  53.375  1.00  0.00     0.163 A 
HETATM   23  C18 UNL     1      22.942   1.747  52.242  1.00  0.00     0.050 A 
HETATM   24  C15 UNL     1      25.483   1.353  53.597  1.00  0.00     0.035 A 
HETATM   25  C16 UNL     1      24.803   0.281  53.237  1.00  0.00     0.116 A 
HETATM   26  F1  UNL     1      25.150  -1.011  53.426  1.00  0.00    -0.206 F 
HETATM   27  C17 UNL     1      23.543   0.586  52.564  1.00  0.00     0.072 A 
ENDBRANCH  11  17
TORSDOF 2
ENDMDL
MODEL 3
REMARK VINA RESULT:      -7.5      2.705      4.000
REMARK  2 active torsions:
REMARK  status: ('A' for Active; 'I' for Inactive)
REMARK    1  A    between atoms: C9_11  and  C10_12 
REMARK    2  A    between atoms: C9_11  and  C11_14 
ROOT
HETATM    1  C1  UNL     1      26.321   5.770  49.046  1.00  0.00     0.067 C 
HETATM    2  C2  UNL     1      24.843   5.483  49.224  1.00  0.00    -0.000 C 
HETATM    3  C3  UNL     1      24.061   6.001  48.248  1.00  0.00     0.016 C 
HETATM    4  C4  UNL     1      22.590   6.064  47.898  1.00  0.00     0.143 C 
HETATM    5  N1  UNL     1      21.900   5.662  49.038  1.00  0.00    -0.416 N 
HETATM    6  C5  UNL     1      20.694   4.965  49.044  1.00  0.00     0.144 C 
HETATM    7  C6  UNL     1      20.918   3.496  48.684  1.00  0.00     0.291 C 
HETATM    8  N2  UNL     1      22.144   3.075  49.394  1.00  0.00     0.088 N 
HETATM    9  C7  UNL     1      22.189   1.668  49.207  1.00  0.00     0.310 C 
HETATM   10  C8  UNL     1      22.232   3.502  50.726  1.00  0.00     0.315 C 
HETATM   11  C9  UNL     1      23.650   3.783  51.242  1.00  0.00     0.140 C 
HETATM   12  N4  UNL     1      24.248   4.616  50.239  1.00  0.00    -0.373 N 
HETATM   13  H7  UNL     1      21.877   6.379  49.816  1.00  0.00     0.153 HD
HETATM   14  H23 UNL     1      24.896   3.942  49.728  1.00  0.00     0.161 HD
ENDROOT
BRANCH  11  15
HETATM   15  C10 UNL     1      23.379   4.523  52.542  1.00  0.00     0.269 C 
HETATM   16  O1  UNL     1      22.264   4.996  52.677  1.00  0.00    -0.304 OA
ENDBRANCH  11  15
BRANCH  11  17
HETATM   17  C11 UNL     1      24.464   2.613  51.550  1.00  0.00     0.011 A 
HETATM   18  C12 UNL     1      25.622   2.032  51.386  1.00  0.00     0.087 A 
HETATM   19  C13 UNL     1      25.789   0.738  52.033  1.00  0.00     0.248 A 
HETATM   20  O2  UNL     1      26.823   0.026  51.997  1.00  0.00    -0.268 OA
HETATM   21  N3  UNL     1      24.527   0.531  52.673  1.00  0.00    -0.310 N 
HETATM   22  C14 UNL     1      24.216  -0.647  53.463  1.00  0.00     0.163 A 
HETATM   23  C18 UNL     1      23.696   1.678  52.385  1.00  0.00     0.050 A 
HETATM   24  C15 UNL     1      22.848  -0.592  53.992  1.00  0.00     0.035 A 
HETATM   25  C16 UNL     1      21.984   0.386  53.803  1.00  0.00     0.116 A 
HETATM   26  F1  UNL     1      20.721   0.467  54.276  1.00  0.00    -0.206 F 
HETATM   27  C17 UNL     1      22.506   1.477  52.983  1.00  0.00     0.072 A 
ENDBRANCH  11  17
TORSDOF 2
ENDMDL
MODEL 4
REMARK VINA RESULT:      -7.5      1.843      2.695
REMARK  2 active torsions:
REMARK  status: ('A' for Active; 'I' for Inactive)
REMARK    1  A    between atoms: C9_11  and  C10_12 
REMARK    2  A    between atoms: C9_11  and  C11_14 
ROOT
HETATM    1  C1  UNL     1      26.479   3.328  49.758  1.00  0.00     0.067 C 
HETATM    2  C2  UNL     1      25.104   3.951  49.892  1.00  0.00    -0.000 C 
HETATM    3  C3  UNL     1      24.738   4.711  48.833  1.00  0.00     0.016 C 
HETATM    4  C4  UNL     1      23.558   5.558  48.409  1.00  0.00     0.143 C 
HETATM    5  N1  UNL     1      22.780   5.743  49.548  1.00  0.00    -0.416 N 
HETATM    6  C5  UNL     1      21.393   5.858  49.564  1.00  0.00     0.144 C 
HETATM    7  C6  UNL     1      20.736   4.492  49.362  1.00  0.00     0.291 C 
HETATM    8  N2  UNL     1      21.517   3.530  50.169  1.00  0.00     0.088 N 
HETATM    9  C7  UNL     1      20.752   2.335  50.123  1.00  0.00     0.310 C 
HETATM   10  C8  UNL     1      21.854   3.974  51.455  1.00  0.00     0.315 C 
HETATM   11  C9  UNL     1      23.189   3.456  52.008  1.00  0.00     0.140 C 
HETATM   12  N4  UNL     1      24.138   3.689  50.957  1.00  0.00    -0.373 N 
HETATM   13  H7  UNL     1      23.182   6.426  50.249  1.00  0.00     0.153 HD
HETATM   14  H23 UNL     1      24.280   2.716  50.547  1.00  0.00     0.161 HD
ENDROOT
BRANCH  11  15
HETATM   15  C10 UNL     1      23.408   4.355  53.214  1.00  0.00     0.269 C 
HETATM   16  O1  UNL     1      23.727   5.509  52.982  1.00  0.00    -0.304 OA
ENDBRANCH  11  15
BRANCH  11  17
HETATM   17  C11 UNL     1      23.199   2.073  52.468  1.00  0.00     0.011 A 
HETATM   18  C12 UNL     1      22.499   0.980  52.614  1.00  0.00     0.087 A 
HETATM   19  C13 UNL     1      23.193  -0.155  53.205  1.00  0.00     0.248 A 
HETATM   20  O2  UNL     1      22.699  -1.288  53.424  1.00  0.00    -0.268 OA
HETATM   21  N3  UNL     1      24.507   0.359  53.444  1.00  0.00    -0.310 N 
HETATM   22  C14 UNL     1      25.578  -0.426  54.030  1.00  0.00     0.163 A 
HETATM   23  C18 UNL     1      24.528   1.733  52.997  1.00  0.00     0.050 A 
HETATM   24  C15 UNL     1      26.809   0.360  54.163  1.00  0.00     0.035 A 
HETATM   25  C16 UNL     1      26.966   1.619  53.803  1.00  0.00     0.116 A 
HETATM   26  F1  UNL     1      28.084   2.369  53.911  1.00  0.00    -0.206 F 
HETATM   27  C17 UNL     1      25.763   2.217  53.230  1.00  0.00     0.072 A 
ENDBRANCH  11  17
TORSDOF 2
ENDMDL
MODEL 5
REMARK VINA RESULT:      -7.4      3.259      4.216
REMARK  2 active torsions:
REMARK  status: ('A' for Active; 'I' for Inactive)
REMARK    1  A    between atoms: C9_11  and  C10_12 
REMARK    2  A    between atoms: C9_11  and  C11_14 
ROOT
HETATM    1  C1  UNL     1      22.635   2.153  47.943  1.00  0.00     0.067 C 
HETATM    2  C2  UNL     1      21.473   2.448  48.871  1.00  0.00    -0.000 C 
HETATM    3  C3  UNL     1      20.271   2.493  48.250  1.00  0.00     0.016 C 
HETATM    4  C4  UNL     1      18.824   2.746  48.614  1.00  0.00     0.143 C 
HETATM    5  N1  UNL     1      18.833   3.293  49.895  1.00  0.00    -0.416 N 
HETATM    6  C5  UNL     1      17.848   3.099  50.859  1.00  0.00     0.144 C 
HETATM    7  C6  UNL     1      17.964   1.704  51.476  1.00  0.00     0.291 C 
HETATM    8  N2  UNL     1      19.408   1.456  51.676  1.00  0.00     0.088 N 
HETATM    9  C7  UNL     1      19.453   0.258  52.439  1.00  0.00     0.310 C 
HETATM   10  C8  UNL     1      20.124   2.533  52.214  1.00  0.00     0.315 C 
HETATM   11  C9  UNL     1      21.584   2.654  51.758  1.00  0.00     0.140 C 
HETATM   12  N4  UNL     1      21.534   2.541  50.329  1.00  0.00    -0.373 N 
HETATM   13  H7  UNL     1      19.155   4.300  49.940  1.00  0.00     0.153 HD
HETATM   14  H23 UNL     1      21.883   1.549  50.158  1.00  0.00     0.161 HD
ENDROOT
BRANCH  11  15
HETATM   15  C10 UNL     1      21.954   4.052  52.229  1.00  0.00     0.269 C 
HETATM   16  O1  UNL     1      21.457   4.981  51.616  1.00  0.00    -0.304 OA
ENDBRANCH  11  15
BRANCH  11  17
HETATM   17  C11 UNL     1      22.524   1.713  52.357  1.00  0.00     0.011 A 
HETATM   18  C12 UNL     1      22.669   0.717  53.188  1.00  0.00     0.087 A 
HETATM   19  C13 UNL     1      24.019   0.192  53.332  1.00  0.00     0.248 A 
HETATM   20  O2  UNL     1      24.363  -0.760  54.076  1.00  0.00    -0.268 OA
HETATM   21  N3  UNL     1      24.783   1.014  52.446  1.00  0.00    -0.310 N 
HETATM   22  C14 UNL     1      26.212   0.859  52.243  1.00  0.00     0.163 A 
HETATM   23  C18 UNL     1      23.876   1.960  51.835  1.00  0.00     0.050 A 
HETATM   24  C15 UNL     1      26.728   1.842  51.284  1.00  0.00     0.035 A 
HETATM   25  C16 UNL     1      26.018   2.762  50.661  1.00  0.00     0.116 A 
HETATM   26  F1  UNL     1      26.462   3.679  49.774  1.00  0.00    -0.206 F 
HETATM   27  C17 UNL     1      24.598   2.738  51.006  1.00  0.00     0.072 A 
ENDBRANCH  11  17
TORSDOF 2
ENDMDL
MODEL 6
REMARK VINA RESULT:      -7.4      4.695      5.915
REMARK  2 active torsions:
REMARK  status: ('A' for Active; 'I' for Inactive)
REMARK    1  A    between atoms: C9_11  and  C10_12 
REMARK    2  A    between atoms: C9_11  and  C11_14 
ROOT
HETATM    1  C1  UNL     1      18.615   3.953  51.339  1.00  0.00     0.067 C 
HETATM    2  C2  UNL     1      20.068   3.844  50.921  1.00  0.00    -0.000 C 
HETATM    3  C3  UNL     1      20.650   5.034  50.645  1.00  0.00     0.016 C 
HETATM    4  C4  UNL     1      21.998   5.549  50.187  1.00  0.00     0.143 C 
HETATM    5  N1  UNL     1      22.705   4.440  49.730  1.00  0.00    -0.416 N 
HETATM    6  C5  UNL     1      24.084   4.271  49.825  1.00  0.00     0.144 C 
HETATM    7  C6  UNL     1      24.487   3.915  51.256  1.00  0.00     0.291 C 
HETATM    8  N2  UNL     1      23.479   2.951  51.746  1.00  0.00     0.088 N 
HETATM    9  C7  UNL     1      24.009   2.490  52.981  1.00  0.00     0.310 C 
HETATM   10  C8  UNL     1      23.131   1.945  50.833  1.00  0.00     0.315 C 
HETATM   11  C9  UNL     1      21.685   1.441  50.920  1.00  0.00     0.140 C 
HETATM   12  N4  UNL     1      20.881   2.630  50.932  1.00  0.00    -0.373 N 
HETATM   13  H7  UNL     1      22.384   4.068  48.793  1.00  0.00     0.153 HD
HETATM   14  H23 UNL     1      20.592   2.709  51.955  1.00  0.00     0.161 HD
ENDROOT
BRANCH  11  15
HETATM   15  C10 UNL     1      21.543   0.644  49.633  1.00  0.00     0.269 C 
HETATM   16  O1  UNL     1      21.075   1.236  48.675  1.00  0.00    -0.304 OA
ENDBRANCH  11  15
BRANCH  11  17
HETATM   17  C11 UNL     1      21.380   0.553  52.036  1.00  0.00     0.011 A 
HETATM   18  C12 UNL     1      21.853  -0.053  53.091  1.00  0.00     0.087 A 
HETATM   19  C13 UNL     1      20.910  -0.875  53.837  1.00  0.00     0.248 A 
HETATM   20  O2  UNL     1      21.168  -1.532  54.875  1.00  0.00    -0.268 OA
HETATM   21  N3  UNL     1      19.695  -0.726  53.096  1.00  0.00    -0.310 N 
HETATM   22  C14 UNL     1      18.449  -1.370  53.469  1.00  0.00     0.163 A 
HETATM   23  C18 UNL     1      19.967   0.151  51.981  1.00  0.00     0.050 A 
HETATM   24  C15 UNL     1      17.373  -1.043  52.527  1.00  0.00     0.035 A 
HETATM   25  C16 UNL     1      17.482  -0.264  51.468  1.00  0.00     0.116 A 
HETATM   26  F1  UNL     1      16.514   0.056  50.582  1.00  0.00    -0.206 F 
HETATM   27  C17 UNL     1      18.823   0.285  51.281  1.00  0.00     0.072 A 
ENDBRANCH  11  17
TORSDOF 2
ENDMDL
MODEL 7
REMARK VINA RESULT:      -7.3      2.854      5.929
REMARK  2 active torsions:
REMARK  status: ('A' for Active; 'I' for Inactive)
REMARK    1  A    between atoms: C9_11  and  C10_12 
REMARK    2  A    between atoms: C9_11  and  C11_14 
ROOT
HETATM    1  C1  UNL     1      22.142   2.673  47.675  1.00  0.00     0.067 C 
HETATM    2  C2  UNL     1      22.467   2.421  49.134  1.00  0.00    -0.000 C 
HETATM    3  C3  UNL     1      21.867   1.322  49.649  1.00  0.00     0.016 C 
HETATM    4  C4  UNL     1      21.792   0.597  50.975  1.00  0.00     0.143 C 
HETATM    5  N1  UNL     1      22.316   1.468  51.927  1.00  0.00    -0.416 N 
HETATM    6  C5  UNL     1      23.028   1.085  53.061  1.00  0.00     0.144 C 
HETATM    7  C6  UNL     1      24.451   0.666  52.689  1.00  0.00     0.291 C 
HETATM    8  N2  UNL     1      24.921   1.639  51.680  1.00  0.00     0.088 N 
HETATM    9  C7  UNL     1      26.302   1.343  51.529  1.00  0.00     0.310 C 
HETATM   10  C8  UNL     1      24.626   2.979  51.967  1.00  0.00     0.315 C 
HETATM   11  C9  UNL     1      24.377   3.879  50.751  1.00  0.00     0.140 C 
HETATM   12  N4  UNL     1      23.440   3.154  49.942  1.00  0.00    -0.373 N 
HETATM   13  H7  UNL     1      21.679   2.272  52.184  1.00  0.00     0.153 HD
HETATM   14  H23 UNL     1      24.050   2.777  49.154  1.00  0.00     0.161 HD
ENDROOT
BRANCH  11  15
HETATM   15  C10 UNL     1      23.773   5.121  51.387  1.00  0.00     0.269 C 
HETATM   16  O1  UNL     1      23.420   5.019  52.550  1.00  0.00    -0.304 OA
ENDBRANCH  11  15
BRANCH  11  17
HETATM   17  C11 UNL     1      25.559   4.287  50.000  1.00  0.00     0.011 A 
HETATM   18  C12 UNL     1      26.783   3.977  49.666  1.00  0.00     0.087 A 
HETATM   19  C13 UNL     1      27.472   4.925  48.801  1.00  0.00     0.248 A 
HETATM   20  O2  UNL     1      28.645   4.808  48.369  1.00  0.00    -0.268 OA
HETATM   21  N3  UNL     1      26.495   5.951  48.602  1.00  0.00    -0.310 N 
HETATM   22  C14 UNL     1      26.728   7.128  47.786  1.00  0.00     0.163 A 
HETATM   23  C18 UNL     1      25.308   5.574  49.336  1.00  0.00     0.050 A 
HETATM   24  C15 UNL     1      25.555   8.009  47.767  1.00  0.00     0.035 A 
HETATM   25  C16 UNL     1      24.414   7.792  48.394  1.00  0.00     0.116 A 
HETATM   26  F1  UNL     1      23.318   8.581  48.396  1.00  0.00    -0.206 F 
HETATM   27  C17 UNL     1      24.392   6.544  49.153  1.00  0.00     0.072 A 
ENDBRANCH  11  17
TORSDOF 2
ENDMDL
MODEL 8
REMARK VINA RESULT:      -7.2      2.489      3.856
REMARK  2 active torsions:
REMARK  status: ('A' for Active; 'I' for Inactive)
REMARK    1  A    between atoms: C9_11  and  C10_12 
REMARK    2  A    between atoms: C9_11  and  C11_14 
ROOT
HETATM    1  C1  UNL     1      26.520   1.733  51.208  1.00  0.00     0.067 C 
HETATM    2  C2  UNL     1      25.828   2.992  50.724  1.00  0.00    -0.000 C 
HETATM    3  C3  UNL     1      26.568   3.731  49.865  1.00  0.00     0.016 C 
HETATM    4  C4  UNL     1      26.440   5.027  49.094  1.00  0.00     0.143 C 
HETATM    5  N1  UNL     1      25.342   5.694  49.632  1.00  0.00    -0.416 N 
HETATM    6  C5  UNL     1      24.474   6.518  48.920  1.00  0.00     0.144 C 
HETATM    7  C6  UNL     1      23.522   5.684  48.062  1.00  0.00     0.291 C 
HETATM    8  N2  UNL     1      23.109   4.534  48.894  1.00  0.00     0.088 N 
HETATM    9  C7  UNL     1      22.073   3.916  48.144  1.00  0.00     0.310 C 
HETATM   10  C8  UNL     1      22.780   4.851  50.219  1.00  0.00     0.315 C 
HETATM   11  C9  UNL     1      23.088   3.765  51.258  1.00  0.00     0.140 C 
HETATM   12  N4  UNL     1      24.441   3.371  50.989  1.00  0.00    -0.373 N 
HETATM   13  H7  UNL     1      25.513   6.127  50.583  1.00  0.00     0.153 HD
HETATM   14  H23 UNL     1      24.321   2.435  50.495  1.00  0.00     0.161 HD
ENDROOT
BRANCH  11  15
HETATM   15  C10 UNL     1      22.941   4.521  52.568  1.00  0.00     0.269 C 
HETATM   16  O1  UNL     1      23.967   4.737  53.190  1.00  0.00    -0.304 OA
ENDBRANCH  11  15
BRANCH  11  17
HETATM   17  C11 UNL     1      22.175   2.628  51.289  1.00  0.00     0.011 A 
HETATM   18  C12 UNL     1      21.042   2.143  50.857  1.00  0.00     0.087 A 
HETATM   19  C13 UNL     1      20.692   0.811  51.326  1.00  0.00     0.248 A 
HETATM   20  O2  UNL     1      19.653   0.174  51.025  1.00  0.00    -0.268 OA
HETATM   21  N3  UNL     1      21.796   0.463  52.167  1.00  0.00    -0.310 N 
HETATM   22  C14 UNL     1      21.900  -0.804  52.867  1.00  0.00     0.163 A 
HETATM   23  C18 UNL     1      22.721   1.574  52.157  1.00  0.00     0.050 A 
HETATM   24  C15 UNL     1      23.133  -0.881  53.658  1.00  0.00     0.035 A 
HETATM   25  C16 UNL     1      24.057   0.056  53.744  1.00  0.00     0.116 A 
HETATM   26  F1  UNL     1      25.201   0.016  54.461  1.00  0.00    -0.206 F 
HETATM   27  C17 UNL     1      23.756   1.248  52.954  1.00  0.00     0.072 A 
ENDBRANCH  11  17
TORSDOF 2
ENDMDL
MODEL 9
REMARK VINA RESULT:      -7.2      2.853      5.755
REMARK  2 active torsions:
REMARK  status: ('A' for Active; 'I' for Inactive)
REMARK    1  A    between atoms: C9_11  and  C10_12 
REMARK    2  A    between atoms: C9_11  and  C11_14 
ROOT
HETATM    1  C1  UNL     1      26.043   2.126  52.274  1.00  0.00     0.067 C 
HETATM    2  C2  UNL     1      24.612   1.737  51.961  1.00  0.00    -0.000 C 
HETATM    3  C3  UNL     1      24.136   0.730  52.731  1.00  0.00     0.016 C 
HETATM    4  C4  UNL     1      22.859  -0.068  52.877  1.00  0.00     0.143 C 
HETATM    5  N1  UNL     1      22.098   0.200  51.742  1.00  0.00    -0.416 N 
HETATM    6  C5  UNL     1      20.707   0.254  51.702  1.00  0.00     0.144 C 
HETATM    7  C6  UNL     1      20.198   1.554  52.327  1.00  0.00     0.291 C 
HETATM    8  N2  UNL     1      21.102   2.624  51.857  1.00  0.00     0.088 N 
HETATM    9  C7  UNL     1      20.471   3.824  52.281  1.00  0.00     0.310 C 
HETATM   10  C8  UNL     1      21.426   2.569  50.494  1.00  0.00     0.315 C 
HETATM   11  C9  UNL     1      22.824   3.080  50.122  1.00  0.00     0.140 C 
HETATM   12  N4  UNL     1      23.711   2.425  51.039  1.00  0.00    -0.373 N 
HETATM   13  H7  UNL     1      22.442  -0.270  50.860  1.00  0.00     0.153 HD
HETATM   14  H23 UNL     1      23.947   3.199  51.733  1.00  0.00     0.161 HD
ENDROOT
BRANCH  11  15
HETATM   15  C10 UNL     1      22.978   2.585  48.693  1.00  0.00     0.269 C 
HETATM   16  O1  UNL     1      22.183   1.739  48.322  1.00  0.00    -0.304 OA
ENDBRANCH  11  15
BRANCH  11  17
HETATM   17  C11 UNL     1      22.998   4.528  50.119  1.00  0.00     0.011 A 
HETATM   18  C12 UNL     1      22.431   5.683  50.342  1.00  0.00     0.087 A 
HETATM   19  C13 UNL     1      23.258   6.860  50.119  1.00  0.00     0.248 A 
HETATM   20  O2  UNL     1      22.899   8.052  50.279  1.00  0.00    -0.268 OA
HETATM   21  N3  UNL     1      24.505   6.302  49.695  1.00  0.00    -0.310 N 
HETATM   22  C14 UNL     1      25.666   7.106  49.357  1.00  0.00     0.163 A 
HETATM   23  C18 UNL     1      24.363   4.864  49.688  1.00  0.00     0.050 A 
HETATM   24  C15 UNL     1      26.800   6.269  48.952  1.00  0.00     0.035 A 
HETATM   25  C16 UNL     1      26.806   4.951  48.894  1.00  0.00     0.116 A 
HETATM   26  F1  UNL     1      27.832   4.152  48.526  1.00  0.00    -0.206 F 
HETATM   27  C17 UNL     1      25.536   4.342  49.282  1.00  0.00     0.072 A 
ENDBRANCH  11  17
TORSDOF 2
ENDMDL
