MODEL 1
REMARK VINA RESULT:      -8.0      0.000      0.000
REMARK  6 active torsions:
REMARK  status: ('A' for Active; 'I' for Inactive)
REMARK    1  A    between atoms: N1_2  and  C3_4 
REMARK    2  A    between atoms: C3_4  and  C4_5 
REMARK    3  A    between atoms: C5_6  and  C6_7 
REMARK       I    between atoms: C6_7  and  N2_9 
REMARK    4  A    between atoms: N2_9  and  C7_10 
REMARK    5  A    between atoms: C13_19  and  N6_21 
REMARK    6  A    between atoms: N6_21  and  C15_22 
ROOT
HETATM    1  C7  UNL     1      25.428   3.271  50.441  1.00  0.00     0.241 C 
HETATM    2  N3  UNL     1      26.122   4.001  49.447  1.00  0.00    -0.272 NA
HETATM    3  C8  UNL     1      26.456   5.164  49.011  1.00  0.00     0.132 C 
HETATM    4  C9  UNL     1      26.134   6.506  49.556  1.00  0.00     0.135 C 
HETATM    5  N4  UNL     1      25.072   6.901  50.186  1.00  0.00    -0.270 NA
HETATM    6  C10 UNL     1      23.853   6.289  50.599  1.00  0.00     0.137 C 
HETATM    7  C11 UNL     1      23.609   4.999  50.780  1.00  0.00     0.071 C 
HETATM    8  C12 UNL     1      22.204   4.965  51.200  1.00  0.00     0.099 C 
HETATM    9  N5  UNL     1      21.066   4.920  51.538  1.00  0.00    -0.192 NA
HETATM   10  C13 UNL     1      24.036   3.597  50.774  1.00  0.00     0.105 C 
HETATM   11  C14 UNL     1      23.131   2.882  49.756  1.00  0.00     0.049 C 
ENDROOT
BRANCH  10  12
HETATM   12  N6  UNL     1      23.735   2.939  52.050  1.00  0.00    -0.372 N 
HETATM   13  H19 UNL     1      23.929   3.649  52.817  1.00  0.00     0.161 HD
BRANCH  12  14
HETATM   14  C15 UNL     1      23.286   1.669  52.475  1.00  0.00     0.030 A 
HETATM   15  C16 UNL     1      24.086   0.644  52.921  1.00  0.00     0.029 A 
HETATM   16  C17 UNL     1      23.667  -0.597  53.346  1.00  0.00     0.004 A 
HETATM   17  C18 UNL     1      22.292  -0.786  53.303  1.00  0.00     0.019 A 
HETATM   18  C19 UNL     1      21.462   0.202  52.867  1.00  0.00     0.013 A 
HETATM   19 BR1  UNL     1      19.566  -0.099  52.821  1.00  0.00    -0.051 Br
HETATM   20  C20 UNL     1      21.935   1.425  52.454  1.00  0.00     0.048 A 
ENDBRANCH  12  14
ENDBRANCH  10  12
BRANCH   1  21
HETATM   21  N2  UNL     1      26.293   3.277  51.638  1.00  0.00    -0.332 N 
HETATM   22  C6  UNL     1      27.096   2.163  52.006  1.00  0.00     0.242 C 
HETATM   23  O1  UNL     1      27.065   1.137  51.279  1.00  0.00    -0.269 OA
HETATM   24  H11 UNL     1      26.298   4.152  52.225  1.00  0.00     0.165 HD
BRANCH  22  25
HETATM   25  C5  UNL     1      27.922   2.242  53.200  1.00  0.00     0.072 C 
HETATM   26  C4  UNL     1      28.101   1.239  54.036  1.00  0.00     0.008 C 
BRANCH  26  27
HETATM   27  C3  UNL     1      27.666  -0.158  54.174  1.00  0.00     0.299 C 
BRANCH  27  28
HETATM   28  N1  UNL     1      28.118  -1.028  53.104  1.00  0.00     0.083 N 
HETATM   29  C1  UNL     1      27.141  -2.035  52.744  1.00  0.00     0.309 C 
HETATM   30  C2  UNL     1      29.394  -1.635  53.430  1.00  0.00     0.309 C 
ENDBRANCH  27  28
ENDBRANCH  26  27
ENDBRANCH  22  25
ENDBRANCH   1  21
TORSDOF 6
ENDMDL
MODEL 2
REMARK VINA RESULT:      -7.8      1.746      2.360
REMARK  6 active torsions:
REMARK  status: ('A' for Active; 'I' for Inactive)
REMARK    1  A    between atoms: N1_2  and  C3_4 
REMARK    2  A    between atoms: C3_4  and  C4_5 
REMARK    3  A    between atoms: C5_6  and  C6_7 
REMARK       I    between atoms: C6_7  and  N2_9 
REMARK    4  A    between atoms: N2_9  and  C7_10 
REMARK    5  A    between atoms: C13_19  and  N6_21 
REMARK    6  A    between atoms: N6_21  and  C15_22 
ROOT
HETATM    1  C7  UNL     1      23.192   2.566  50.885  1.00  0.00     0.241 C 
HETATM    2  N3  UNL     1      23.757   3.285  49.805  1.00  0.00    -0.272 NA
HETATM    3  C8  UNL     1      23.895   4.432  49.239  1.00  0.00     0.132 C 
HETATM    4  C9  UNL     1      23.354   5.755  49.639  1.00  0.00     0.135 C 
HETATM    5  N4  UNL     1      22.241   6.036  50.240  1.00  0.00    -0.270 NA
HETATM    6  C10 UNL     1      21.139   5.282  50.737  1.00  0.00     0.137 C 
HETATM    7  C11 UNL     1      21.112   3.998  51.062  1.00  0.00     0.071 C 
HETATM    8  C12 UNL     1      19.731   3.780  51.507  1.00  0.00     0.099 C 
HETATM    9  N5  UNL     1      18.615   3.586  51.868  1.00  0.00    -0.192 NA
HETATM   10  C13 UNL     1      21.765   2.693  51.203  1.00  0.00     0.105 C 
HETATM   11  C14 UNL     1      20.992   1.731  50.285  1.00  0.00     0.049 C 
ENDROOT
BRANCH  10  12
HETATM   12  N6  UNL     1      21.575   2.140  52.548  1.00  0.00    -0.372 N 
HETATM   13  H19 UNL     1      21.663   2.951  53.231  1.00  0.00     0.161 HD
BRANCH  12  14
HETATM   14  C15 UNL     1      21.326   0.871  53.117  1.00  0.00     0.030 A 
HETATM   15  C16 UNL     1      22.245   0.100  53.787  1.00  0.00     0.029 A 
HETATM   16  C17 UNL     1      22.021  -1.136  54.353  1.00  0.00     0.004 A 
HETATM   17  C18 UNL     1      20.723  -1.608  54.209  1.00  0.00     0.019 A 
HETATM   18  C19 UNL     1      19.780  -0.876  53.552  1.00  0.00     0.013 A 
HETATM   19 BR1  UNL     1      17.997  -1.564  53.373  1.00  0.00    -0.051 Br
HETATM   20  C20 UNL     1      20.060   0.354  53.005  1.00  0.00     0.048 A 
ENDBRANCH  12  14
ENDBRANCH  10  12
BRANCH   1  21
HETATM   21  N2  UNL     1      24.042   2.847  52.059  1.00  0.00    -0.332 N 
HETATM   22  C6  UNL     1      25.031   1.937  52.522  1.00  0.00     0.242 C 
HETATM   23  O1  UNL     1      25.183   0.853  51.903  1.00  0.00    -0.269 OA
HETATM   24  H11 UNL     1      23.891   3.764  52.556  1.00  0.00     0.165 HD
BRANCH  22  25
HETATM   25  C5  UNL     1      25.829   2.282  53.687  1.00  0.00     0.072 C 
HETATM   26  C4  UNL     1      27.094   1.944  53.837  1.00  0.00     0.008 C 
BRANCH  26  27
HETATM   27  C3  UNL     1      28.124   1.212  53.087  1.00  0.00     0.299 C 
BRANCH  27  28
HETATM   28  N1  UNL     1      28.466  -0.080  53.652  1.00  0.00     0.083 N 
HETATM   29  C1  UNL     1      29.883  -0.367  53.591  1.00  0.00     0.309 C 
HETATM   30  C2  UNL     1      27.694  -1.140  53.032  1.00  0.00     0.309 C 
ENDBRANCH  27  28
ENDBRANCH  26  27
ENDBRANCH  22  25
ENDBRANCH   1  21
TORSDOF 6
ENDMDL
MODEL 3
REMARK VINA RESULT:      -7.6      2.765      5.256
REMARK  6 active torsions:
REMARK  status: ('A' for Active; 'I' for Inactive)
REMARK    1  A    between atoms: N1_2  and  C3_4 
REMARK    2  A    between atoms: C3_4  and  C4_5 
REMARK    3  A    between atoms: C5_6  and  C6_7 
REMARK       I    between atoms: C6_7  and  N2_9 
REMARK    4  A    between atoms: N2_9  and  C7_10 
REMARK    5  A    between atoms: C13_19  and  N6_21 
REMARK    6  A    between atoms: N6_21  and  C15_22 
ROOT
HETATM    1  C7  UNL     1      23.280   2.215  51.990  1.00  0.00     0.241 C 
HETATM    2  N3  UNL     1      22.450   1.717  53.022  1.00  0.00    -0.272 NA
HETATM    3  C8  UNL     1      21.475   0.937  53.329  1.00  0.00     0.132 C 
HETATM    4  C9  UNL     1      20.665   0.050  52.458  1.00  0.00     0.135 C 
HETATM    5  N4  UNL     1      20.322   0.211  51.218  1.00  0.00    -0.270 NA
HETATM    6  C10 UNL     1      20.541   1.211  50.228  1.00  0.00     0.137 C 
HETATM    7  C11 UNL     1      21.502   2.123  50.190  1.00  0.00     0.071 C 
HETATM    8  C12 UNL     1      21.228   2.867  48.956  1.00  0.00     0.099 C 
HETATM    9  N5  UNL     1      21.019   3.482  47.961  1.00  0.00    -0.192 NA
HETATM   10  C13 UNL     1      22.698   2.755  50.756  1.00  0.00     0.105 C 
HETATM   11  C14 UNL     1      22.315   4.222  51.022  1.00  0.00     0.049 C 
ENDROOT
BRANCH  10  12
HETATM   12  N6  UNL     1      23.780   2.837  49.770  1.00  0.00    -0.372 N 
HETATM   13  H19 UNL     1      23.732   1.951  49.184  1.00  0.00     0.161 HD
BRANCH  12  14
HETATM   14  C15 UNL     1      24.807   3.748  49.439  1.00  0.00     0.030 A 
HETATM   15  C16 UNL     1      26.156   3.487  49.488  1.00  0.00     0.029 A 
HETATM   16  C17 UNL     1      27.172   4.358  49.164  1.00  0.00     0.004 A 
HETATM   17  C18 UNL     1      26.744   5.613  48.749  1.00  0.00     0.019 A 
HETATM   18  C19 UNL     1      25.417   5.914  48.685  1.00  0.00     0.013 A 
HETATM   19 BR1  UNL     1      24.866   7.660  48.108  1.00  0.00    -0.051 Br
HETATM   20  C20 UNL     1      24.444   5.004  49.022  1.00  0.00     0.048 A 
ENDBRANCH  12  14
ENDBRANCH  10  12
BRANCH   1  21
HETATM   21  N2  UNL     1      24.271   1.156  51.709  1.00  0.00    -0.332 N 
HETATM   22  C6  UNL     1      25.605   1.210  52.195  1.00  0.00     0.242 C 
HETATM   23  O1  UNL     1      25.949   2.199  52.891  1.00  0.00    -0.269 OA
HETATM   24  H11 UNL     1      23.951   0.339  51.124  1.00  0.00     0.165 HD
BRANCH  22  25
HETATM   25  C5  UNL     1      26.525   0.130  51.875  1.00  0.00     0.072 C 
HETATM   26  C4  UNL     1      27.324  -0.440  52.756  1.00  0.00     0.008 C 
BRANCH  26  27
HETATM   27  C3  UNL     1      27.635  -0.316  54.187  1.00  0.00     0.299 C 
BRANCH  27  28
HETATM   28  N1  UNL     1      29.005   0.072  54.465  1.00  0.00     0.083 N 
HETATM   29  C1  UNL     1      29.239   1.489  54.287  1.00  0.00     0.309 C 
HETATM   30  C2  UNL     1      29.937  -0.712  53.677  1.00  0.00     0.309 C 
ENDBRANCH  27  28
ENDBRANCH  26  27
ENDBRANCH  22  25
ENDBRANCH   1  21
TORSDOF 6
ENDMDL
MODEL 4
REMARK VINA RESULT:      -7.6      2.993      5.866
REMARK  6 active torsions:
REMARK  status: ('A' for Active; 'I' for Inactive)
REMARK    1  A    between atoms: N1_2  and  C3_4 
REMARK    2  A    between atoms: C3_4  and  C4_5 
REMARK    3  A    between atoms: C5_6  and  C6_7 
REMARK       I    between atoms: C6_7  and  N2_9 
REMARK    4  A    between atoms: N2_9  and  C7_10 
REMARK    5  A    between atoms: C13_19  and  N6_21 
REMARK    6  A    between atoms: N6_21  and  C15_22 
ROOT
HETATM    1  C7  UNL     1      21.866   3.881  51.344  1.00  0.00     0.241 C 
HETATM    2  N3  UNL     1      21.268   5.137  51.086  1.00  0.00    -0.272 NA
HETATM    3  C8  UNL     1      21.035   6.052  50.212  1.00  0.00     0.132 C 
HETATM    4  C9  UNL     1      21.426   6.114  48.782  1.00  0.00     0.135 C 
HETATM    5  N4  UNL     1      22.484   5.642  48.201  1.00  0.00    -0.270 NA
HETATM    6  C10 UNL     1      23.638   4.924  48.626  1.00  0.00     0.137 C 
HETATM    7  C11 UNL     1      23.784   4.191  49.721  1.00  0.00     0.071 C 
HETATM    8  C12 UNL     1      25.163   3.700  49.632  1.00  0.00     0.099 C 
HETATM    9  N5  UNL     1      26.280   3.297  49.576  1.00  0.00    -0.192 NA
HETATM   10  C13 UNL     1      23.260   3.624  50.968  1.00  0.00     0.105 C 
HETATM   11  C14 UNL     1      24.158   4.172  52.091  1.00  0.00     0.049 C 
ENDROOT
BRANCH  10  12
HETATM   12  N6  UNL     1      23.460   2.172  51.022  1.00  0.00    -0.372 N 
HETATM   13  H19 UNL     1      23.136   1.780  50.088  1.00  0.00     0.161 HD
BRANCH  12  14
HETATM   14  C15 UNL     1      23.939   1.230  51.959  1.00  0.00     0.030 A 
HETATM   15  C16 UNL     1      25.255   0.873  52.134  1.00  0.00     0.029 A 
HETATM   16  C17 UNL     1      25.744  -0.037  53.045  1.00  0.00     0.004 A 
HETATM   17  C18 UNL     1      24.773  -0.626  53.846  1.00  0.00     0.019 A 
HETATM   18  C19 UNL     1      23.458  -0.301  53.706  1.00  0.00     0.013 A 
HETATM   19 BR1  UNL     1      22.148  -1.139  54.833  1.00  0.00    -0.051 Br
HETATM   20  C20 UNL     1      23.026   0.615  52.778  1.00  0.00     0.048 A 
ENDBRANCH  12  14
ENDBRANCH  10  12
BRANCH   1  21
HETATM   21  N2  UNL     1      20.952   2.865  50.783  1.00  0.00    -0.332 N 
HETATM   22  C6  UNL     1      19.895   2.288  51.539  1.00  0.00     0.242 C 
HETATM   23  O1  UNL     1      19.737   2.661  52.729  1.00  0.00    -0.269 OA
HETATM   24  H11 UNL     1      21.109   2.575  49.782  1.00  0.00     0.165 HD
BRANCH  22  25
HETATM   25  C5  UNL     1      19.036   1.292  50.919  1.00  0.00     0.072 C 
HETATM   26  C4  UNL     1      18.693   0.157  51.496  1.00  0.00     0.008 C 
BRANCH  26  27
HETATM   27  C3  UNL     1      18.937  -0.538  52.767  1.00  0.00     0.299 C 
BRANCH  27  28
HETATM   28  N1  UNL     1      17.753  -1.140  53.352  1.00  0.00     0.083 N 
HETATM   29  C1  UNL     1      17.923  -2.546  53.651  1.00  0.00     0.309 C 
HETATM   30  C2  UNL     1      16.591  -0.925  52.511  1.00  0.00     0.309 C 
ENDBRANCH  27  28
ENDBRANCH  26  27
ENDBRANCH  22  25
ENDBRANCH   1  21
TORSDOF 6
ENDMDL
MODEL 5
REMARK VINA RESULT:      -7.6      2.545      5.837
REMARK  6 active torsions:
REMARK  status: ('A' for Active; 'I' for Inactive)
REMARK    1  A    between atoms: N1_2  and  C3_4 
REMARK    2  A    between atoms: C3_4  and  C4_5 
REMARK    3  A    between atoms: C5_6  and  C6_7 
REMARK       I    between atoms: C6_7  and  N2_9 
REMARK    4  A    between atoms: N2_9  and  C7_10 
REMARK    5  A    between atoms: C13_19  and  N6_21 
REMARK    6  A    between atoms: N6_21  and  C15_22 
ROOT
HETATM    1  C7  UNL     1      23.525   3.309  51.232  1.00  0.00     0.241 C 
HETATM    2  N3  UNL     1      23.984   4.577  50.801  1.00  0.00    -0.272 NA
HETATM    3  C8  UNL     1      24.882   5.224  50.146  1.00  0.00     0.132 C 
HETATM    4  C9  UNL     1      26.072   4.715  49.419  1.00  0.00     0.135 C 
HETATM    5  N4  UNL     1      26.816   3.687  49.684  1.00  0.00    -0.270 NA
HETATM    6  C10 UNL     1      26.832   2.681  50.693  1.00  0.00     0.137 C 
HETATM    7  C11 UNL     1      25.830   2.288  51.467  1.00  0.00     0.071 C 
HETATM    8  C12 UNL     1      26.425   1.238  52.301  1.00  0.00     0.099 C 
HETATM    9  N5  UNL     1      26.892   0.387  52.986  1.00  0.00    -0.192 NA
HETATM   10  C13 UNL     1      24.434   2.374  51.905  1.00  0.00     0.105 C 
HETATM   11  C14 UNL     1      24.480   2.754  53.395  1.00  0.00     0.049 C 
ENDROOT
BRANCH  10  12
HETATM   12  N6  UNL     1      23.785   1.058  51.888  1.00  0.00    -0.372 N 
HETATM   13  H19 UNL     1      24.019   0.610  50.952  1.00  0.00     0.161 HD
BRANCH  12  14
HETATM   14  C15 UNL     1      22.971   0.298  52.756  1.00  0.00     0.030 A 
HETATM   15  C16 UNL     1      23.407  -0.397  53.860  1.00  0.00     0.029 A 
HETATM   16  C17 UNL     1      22.630  -1.138  54.722  1.00  0.00     0.004 A 
HETATM   17  C18 UNL     1      21.277  -1.156  54.406  1.00  0.00     0.019 A 
HETATM   18  C19 UNL     1      20.803  -0.482  53.321  1.00  0.00     0.013 A 
HETATM   19 BR1  UNL     1      18.926  -0.533  52.917  1.00  0.00    -0.051 Br
HETATM   20  C20 UNL     1      21.625   0.243  52.493  1.00  0.00     0.048 A 
ENDBRANCH  12  14
ENDBRANCH  10  12
BRANCH   1  21
HETATM   21  N2  UNL     1      22.868   2.689  50.064  1.00  0.00    -0.332 N 
HETATM   22  C6  UNL     1      21.464   2.757  49.852  1.00  0.00     0.242 C 
HETATM   23  O1  UNL     1      20.761   3.371  50.695  1.00  0.00    -0.269 OA
HETATM   24  H11 UNL     1      23.485   2.183  49.376  1.00  0.00     0.165 HD
BRANCH  22  25
HETATM   25  C5  UNL     1      20.887   2.120  48.680  1.00  0.00     0.072 C 
HETATM   26  C4  UNL     1      20.401   2.782  47.648  1.00  0.00     0.008 C 
BRANCH  26  27
HETATM   27  C3  UNL     1      20.224   4.181  47.235  1.00  0.00     0.299 C 
BRANCH  27  28
HETATM   28  N1  UNL     1      21.315   4.706  46.433  1.00  0.00     0.083 N 
HETATM   29  C1  UNL     1      21.816   3.751  45.467  1.00  0.00     0.309 C 
HETATM   30  C2  UNL     1      22.386   5.204  47.275  1.00  0.00     0.309 C 
ENDBRANCH  27  28
ENDBRANCH  26  27
ENDBRANCH  22  25
ENDBRANCH   1  21
TORSDOF 6
ENDMDL
MODEL 6
REMARK VINA RESULT:      -7.3      2.775      6.110
REMARK  6 active torsions:
REMARK  status: ('A' for Active; 'I' for Inactive)
REMARK    1  A    between atoms: N1_2  and  C3_4 
REMARK    2  A    between atoms: C3_4  and  C4_5 
REMARK    3  A    between atoms: C5_6  and  C6_7 
REMARK       I    between atoms: C6_7  and  N2_9 
REMARK    4  A    between atoms: N2_9  and  C7_10 
REMARK    5  A    between atoms: C13_19  and  N6_21 
REMARK    6  A    between atoms: N6_21  and  C15_22 
ROOT
HETATM    1  C7  UNL     1      23.413   3.639  51.474  1.00  0.00     0.241 C 
HETATM    2  N3  UNL     1      23.882   4.933  51.145  1.00  0.00    -0.272 NA
HETATM    3  C8  UNL     1      24.699   5.627  50.435  1.00  0.00     0.132 C 
HETATM    4  C9  UNL     1      25.706   5.176  49.443  1.00  0.00     0.135 C 
HETATM    5  N4  UNL     1      26.409   4.086  49.427  1.00  0.00    -0.270 NA
HETATM    6  C10 UNL     1      26.524   2.943  50.268  1.00  0.00     0.137 C 
HETATM    7  C11 UNL     1      25.644   2.487  51.149  1.00  0.00     0.071 C 
HETATM    8  C12 UNL     1      26.296   1.299  51.710  1.00  0.00     0.099 C 
HETATM    9  N5  UNL     1      26.810   0.335  52.177  1.00  0.00    -0.192 NA
HETATM   10  C13 UNL     1      24.353   2.572  51.838  1.00  0.00     0.105 C 
HETATM   11  C14 UNL     1      24.680   2.726  53.333  1.00  0.00     0.049 C 
ENDROOT
BRANCH  10  12
HETATM   12  N6  UNL     1      23.618   1.306  51.758  1.00  0.00    -0.372 N 
HETATM   13  H19 UNL     1      23.657   0.989  50.743  1.00  0.00     0.161 HD
BRANCH  12  14
HETATM   14  C15 UNL     1      22.911   0.465  52.645  1.00  0.00     0.030 A 
HETATM   15  C16 UNL     1      23.461  -0.246  53.686  1.00  0.00     0.029 A 
HETATM   16  C17 UNL     1      22.788  -1.065  54.565  1.00  0.00     0.004 A 
HETATM   17  C18 UNL     1      21.420  -1.149  54.340  1.00  0.00     0.019 A 
HETATM   18  C19 UNL     1      20.834  -0.462  53.321  1.00  0.00     0.013 A 
HETATM   19 BR1  UNL     1      18.939  -0.607  53.043  1.00  0.00    -0.051 Br
HETATM   20  C20 UNL     1      21.555   0.342  52.471  1.00  0.00     0.048 A 
ENDBRANCH  12  14
ENDBRANCH  10  12
BRANCH   1  21
HETATM   21  N2  UNL     1      22.522   3.229  50.369  1.00  0.00    -0.332 N 
HETATM   22  C6  UNL     1      21.131   3.520  50.362  1.00  0.00     0.242 C 
HETATM   23  O1  UNL     1      20.646   4.151  51.336  1.00  0.00    -0.269 OA
HETATM   24  H11 UNL     1      22.959   2.703  49.567  1.00  0.00     0.165 HD
BRANCH  22  25
HETATM   25  C5  UNL     1      20.316   3.082  49.240  1.00  0.00     0.072 C 
HETATM   26  C4  UNL     1      19.159   2.465  49.369  1.00  0.00     0.008 C 
BRANCH  26  27
HETATM   27  C3  UNL     1      18.285   2.001  50.456  1.00  0.00     0.299 C 
BRANCH  27  28
HETATM   28  N1  UNL     1      17.008   2.688  50.526  1.00  0.00     0.083 N 
HETATM   29  C1  UNL     1      17.145   4.117  50.716  1.00  0.00     0.309 C 
HETATM   30  C2  UNL     1      16.160   2.107  51.548  1.00  0.00     0.309 C 
ENDBRANCH  27  28
ENDBRANCH  26  27
ENDBRANCH  22  25
ENDBRANCH   1  21
TORSDOF 6
ENDMDL
MODEL 7
REMARK VINA RESULT:      -7.1      3.334      6.531
REMARK  6 active torsions:
REMARK  status: ('A' for Active; 'I' for Inactive)
REMARK    1  A    between atoms: N1_2  and  C3_4 
REMARK    2  A    between atoms: C3_4  and  C4_5 
REMARK    3  A    between atoms: C5_6  and  C6_7 
REMARK       I    between atoms: C6_7  and  N2_9 
REMARK    4  A    between atoms: N2_9  and  C7_10 
REMARK    5  A    between atoms: C13_19  and  N6_21 
REMARK    6  A    between atoms: N6_21  and  C15_22 
ROOT
HETATM    1  C7  UNL     1      22.020   3.360  51.587  1.00  0.00     0.241 C 
HETATM    2  N3  UNL     1      21.280   4.539  51.331  1.00  0.00    -0.272 NA
HETATM    3  C8  UNL     1      20.936   5.418  50.458  1.00  0.00     0.132 C 
HETATM    4  C9  UNL     1      21.305   5.520  49.024  1.00  0.00     0.135 C 
HETATM    5  N4  UNL     1      22.406   5.171  48.435  1.00  0.00    -0.270 NA
HETATM    6  C10 UNL     1      23.639   4.592  48.852  1.00  0.00     0.137 C 
HETATM    7  C11 UNL     1      23.876   3.884  49.947  1.00  0.00     0.071 C 
HETATM    8  C12 UNL     1      25.303   3.555  49.848  1.00  0.00     0.099 C 
HETATM    9  N5  UNL     1      26.457   3.282  49.783  1.00  0.00    -0.192 NA
HETATM   10  C13 UNL     1      23.432   3.264  51.200  1.00  0.00     0.105 C 
HETATM   11  C14 UNL     1      24.269   3.915  52.314  1.00  0.00     0.049 C 
ENDROOT
BRANCH  10  12
HETATM   12  N6  UNL     1      23.797   1.845  51.255  1.00  0.00    -0.372 N 
HETATM   13  H19 UNL     1      23.644   1.448  50.280  1.00  0.00     0.161 HD
BRANCH  12  14
HETATM   14  C15 UNL     1      24.265   0.937  52.231  1.00  0.00     0.030 A 
HETATM   15  C16 UNL     1      23.489   0.299  53.169  1.00  0.00     0.029 A 
HETATM   16  C17 UNL     1      23.924  -0.593  54.124  1.00  0.00     0.004 A 
HETATM   17  C18 UNL     1      25.291  -0.843  54.097  1.00  0.00     0.019 A 
HETATM   18  C19 UNL     1      26.097  -0.232  53.184  1.00  0.00     0.013 A 
HETATM   19 BR1  UNL     1      27.980  -0.604  53.180  1.00  0.00    -0.051 Br
HETATM   20  C20 UNL     1      25.607   0.652  52.252  1.00  0.00     0.048 A 
ENDBRANCH  12  14
ENDBRANCH  10  12
BRANCH   1  21
HETATM   21  N2  UNL     1      21.224   2.245  51.036  1.00  0.00    -0.332 N 
HETATM   22  C6  UNL     1      20.286   1.516  51.817  1.00  0.00     0.242 C 
HETATM   23  O1  UNL     1      20.132   1.839  53.023  1.00  0.00    -0.269 OA
HETATM   24  H11 UNL     1      21.375   1.999  50.022  1.00  0.00     0.165 HD
BRANCH  22  25
HETATM   25  C5  UNL     1      19.541   0.428  51.206  1.00  0.00     0.072 C 
HETATM   26  C4  UNL     1      18.494   0.604  50.424  1.00  0.00     0.008 C 
BRANCH  26  27
HETATM   27  C3  UNL     1      17.711   1.724  49.885  1.00  0.00     0.299 C 
BRANCH  27  28
HETATM   28  N1  UNL     1      16.641   2.175  50.757  1.00  0.00     0.083 N 
HETATM   29  C1  UNL     1      17.046   3.252  51.637  1.00  0.00     0.309 C 
HETATM   30  C2  UNL     1      16.084   1.069  51.511  1.00  0.00     0.309 C 
ENDBRANCH  27  28
ENDBRANCH  26  27
ENDBRANCH  22  25
ENDBRANCH   1  21
TORSDOF 6
ENDMDL
MODEL 8
REMARK VINA RESULT:      -6.9      2.899      6.260
REMARK  6 active torsions:
REMARK  status: ('A' for Active; 'I' for Inactive)
REMARK    1  A    between atoms: N1_2  and  C3_4 
REMARK    2  A    between atoms: C3_4  and  C4_5 
REMARK    3  A    between atoms: C5_6  and  C6_7 
REMARK       I    between atoms: C6_7  and  N2_9 
REMARK    4  A    between atoms: N2_9  and  C7_10 
REMARK    5  A    between atoms: C13_19  and  N6_21 
REMARK    6  A    between atoms: N6_21  and  C15_22 
ROOT
HETATM    1  C7  UNL     1      22.078   3.903  51.468  1.00  0.00     0.241 C 
HETATM    2  N3  UNL     1      21.558   5.194  51.210  1.00  0.00    -0.272 NA
HETATM    3  C8  UNL     1      21.475   6.166  50.373  1.00  0.00     0.132 C 
HETATM    4  C9  UNL     1      22.060   6.297  49.015  1.00  0.00     0.135 C 
HETATM    5  N4  UNL     1      23.175   5.821  48.555  1.00  0.00    -0.270 NA
HETATM    6  C10 UNL     1      24.238   5.036  49.088  1.00  0.00     0.137 C 
HETATM    7  C11 UNL     1      24.210   4.235  50.143  1.00  0.00     0.071 C 
HETATM    8  C12 UNL     1      25.574   3.700  50.212  1.00  0.00     0.099 C 
HETATM    9  N5  UNL     1      26.675   3.259  50.283  1.00  0.00    -0.192 NA
HETATM   10  C13 UNL     1      23.503   3.617  51.269  1.00  0.00     0.105 C 
HETATM   11  C14 UNL     1      24.252   4.064  52.537  1.00  0.00     0.049 C 
ENDROOT
BRANCH  10  12
HETATM   12  N6  UNL     1      23.651   2.157  51.258  1.00  0.00    -0.372 N 
HETATM   13  H19 UNL     1      23.456   1.834  50.264  1.00  0.00     0.161 HD
BRANCH  12  14
HETATM   14  C15 UNL     1      23.961   1.145  52.192  1.00  0.00     0.030 A 
HETATM   15  C16 UNL     1      25.225   0.701  52.502  1.00  0.00     0.029 A 
HETATM   16  C17 UNL     1      25.549  -0.280  53.413  1.00  0.00     0.004 A 
HETATM   17  C18 UNL     1      24.458  -0.847  54.060  1.00  0.00     0.019 A 
HETATM   18  C19 UNL     1      23.189  -0.437  53.783  1.00  0.00     0.013 A 
HETATM   19 BR1  UNL     1      21.708  -1.248  54.699  1.00  0.00    -0.051 Br
HETATM   20  C20 UNL     1      22.923   0.547  52.863  1.00  0.00     0.048 A 
ENDBRANCH  12  14
ENDBRANCH  10  12
BRANCH   1  21
HETATM   21  N2  UNL     1      21.221   2.957  50.725  1.00  0.00    -0.332 N 
HETATM   22  C6  UNL     1      20.043   2.391  51.285  1.00  0.00     0.242 C 
HETATM   23  O1  UNL     1      19.723   2.714  52.457  1.00  0.00    -0.269 OA
HETATM   24  H11 UNL     1      21.515   2.707  49.744  1.00  0.00     0.165 HD
BRANCH  22  25
HETATM   25  C5  UNL     1      19.250   1.465  50.493  1.00  0.00     0.072 C 
HETATM   26  C4  UNL     1      18.380   1.840  49.576  1.00  0.00     0.008 C 
BRANCH  26  27
HETATM   27  C3  UNL     1      17.870   3.094  49.005  1.00  0.00     0.299 C 
BRANCH  27  28
HETATM   28  N1  UNL     1      18.880   3.899  48.344  1.00  0.00     0.083 N 
HETATM   29  C1  UNL     1      18.431   5.246  48.059  1.00  0.00     0.309 C 
HETATM   30  C2  UNL     1      19.360   3.247  47.141  1.00  0.00     0.309 C 
ENDBRANCH  27  28
ENDBRANCH  26  27
ENDBRANCH  22  25
ENDBRANCH   1  21
TORSDOF 6
ENDMDL
MODEL 9
REMARK VINA RESULT:      -6.8      3.029      6.371
REMARK  6 active torsions:
REMARK  status: ('A' for Active; 'I' for Inactive)
REMARK    1  A    between atoms: N1_2  and  C3_4 
REMARK    2  A    between atoms: C3_4  and  C4_5 
REMARK    3  A    between atoms: C5_6  and  C6_7 
REMARK       I    between atoms: C6_7  and  N2_9 
REMARK    4  A    between atoms: N2_9  and  C7_10 
REMARK    5  A    between atoms: C13_19  and  N6_21 
REMARK    6  A    between atoms: N6_21  and  C15_22 
ROOT
HETATM    1  C7  UNL     1      23.511   4.001  50.237  1.00  0.00     0.241 C 
HETATM    2  N3  UNL     1      24.218   5.192  49.950  1.00  0.00    -0.272 NA
HETATM    3  C8  UNL     1      25.316   5.709  49.524  1.00  0.00     0.132 C 
HETATM    4  C9  UNL     1      26.558   5.040  49.062  1.00  0.00     0.135 C 
HETATM    5  N4  UNL     1      27.082   3.922  49.458  1.00  0.00    -0.270 NA
HETATM    6  C10 UNL     1      26.740   2.928  50.419  1.00  0.00     0.137 C 
HETATM    7  C11 UNL     1      25.550   2.678  50.945  1.00  0.00     0.071 C 
HETATM    8  C12 UNL     1      25.801   1.560  51.861  1.00  0.00     0.099 C 
HETATM    9  N5  UNL     1      25.987   0.656  52.610  1.00  0.00    -0.192 NA
HETATM   10  C13 UNL     1      24.115   2.954  51.068  1.00  0.00     0.105 C 
HETATM   11  C14 UNL     1      23.882   3.331  52.541  1.00  0.00     0.049 C 
ENDROOT
BRANCH  10  12
HETATM   12  N6  UNL     1      23.317   1.738  50.876  1.00  0.00    -0.372 N 
HETATM   13  H19 UNL     1      23.767   1.196  50.079  1.00  0.00     0.161 HD
BRANCH  12  14
HETATM   14  C15 UNL     1      22.165   1.158  51.452  1.00  0.00     0.030 A 
HETATM   15  C16 UNL     1      20.867   1.410  51.075  1.00  0.00     0.029 A 
HETATM   16  C17 UNL     1      19.733   0.850  51.619  1.00  0.00     0.004 A 
HETATM   17  C18 UNL     1      19.973  -0.053  52.648  1.00  0.00     0.019 A 
HETATM   18  C19 UNL     1      21.243  -0.330  53.053  1.00  0.00     0.013 A 
HETATM   19 BR1  UNL     1      21.533  -1.584  54.479  1.00  0.00    -0.051 Br
HETATM   20  C20 UNL     1      22.341   0.258  52.473  1.00  0.00     0.048 A 
ENDBRANCH  12  14
ENDBRANCH  10  12
BRANCH   1  21
HETATM   21  N2  UNL     1      23.050   3.471  48.938  1.00  0.00    -0.332 N 
HETATM   22  C6  UNL     1      21.753   3.737  48.420  1.00  0.00     0.242 C 
HETATM   23  O1  UNL     1      20.974   4.454  49.099  1.00  0.00    -0.269 OA
HETATM   24  H11 UNL     1      23.727   2.875  48.392  1.00  0.00     0.165 HD
BRANCH  22  25
HETATM   25  C5  UNL     1      21.370   3.178  47.134  1.00  0.00     0.072 C 
HETATM   26  C4  UNL     1      21.552   3.793  45.982  1.00  0.00     0.008 C 
BRANCH  26  27
HETATM   27  C3  UNL     1      22.107   5.066  45.501  1.00  0.00     0.299 C 
BRANCH  27  28
HETATM   28  N1  UNL     1      21.397   6.240  45.974  1.00  0.00     0.083 N 
HETATM   29  C1  UNL     1      20.843   7.037  44.900  1.00  0.00     0.309 C 
HETATM   30  C2  UNL     1      22.240   7.045  46.837  1.00  0.00     0.309 C 
ENDBRANCH  27  28
ENDBRANCH  26  27
ENDBRANCH  22  25
ENDBRANCH   1  21
TORSDOF 6
ENDMDL
