MODEL 1
REMARK VINA RESULT:      -8.0      0.000      0.000
REMARK  7 active torsions:
REMARK  status: ('A' for Active; 'I' for Inactive)
REMARK    1  A    between atoms: C2_2  and  C3_3 
REMARK    2  A    between atoms: C2_2  and  C8_10 
REMARK    3  A    between atoms: C3_3  and  N1_4 
REMARK    4  A    between atoms: C8_10  and  C9_12 
REMARK    5  A    between atoms: C12_15  and  O2_16 
REMARK    6  A    between atoms: O2_16  and  C13_17 
REMARK    7  A    between atoms: C13_17  and  C14_18 
ROOT
HETATM    1  C9  UNL     1      23.779   1.511  52.563  1.00  0.00     0.015 A 
HETATM    2  C10 UNL     1      24.061   2.791  52.983  1.00  0.00     0.018 A 
HETATM    3  C11 UNL     1      24.051   3.929  52.212  1.00  0.00     0.038 A 
HETATM    4  C12 UNL     1      23.731   3.798  50.890  1.00  0.00     0.069 A 
HETATM    5  C20 UNL     1      23.436   2.547  50.394  1.00  0.00     0.038 A 
HETATM    6  C21 UNL     1      23.466   1.452  51.222  1.00  0.00     0.018 A 
ENDROOT
BRANCH   1   7
HETATM    7  C8  UNL     1      23.796   0.317  53.385  1.00  0.00     0.189 C 
HETATM    8  O1  UNL     1      22.640  -0.108  53.736  1.00  0.00    -0.287 OA
BRANCH   7   9
HETATM    9  C2  UNL     1      24.920  -0.459  53.865  1.00  0.00     0.001 C 
HETATM   10  C1  UNL     1      25.062  -0.932  55.088  1.00  0.00     0.024 C 
BRANCH   9  11
HETATM   11  C3  UNL     1      26.034  -0.770  52.940  1.00  0.00     0.159 C 
BRANCH  11  12
HETATM   12  N1  UNL     1      27.279  -0.222  53.333  1.00  0.00    -0.405 N 
HETATM   13  C4  UNL     1      27.516   1.150  53.063  1.00  0.00     0.147 C 
HETATM   14  C5  UNL     1      28.694   1.696  53.843  1.00  0.00     0.289 C 
HETATM   15  N2  UNL     1      29.855   0.916  53.437  1.00  0.00     0.086 N 
HETATM   16  C6  UNL     1      29.666  -0.443  53.829  1.00  0.00     0.289 C 
HETATM   17  H9  UNL     1      29.992   1.004  52.412  1.00  0.00     0.316 HD
HETATM   18  C7  UNL     1      28.407  -1.085  53.298  1.00  0.00     0.147 C 
ENDBRANCH  11  12
ENDBRANCH   9  11
ENDBRANCH   7   9
ENDBRANCH   1   7
BRANCH   4  19
HETATM   19  O2  UNL     1      23.670   4.831  49.967  1.00  0.00    -0.347 OA
BRANCH  19  20
HETATM   20  C13 UNL     1      24.473   5.972  50.192  1.00  0.00     0.214 C 
BRANCH  20  21
HETATM   21  C14 UNL     1      25.791   5.838  49.514  1.00  0.00    -0.034 A 
HETATM   22  C15 UNL     1      26.500   4.677  49.262  1.00  0.00     0.009 A 
HETATM   23  C16 UNL     1      27.718   4.738  48.619  1.00  0.00     0.001 A 
HETATM   24  C17 UNL     1      28.252   5.945  48.215  1.00  0.00     0.000 A 
HETATM   25  C18 UNL     1      27.585   7.136  48.441  1.00  0.00     0.001 A 
HETATM   26  C19 UNL     1      26.369   7.038  49.088  1.00  0.00     0.009 A 
ENDBRANCH  20  21
ENDBRANCH  19  20
ENDBRANCH   4  19
TORSDOF 7
ENDMDL
MODEL 2
REMARK VINA RESULT:      -7.8      4.649      7.980
REMARK  7 active torsions:
REMARK  status: ('A' for Active; 'I' for Inactive)
REMARK    1  A    between atoms: C2_2  and  C3_3 
REMARK    2  A    between atoms: C2_2  and  C8_10 
REMARK    3  A    between atoms: C3_3  and  N1_4 
REMARK    4  A    between atoms: C8_10  and  C9_12 
REMARK    5  A    between atoms: C12_15  and  O2_16 
REMARK    6  A    between atoms: O2_16  and  C13_17 
REMARK    7  A    between atoms: C13_17  and  C14_18 
ROOT
HETATM    1  C9  UNL     1      22.528   0.226  53.043  1.00  0.00     0.015 A 
HETATM    2  C10 UNL     1      21.622  -0.308  53.931  1.00  0.00     0.018 A 
HETATM    3  C11 UNL     1      20.298  -0.585  53.687  1.00  0.00     0.038 A 
HETATM    4  C12 UNL     1      19.811  -0.311  52.440  1.00  0.00     0.069 A 
HETATM    5  C20 UNL     1      20.656   0.225  51.494  1.00  0.00     0.038 A 
HETATM    6  C21 UNL     1      21.970   0.478  51.807  1.00  0.00     0.018 A 
ENDROOT
BRANCH   1   7
HETATM    7  C8  UNL     1      23.922   0.518  53.312  1.00  0.00     0.189 C 
HETATM    8  O1  UNL     1      24.273   1.725  53.070  1.00  0.00    -0.287 OA
BRANCH   7   9
HETATM    9  C2  UNL     1      24.968  -0.351  53.808  1.00  0.00     0.001 C 
HETATM   10  C1  UNL     1      25.048  -0.836  55.032  1.00  0.00     0.024 C 
BRANCH   9  11
HETATM   11  C3  UNL     1      26.068  -0.752  52.903  1.00  0.00     0.159 C 
BRANCH  11  12
HETATM   12  N1  UNL     1      27.350  -0.326  53.330  1.00  0.00    -0.405 N 
HETATM   13  C4  UNL     1      27.668   1.050  53.206  1.00  0.00     0.147 C 
HETATM   14  C5  UNL     1      28.887   1.436  54.018  1.00  0.00     0.289 C 
HETATM   15  N2  UNL     1      29.992   0.637  53.508  1.00  0.00     0.086 N 
HETATM   16  C6  UNL     1      29.725  -0.743  53.753  1.00  0.00     0.289 C 
HETATM   17  H9  UNL     1      30.123   0.828  52.496  1.00  0.00     0.316 HD
HETATM   18  C7  UNL     1      28.422  -1.246  53.180  1.00  0.00     0.147 C 
ENDBRANCH  11  12
ENDBRANCH   9  11
ENDBRANCH   7   9
ENDBRANCH   1   7
BRANCH   4  19
HETATM   19  O2  UNL     1      18.508  -0.525  52.017  1.00  0.00    -0.347 OA
BRANCH  19  20
HETATM   20  C13 UNL     1      17.507  -0.691  53.001  1.00  0.00     0.214 C 
BRANCH  20  21
HETATM   21  C14 UNL     1      17.012  -2.094  53.026  1.00  0.00    -0.034 A 
HETATM   22  C15 UNL     1      17.604  -3.191  53.627  1.00  0.00     0.009 A 
HETATM   23  C16 UNL     1      17.002  -4.429  53.549  1.00  0.00     0.001 A 
HETATM   24  C17 UNL     1      15.809  -4.601  52.878  1.00  0.00     0.000 A 
HETATM   25  C18 UNL     1      15.174  -3.538  52.260  1.00  0.00     0.001 A 
HETATM   26  C19 UNL     1      15.803  -2.314  52.357  1.00  0.00     0.009 A 
ENDBRANCH  20  21
ENDBRANCH  19  20
ENDBRANCH   4  19
TORSDOF 7
ENDMDL
MODEL 3
REMARK VINA RESULT:      -7.5      4.319      7.543
REMARK  7 active torsions:
REMARK  status: ('A' for Active; 'I' for Inactive)
REMARK    1  A    between atoms: C2_2  and  C3_3 
REMARK    2  A    between atoms: C2_2  and  C8_10 
REMARK    3  A    between atoms: C3_3  and  N1_4 
REMARK    4  A    between atoms: C8_10  and  C9_12 
REMARK    5  A    between atoms: C12_15  and  O2_16 
REMARK    6  A    between atoms: O2_16  and  C13_17 
REMARK    7  A    between atoms: C13_17  and  C14_18 
ROOT
HETATM    1  C9  UNL     1      23.493  -0.648  54.018  1.00  0.00     0.015 A 
HETATM    2  C10 UNL     1      22.454  -0.880  54.890  1.00  0.00     0.018 A 
HETATM    3  C11 UNL     1      21.114  -0.712  54.635  1.00  0.00     0.038 A 
HETATM    4  C12 UNL     1      20.755  -0.269  53.393  1.00  0.00     0.069 A 
HETATM    5  C20 UNL     1      21.738  -0.013  52.463  1.00  0.00     0.038 A 
HETATM    6  C21 UNL     1      23.060  -0.203  52.787  1.00  0.00     0.018 A 
ENDROOT
BRANCH   1   7
HETATM    7  C8  UNL     1      24.904  -0.826  54.299  1.00  0.00     0.189 C 
HETATM    8  O1  UNL     1      25.159  -1.411  55.409  1.00  0.00    -0.287 OA
BRANCH   7   9
HETATM    9  C2  UNL     1      26.058  -0.440  53.515  1.00  0.00     0.001 C 
HETATM   10  C1  UNL     1      26.731  -1.227  52.698  1.00  0.00     0.024 C 
BRANCH   9  11
HETATM   11  C3  UNL     1      26.567   0.947  53.607  1.00  0.00     0.159 C 
BRANCH  11  12
HETATM   12  N1  UNL     1      25.972   1.842  52.684  1.00  0.00    -0.405 N 
HETATM   13  C4  UNL     1      26.787   2.369  51.651  1.00  0.00     0.147 C 
HETATM   14  C5  UNL     1      25.974   2.999  50.539  1.00  0.00     0.289 C 
HETATM   15  N2  UNL     1      25.208   4.076  51.147  1.00  0.00     0.086 N 
HETATM   16  C6  UNL     1      24.295   3.525  52.096  1.00  0.00     0.289 C 
HETATM   17  H9  UNL     1      25.855   4.758  51.589  1.00  0.00     0.316 HD
HETATM   18  C7  UNL     1      24.934   2.681  53.172  1.00  0.00     0.147 C 
ENDBRANCH  11  12
ENDBRANCH   9  11
ENDBRANCH   7   9
ENDBRANCH   1   7
BRANCH   4  19
HETATM   19  O2  UNL     1      19.457  -0.044  52.960  1.00  0.00    -0.347 OA
BRANCH  19  20
HETATM   20  C13 UNL     1      18.476  -1.015  53.262  1.00  0.00     0.214 C 
BRANCH  20  21
HETATM   21  C14 UNL     1      17.406  -1.032  52.227  1.00  0.00    -0.034 A 
HETATM   22  C15 UNL     1      16.187  -1.682  52.278  1.00  0.00     0.009 A 
HETATM   23  C16 UNL     1      15.310  -1.589  51.219  1.00  0.00     0.001 A 
HETATM   24  C17 UNL     1      15.624  -0.853  50.095  1.00  0.00     0.000 A 
HETATM   25  C18 UNL     1      16.830  -0.183  49.991  1.00  0.00     0.001 A 
HETATM   26  C19 UNL     1      17.684  -0.297  51.070  1.00  0.00     0.009 A 
ENDBRANCH  20  21
ENDBRANCH  19  20
ENDBRANCH   4  19
TORSDOF 7
ENDMDL
MODEL 4
REMARK VINA RESULT:      -7.5      3.851      6.992
REMARK  7 active torsions:
REMARK  status: ('A' for Active; 'I' for Inactive)
REMARK    1  A    between atoms: C2_2  and  C3_3 
REMARK    2  A    between atoms: C2_2  and  C8_10 
REMARK    3  A    between atoms: C3_3  and  N1_4 
REMARK    4  A    between atoms: C8_10  and  C9_12 
REMARK    5  A    between atoms: C12_15  and  O2_16 
REMARK    6  A    between atoms: O2_16  and  C13_17 
REMARK    7  A    between atoms: C13_17  and  C14_18 
ROOT
HETATM    1  C9  UNL     1      21.555   0.991  52.761  1.00  0.00     0.015 A 
HETATM    2  C10 UNL     1      21.632  -0.162  53.508  1.00  0.00     0.018 A 
HETATM    3  C11 UNL     1      22.778  -0.796  53.925  1.00  0.00     0.038 A 
HETATM    4  C12 UNL     1      23.976  -0.241  53.572  1.00  0.00     0.069 A 
HETATM    5  C20 UNL     1      23.982   0.915  52.823  1.00  0.00     0.038 A 
HETATM    6  C21 UNL     1      22.797   1.496  52.440  1.00  0.00     0.018 A 
ENDROOT
BRANCH   1   7
HETATM    7  C8  UNL     1      20.340   1.649  52.324  1.00  0.00     0.189 C 
HETATM    8  O1  UNL     1      20.052   2.720  52.963  1.00  0.00    -0.287 OA
BRANCH   7   9
HETATM    9  C2  UNL     1      19.412   1.276  51.278  1.00  0.00     0.001 C 
HETATM   10  C1  UNL     1      18.699   0.166  51.243  1.00  0.00     0.024 C 
BRANCH   9  11
HETATM   11  C3  UNL     1      19.215   2.183  50.124  1.00  0.00     0.159 C 
BRANCH  11  12
HETATM   12  N1  UNL     1      20.401   2.463  49.403  1.00  0.00    -0.405 N 
HETATM   13  C4  UNL     1      21.187   1.368  48.965  1.00  0.00     0.147 C 
HETATM   14  C5  UNL     1      22.201   1.769  47.913  1.00  0.00     0.289 C 
HETATM   15  N2  UNL     1      23.063   2.766  48.530  1.00  0.00     0.086 N 
HETATM   16  C6  UNL     1      22.289   3.921  48.852  1.00  0.00     0.289 C 
HETATM   17  H9  UNL     1      23.516   2.362  49.372  1.00  0.00     0.316 HD
HETATM   18  C7  UNL     1      21.096   3.656  49.739  1.00  0.00     0.147 C 
ENDBRANCH  11  12
ENDBRANCH   9  11
ENDBRANCH   7   9
ENDBRANCH   1   7
BRANCH   4  19
HETATM   19  O2  UNL     1      25.227  -0.739  53.902  1.00  0.00    -0.347 OA
BRANCH  19  20
HETATM   20  C13 UNL     1      26.061  -1.191  52.854  1.00  0.00     0.214 C 
BRANCH  20  21
HETATM   21  C14 UNL     1      27.483  -0.836  53.117  1.00  0.00    -0.034 A 
HETATM   22  C15 UNL     1      28.571  -1.689  53.185  1.00  0.00     0.009 A 
HETATM   23  C16 UNL     1      29.828  -1.185  53.440  1.00  0.00     0.001 A 
HETATM   24  C17 UNL     1      30.029   0.167  53.632  1.00  0.00     0.000 A 
HETATM   25  C18 UNL     1      28.977   1.064  53.575  1.00  0.00     0.001 A 
HETATM   26  C19 UNL     1      27.732   0.526  53.317  1.00  0.00     0.009 A 
ENDBRANCH  20  21
ENDBRANCH  19  20
ENDBRANCH   4  19
TORSDOF 7
ENDMDL
MODEL 5
REMARK VINA RESULT:      -7.5      3.205      7.965
REMARK  7 active torsions:
REMARK  status: ('A' for Active; 'I' for Inactive)
REMARK    1  A    between atoms: C2_2  and  C3_3 
REMARK    2  A    between atoms: C2_2  and  C8_10 
REMARK    3  A    between atoms: C3_3  and  N1_4 
REMARK    4  A    between atoms: C8_10  and  C9_12 
REMARK    5  A    between atoms: C12_15  and  O2_16 
REMARK    6  A    between atoms: O2_16  and  C13_17 
REMARK    7  A    between atoms: C13_17  and  C14_18 
ROOT
HETATM    1  C9  UNL     1      27.414   6.724  48.536  1.00  0.00     0.015 A 
HETATM    2  C10 UNL     1      26.125   6.729  49.017  1.00  0.00     0.018 A 
HETATM    3  C11 UNL     1      25.398   5.638  49.431  1.00  0.00     0.038 A 
HETATM    4  C12 UNL     1      26.000   4.413  49.366  1.00  0.00     0.069 A 
HETATM    5  C20 UNL     1      27.291   4.325  48.895  1.00  0.00     0.038 A 
HETATM    6  C21 UNL     1      27.959   5.459  48.498  1.00  0.00     0.018 A 
ENDROOT
BRANCH   1   7
HETATM    7  C8  UNL     1      28.169   7.882  48.100  1.00  0.00     0.189 C 
HETATM    8  O1  UNL     1      28.055   8.911  48.852  1.00  0.00    -0.287 OA
BRANCH   7   9
HETATM    9  C2  UNL     1      29.027   8.043  46.945  1.00  0.00     0.001 C 
HETATM   10  C1  UNL     1      28.624   8.118  45.691  1.00  0.00     0.024 C 
BRANCH   9  11
HETATM   11  C3  UNL     1      30.493   8.131  47.137  1.00  0.00     0.159 C 
BRANCH  11  12
HETATM   12  N1  UNL     1      31.051   7.029  47.829  1.00  0.00    -0.405 N 
HETATM   13  C4  UNL     1      31.637   7.270  49.097  1.00  0.00     0.147 C 
HETATM   14  C5  UNL     1      31.857   5.993  49.883  1.00  0.00     0.289 C 
HETATM   15  N2  UNL     1      32.751   5.166  49.086  1.00  0.00     0.086 N 
HETATM   16  C6  UNL     1      32.103   4.819  47.862  1.00  0.00     0.289 C 
HETATM   17  H9  UNL     1      33.639   5.676  48.917  1.00  0.00     0.316 HD
HETATM   18  C7  UNL     1      31.626   5.994  47.043  1.00  0.00     0.147 C 
ENDBRANCH  11  12
ENDBRANCH   9  11
ENDBRANCH   7   9
ENDBRANCH   1   7
BRANCH   4  19
HETATM   19  O2  UNL     1      25.423   3.208  49.739  1.00  0.00    -0.347 OA
BRANCH  19  20
HETATM   20  C13 UNL     1      24.876   3.106  51.039  1.00  0.00     0.214 C 
BRANCH  20  21
HETATM   21  C14 UNL     1      25.310   1.846  51.702  1.00  0.00    -0.034 A 
HETATM   22  C15 UNL     1      26.526   1.200  51.580  1.00  0.00     0.009 A 
HETATM   23  C16 UNL     1      26.759   0.031  52.272  1.00  0.00     0.001 A 
HETATM   24  C17 UNL     1      25.795  -0.515  53.094  1.00  0.00     0.000 A 
HETATM   25  C18 UNL     1      24.561   0.090  53.253  1.00  0.00     0.001 A 
HETATM   26  C19 UNL     1      24.361   1.258  52.545  1.00  0.00     0.009 A 
ENDBRANCH  20  21
ENDBRANCH  19  20
ENDBRANCH   4  19
TORSDOF 7
ENDMDL
MODEL 6
REMARK VINA RESULT:      -7.4      3.154      6.788
REMARK  7 active torsions:
REMARK  status: ('A' for Active; 'I' for Inactive)
REMARK    1  A    between atoms: C2_2  and  C3_3 
REMARK    2  A    between atoms: C2_2  and  C8_10 
REMARK    3  A    between atoms: C3_3  and  N1_4 
REMARK    4  A    between atoms: C8_10  and  C9_12 
REMARK    5  A    between atoms: C12_15  and  O2_16 
REMARK    6  A    between atoms: O2_16  and  C13_17 
REMARK    7  A    between atoms: C13_17  and  C14_18 
ROOT
HETATM    1  C9  UNL     1      22.001   1.175  51.542  1.00  0.00     0.015 A 
HETATM    2  C10 UNL     1      21.785   0.209  52.498  1.00  0.00     0.018 A 
HETATM    3  C11 UNL     1      22.737  -0.395  53.285  1.00  0.00     0.038 A 
HETATM    4  C12 UNL     1      24.038  -0.011  53.116  1.00  0.00     0.069 A 
HETATM    5  C20 UNL     1      24.335   0.952  52.177  1.00  0.00     0.038 A 
HETATM    6  C21 UNL     1      23.333   1.513  51.424  1.00  0.00     0.018 A 
ENDROOT
BRANCH   1   7
HETATM    7  C8  UNL     1      20.990   1.803  50.715  1.00  0.00     0.189 C 
HETATM    8  O1  UNL     1      20.837   1.273  49.560  1.00  0.00    -0.287 OA
BRANCH   7   9
HETATM    9  C2  UNL     1      20.135   2.936  51.002  1.00  0.00     0.001 C 
HETATM   10  C1  UNL     1      18.982   2.886  51.640  1.00  0.00     0.024 C 
BRANCH   9  11
HETATM   11  C3  UNL     1      20.547   4.286  50.557  1.00  0.00     0.159 C 
BRANCH  11  12
HETATM   12  N1  UNL     1      21.833   4.673  51.005  1.00  0.00    -0.405 N 
HETATM   13  C4  UNL     1      22.026   4.851  52.398  1.00  0.00     0.147 C 
HETATM   14  C5  UNL     1      23.492   4.897  52.776  1.00  0.00     0.289 C 
HETATM   15  N2  UNL     1      24.069   6.025  52.061  1.00  0.00     0.086 N 
HETATM   16  C6  UNL     1      23.989   5.780  50.657  1.00  0.00     0.289 C 
HETATM   17  H9  UNL     1      23.572   6.897  52.327  1.00  0.00     0.316 HD
HETATM   18  C7  UNL     1      22.597   5.504  50.141  1.00  0.00     0.147 C 
ENDBRANCH  11  12
ENDBRANCH   9  11
ENDBRANCH   7   9
ENDBRANCH   1   7
BRANCH   4  19
HETATM   19  O2  UNL     1      25.125  -0.509  53.818  1.00  0.00    -0.347 OA
BRANCH  19  20
HETATM   20  C13 UNL     1      26.100  -1.241  53.103  1.00  0.00     0.214 C 
BRANCH  20  21
HETATM   21  C14 UNL     1      27.456  -0.662  53.310  1.00  0.00    -0.034 A 
HETATM   22  C15 UNL     1      27.784   0.655  53.575  1.00  0.00     0.009 A 
HETATM   23  C16 UNL     1      29.103   1.019  53.738  1.00  0.00     0.001 A 
HETATM   24  C17 UNL     1      30.117   0.087  53.642  1.00  0.00     0.000 A 
HETATM   25  C18 UNL     1      29.846  -1.244  53.378  1.00  0.00     0.001 A 
HETATM   26  C19 UNL     1      28.514  -1.573  53.221  1.00  0.00     0.009 A 
ENDBRANCH  20  21
ENDBRANCH  19  20
ENDBRANCH   4  19
TORSDOF 7
ENDMDL
MODEL 7
REMARK VINA RESULT:      -7.4      1.394      2.198
REMARK  7 active torsions:
REMARK  status: ('A' for Active; 'I' for Inactive)
REMARK    1  A    between atoms: C2_2  and  C3_3 
REMARK    2  A    between atoms: C2_2  and  C8_10 
REMARK    3  A    between atoms: C3_3  and  N1_4 
REMARK    4  A    between atoms: C8_10  and  C9_12 
REMARK    5  A    between atoms: C12_15  and  O2_16 
REMARK    6  A    between atoms: O2_16  and  C13_17 
REMARK    7  A    between atoms: C13_17  and  C14_18 
ROOT
HETATM    1  C9  UNL     1      22.479   1.523  52.132  1.00  0.00     0.015 A 
HETATM    2  C10 UNL     1      22.255   1.254  50.802  1.00  0.00     0.018 A 
HETATM    3  C11 UNL     1      22.683   2.000  49.729  1.00  0.00     0.038 A 
HETATM    4  C12 UNL     1      23.408   3.129  49.990  1.00  0.00     0.069 A 
HETATM    5  C20 UNL     1      23.675   3.466  51.299  1.00  0.00     0.038 A 
HETATM    6  C21 UNL     1      23.215   2.673  52.322  1.00  0.00     0.018 A 
ENDROOT
BRANCH   1   7
HETATM    7  C8  UNL     1      22.019   0.730  53.255  1.00  0.00     0.189 C 
HETATM    8  O1  UNL     1      20.889   1.089  53.738  1.00  0.00    -0.287 OA
BRANCH   7   9
HETATM    9  C2  UNL     1      22.648  -0.399  53.908  1.00  0.00     0.001 C 
HETATM   10  C1  UNL     1      22.246  -0.960  55.032  1.00  0.00     0.024 C 
BRANCH   9  11
HETATM   11  C3  UNL     1      23.853  -1.008  53.301  1.00  0.00     0.159 C 
BRANCH  11  12
HETATM   12  N1  UNL     1      25.034  -0.246  53.474  1.00  0.00    -0.405 N 
HETATM   13  C4  UNL     1      25.815   0.039  52.326  1.00  0.00     0.147 C 
HETATM   14  C5  UNL     1      26.821   1.145  52.573  1.00  0.00     0.289 C 
HETATM   15  N2  UNL     1      27.689   0.682  53.645  1.00  0.00     0.086 N 
HETATM   16  C6  UNL     1      26.919   0.521  54.836  1.00  0.00     0.289 C 
HETATM   17  H9  UNL     1      28.149  -0.205  53.363  1.00  0.00     0.316 HD
HETATM   18  C7  UNL     1      25.733  -0.404  54.701  1.00  0.00     0.147 C 
ENDBRANCH  11  12
ENDBRANCH   9  11
ENDBRANCH   7   9
ENDBRANCH   1   7
BRANCH   4  19
HETATM   19  O2  UNL     1      23.920   3.998  49.039  1.00  0.00    -0.347 OA
BRANCH  19  20
HETATM   20  C13 UNL     1      24.255   5.310  49.447  1.00  0.00     0.214 C 
BRANCH  20  21
HETATM   21  C14 UNL     1      25.617   5.682  48.977  1.00  0.00    -0.034 A 
HETATM   22  C15 UNL     1      26.043   6.907  48.496  1.00  0.00     0.009 A 
HETATM   23  C16 UNL     1      27.352   7.076  48.100  1.00  0.00     0.001 A 
HETATM   24  C17 UNL     1      28.259   6.039  48.172  1.00  0.00     0.000 A 
HETATM   25  C18 UNL     1      27.887   4.793  48.645  1.00  0.00     0.001 A 
HETATM   26  C19 UNL     1      26.569   4.658  49.034  1.00  0.00     0.009 A 
ENDBRANCH  20  21
ENDBRANCH  19  20
ENDBRANCH   4  19
TORSDOF 7
ENDMDL
MODEL 8
REMARK VINA RESULT:      -7.2      2.439      6.848
REMARK  7 active torsions:
REMARK  status: ('A' for Active; 'I' for Inactive)
REMARK    1  A    between atoms: C2_2  and  C3_3 
REMARK    2  A    between atoms: C2_2  and  C8_10 
REMARK    3  A    between atoms: C3_3  and  N1_4 
REMARK    4  A    between atoms: C8_10  and  C9_12 
REMARK    5  A    between atoms: C12_15  and  O2_16 
REMARK    6  A    between atoms: O2_16  and  C13_17 
REMARK    7  A    between atoms: C13_17  and  C14_18 
ROOT
HETATM    1  C9  UNL     1      23.004   3.546  51.723  1.00  0.00     0.015 A 
HETATM    2  C10 UNL     1      22.855   2.221  51.385  1.00  0.00     0.018 A 
HETATM    3  C11 UNL     1      23.501   1.149  51.955  1.00  0.00     0.038 A 
HETATM    4  C12 UNL     1      24.387   1.405  52.963  1.00  0.00     0.069 A 
HETATM    5  C20 UNL     1      24.592   2.709  53.359  1.00  0.00     0.038 A 
HETATM    6  C21 UNL     1      23.912   3.732  52.745  1.00  0.00     0.018 A 
ENDROOT
BRANCH   1   7
HETATM    7  C8  UNL     1      22.320   4.668  51.113  1.00  0.00     0.189 C 
HETATM    8  O1  UNL     1      21.095   4.804  51.463  1.00  0.00    -0.287 OA
BRANCH   7   9
HETATM    9  C2  UNL     1      22.813   5.651  50.171  1.00  0.00     0.001 C 
HETATM   10  C1  UNL     1      22.820   6.957  50.355  1.00  0.00     0.024 C 
BRANCH   9  11
HETATM   11  C3  UNL     1      23.363   5.199  48.873  1.00  0.00     0.159 C 
BRANCH  11  12
HETATM   12  N1  UNL     1      24.766   5.349  48.758  1.00  0.00    -0.405 N 
HETATM   13  C4  UNL     1      25.592   4.482  49.517  1.00  0.00     0.147 C 
HETATM   14  C5  UNL     1      27.030   4.489  49.039  1.00  0.00     0.289 C 
HETATM   15  N2  UNL     1      27.506   5.857  49.182  1.00  0.00     0.086 N 
HETATM   16  C6  UNL     1      26.755   6.708  48.316  1.00  0.00     0.289 C 
HETATM   17  H9  UNL     1      27.425   6.152  50.174  1.00  0.00     0.316 HD
HETATM   18  C7  UNL     1      25.260   6.661  48.524  1.00  0.00     0.147 C 
ENDBRANCH  11  12
ENDBRANCH   9  11
ENDBRANCH   7   9
ENDBRANCH   1   7
BRANCH   4  19
HETATM   19  O2  UNL     1      25.126   0.454  53.651  1.00  0.00    -0.347 OA
BRANCH  19  20
HETATM   20  C13 UNL     1      25.776  -0.553  52.902  1.00  0.00     0.214 C 
BRANCH  20  21
HETATM   21  C14 UNL     1      27.239  -0.559  53.175  1.00  0.00    -0.034 A 
HETATM   22  C15 UNL     1      28.031   0.502  53.577  1.00  0.00     0.009 A 
HETATM   23  C16 UNL     1      29.380   0.316  53.786  1.00  0.00     0.001 A 
HETATM   24  C17 UNL     1      29.967  -0.920  53.600  1.00  0.00     0.000 A 
HETATM   25  C18 UNL     1      29.222  -2.015  53.200  1.00  0.00     0.001 A 
HETATM   26  C19 UNL     1      27.874  -1.793  53.000  1.00  0.00     0.009 A 
ENDBRANCH  20  21
ENDBRANCH  19  20
ENDBRANCH   4  19
TORSDOF 7
ENDMDL
MODEL 9
REMARK VINA RESULT:      -7.2      4.098      8.874
REMARK  7 active torsions:
REMARK  status: ('A' for Active; 'I' for Inactive)
REMARK    1  A    between atoms: C2_2  and  C3_3 
REMARK    2  A    between atoms: C2_2  and  C8_10 
REMARK    3  A    between atoms: C3_3  and  N1_4 
REMARK    4  A    between atoms: C8_10  and  C9_12 
REMARK    5  A    between atoms: C12_15  and  O2_16 
REMARK    6  A    between atoms: O2_16  and  C13_17 
REMARK    7  A    between atoms: C13_17  and  C14_18 
ROOT
HETATM    1  C9  UNL     1      27.159   5.910  48.615  1.00  0.00     0.015 A 
HETATM    2  C10 UNL     1      25.889   6.146  49.089  1.00  0.00     0.018 A 
HETATM    3  C11 UNL     1      25.038   5.225  49.651  1.00  0.00     0.038 A 
HETATM    4  C12 UNL     1      25.479   3.937  49.761  1.00  0.00     0.069 A 
HETATM    5  C20 UNL     1      26.741   3.620  49.309  1.00  0.00     0.038 A 
HETATM    6  C21 UNL     1      27.539   4.592  48.757  1.00  0.00     0.018 A 
ENDROOT
BRANCH   1   7
HETATM    7  C8  UNL     1      28.048   6.888  48.021  1.00  0.00     0.189 C 
HETATM    8  O1  UNL     1      29.276   6.531  47.961  1.00  0.00    -0.287 OA
BRANCH   7   9
HETATM    9  C2  UNL     1      27.753   8.202  47.490  1.00  0.00     0.001 C 
HETATM   10  C1  UNL     1      27.759   8.535  46.213  1.00  0.00     0.024 C 
BRANCH   9  11
HETATM   11  C3  UNL     1      27.412   9.301  48.421  1.00  0.00     0.159 C 
BRANCH  11  12
HETATM   12  N1  UNL     1      28.423  10.286  48.544  1.00  0.00    -0.405 N 
HETATM   13  C4  UNL     1      29.604   9.942  49.247  1.00  0.00     0.147 C 
HETATM   14  C5  UNL     1      30.732  10.922  48.995  1.00  0.00     0.289 C 
HETATM   15  N2  UNL     1      30.260  12.221  49.451  1.00  0.00     0.086 N 
HETATM   16  C6  UNL     1      29.147  12.623  48.651  1.00  0.00     0.289 C 
HETATM   17  H9  UNL     1      30.009  12.168  50.457  1.00  0.00     0.316 HD
HETATM   18  C7  UNL     1      28.000  11.641  48.625  1.00  0.00     0.147 C 
ENDBRANCH  11  12
ENDBRANCH   9  11
ENDBRANCH   7   9
ENDBRANCH   1   7
BRANCH   4  19
HETATM   19  O2  UNL     1      24.760   2.880  50.300  1.00  0.00    -0.347 OA
BRANCH  19  20
HETATM   20  C13 UNL     1      24.612   2.823  51.705  1.00  0.00     0.214 C 
BRANCH  20  21
HETATM   21  C14 UNL     1      24.979   1.478  52.225  1.00  0.00    -0.034 A 
HETATM   22  C15 UNL     1      24.218   0.640  53.020  1.00  0.00     0.009 A 
HETATM   23  C16 UNL     1      24.720  -0.582  53.413  1.00  0.00     0.001 A 
HETATM   24  C17 UNL     1      25.979  -0.994  53.026  1.00  0.00     0.000 A 
HETATM   25  C18 UNL     1      26.782  -0.196  52.231  1.00  0.00     0.001 A 
HETATM   26  C19 UNL     1      26.248   1.021  51.856  1.00  0.00     0.009 A 
ENDBRANCH  20  21
ENDBRANCH  19  20
ENDBRANCH   4  19
TORSDOF 7
ENDMDL
