MODEL 1
REMARK VINA RESULT:      -8.0      0.000      0.000
REMARK  4 active torsions:
REMARK  status: ('A' for Active; 'I' for Inactive)
REMARK    1  A    between atoms: C3_3  and  C4_4 
REMARK    2  A    between atoms: C3_3  and  O2_24 
REMARK    3  A    between atoms: C9_10  and  N2_11 
REMARK    4  A    between atoms: N2_11  and  C10_12 
ROOT
HETATM    1  C4  UNL     1      24.177  -0.247  53.088  1.00  0.00     0.069 C 
HETATM    2  C5  UNL     1      23.957   1.021  52.727  1.00  0.00     0.059 C 
HETATM    3  C6  UNL     1      24.634   2.029  53.550  1.00  0.00     0.084 C 
HETATM    4  C7  UNL     1      24.379   3.449  53.193  1.00  0.00     0.126 C 
HETATM    5  N1  UNL     1      24.634   3.775  51.808  1.00  0.00    -0.383 N 
HETATM    6  C8  UNL     1      23.892   3.362  50.671  1.00  0.00     0.128 A 
HETATM    7  C9  UNL     1      23.926   4.264  49.641  1.00  0.00     0.160 A 
HETATM    8  N3  UNL     1      23.244   3.875  48.554  1.00  0.00    -0.222 NA
HETATM    9  C16 UNL     1      22.587   2.714  48.471  1.00  0.00     0.238 A 
HETATM   10  N4  UNL     1      22.542   1.806  49.487  1.00  0.00    -0.215 NA
HETATM   11  C17 UNL     1      23.219   2.142  50.626  1.00  0.00     0.201 A 
HETATM   12  O1  UNL     1      23.103   1.132  51.607  1.00  0.00    -0.294 OA
HETATM   13  H10 UNL     1      25.467   4.390  51.551  1.00  0.00     0.159 HD
ENDROOT
BRANCH   7  14
HETATM   14  N2  UNL     1      24.591   5.504  49.750  1.00  0.00    -0.339 N 
HETATM   15  H11 UNL     1      24.271   6.385  50.184  1.00  0.00     0.167 HD
BRANCH  14  16
HETATM   16  C10 UNL     1      25.895   5.733  49.226  1.00  0.00     0.035 A 
HETATM   17  C11 UNL     1      26.816   4.750  49.016  1.00  0.00     0.029 A 
HETATM   18  C12 UNL     1      28.068   4.945  48.494  1.00  0.00     0.004 A 
HETATM   19  C13 UNL     1      28.468   6.212  48.140  1.00  0.00     0.019 A 
HETATM   20  C14 UNL     1      27.603   7.274  48.317  1.00  0.00     0.013 A 
HETATM   21 BR1  UNL     1      28.148   9.016  47.832  1.00  0.00    -0.051 Br
HETATM   22  C15 UNL     1      26.372   6.982  48.846  1.00  0.00     0.048 A 
ENDBRANCH  14  16
ENDBRANCH   7  14
BRANCH   1  23
HETATM   23  C3  UNL     1      25.011  -0.674  54.199  1.00  0.00     0.066 C 
HETATM   24  C2  UNL     1      24.478  -1.178  55.300  1.00  0.00     0.006 C 
HETATM   25  C1  UNL     1      22.988  -1.271  55.315  1.00  0.00     0.038 C 
BRANCH  23  26
HETATM   26  O2  UNL     1      26.384  -0.625  54.271  1.00  0.00    -0.356 OA
HETATM   27  C18 UNL     1      27.208  -0.939  53.175  1.00  0.00     0.210 C 
ENDBRANCH  23  26
ENDBRANCH   1  23
TORSDOF 4
ENDMDL
MODEL 2
REMARK VINA RESULT:      -7.5      5.040      7.139
REMARK  4 active torsions:
REMARK  status: ('A' for Active; 'I' for Inactive)
REMARK    1  A    between atoms: C3_3  and  C4_4 
REMARK    2  A    between atoms: C3_3  and  O2_24 
REMARK    3  A    between atoms: C9_10  and  N2_11 
REMARK    4  A    between atoms: N2_11  and  C10_12 
ROOT
HETATM    1  C4  UNL     1      27.293  -0.150  54.979  1.00  0.00     0.069 C 
HETATM    2  C5  UNL     1      26.105   0.263  54.524  1.00  0.00     0.059 C 
HETATM    3  C6  UNL     1      26.162   1.247  53.439  1.00  0.00     0.084 C 
HETATM    4  C7  UNL     1      24.857   1.751  52.939  1.00  0.00     0.126 C 
HETATM    5  N1  UNL     1      23.927   0.718  52.540  1.00  0.00    -0.383 N 
HETATM    6  C8  UNL     1      23.245  -0.202  53.378  1.00  0.00     0.128 A 
HETATM    7  C9  UNL     1      22.028  -0.591  52.883  1.00  0.00     0.160 A 
HETATM    8  N3  UNL     1      21.383  -1.475  53.657  1.00  0.00    -0.222 NA
HETATM    9  C16 UNL     1      21.872  -1.941  54.810  1.00  0.00     0.238 A 
HETATM   10  N4  UNL     1      23.080  -1.564  55.317  1.00  0.00    -0.215 NA
HETATM   11  C17 UNL     1      23.790  -0.663  54.574  1.00  0.00     0.201 A 
HETATM   12  O1  UNL     1      25.019  -0.345  55.194  1.00  0.00    -0.294 OA
HETATM   13  H10 UNL     1      23.694   0.581  51.508  1.00  0.00     0.159 HD
ENDROOT
BRANCH   7  14
HETATM   14  N2  UNL     1      21.503  -0.064  51.683  1.00  0.00    -0.339 N 
HETATM   15  H11 UNL     1      21.848  -0.166  50.715  1.00  0.00     0.167 HD
BRANCH  14  16
HETATM   16  C10 UNL     1      20.340   0.756  51.641  1.00  0.00     0.035 A 
HETATM   17  C11 UNL     1      20.335   2.087  51.931  1.00  0.00     0.029 A 
HETATM   18  C12 UNL     1      19.232   2.899  51.876  1.00  0.00     0.004 A 
HETATM   19  C13 UNL     1      18.016   2.373  51.505  1.00  0.00     0.019 A 
HETATM   20  C14 UNL     1      17.923   1.031  51.193  1.00  0.00     0.013 A 
HETATM   21 BR1  UNL     1      16.256   0.304  50.682  1.00  0.00    -0.051 Br
HETATM   22  C15 UNL     1      19.079   0.298  51.276  1.00  0.00     0.048 A 
ENDBRANCH  14  16
ENDBRANCH   7  14
BRANCH   1  23
HETATM   23  C3  UNL     1      28.584   0.295  54.486  1.00  0.00     0.066 C 
HETATM   24  C2  UNL     1      29.292  -0.448  53.651  1.00  0.00     0.006 C 
HETATM   25  C1  UNL     1      28.675  -1.751  53.263  1.00  0.00     0.038 C 
BRANCH  23  26
HETATM   26  O2  UNL     1      29.225   1.475  54.789  1.00  0.00    -0.356 OA
HETATM   27  C18 UNL     1      29.390   2.507  53.847  1.00  0.00     0.210 C 
ENDBRANCH  23  26
ENDBRANCH   1  23
TORSDOF 4
ENDMDL
MODEL 3
REMARK VINA RESULT:      -7.4      4.082      8.077
REMARK  4 active torsions:
REMARK  status: ('A' for Active; 'I' for Inactive)
REMARK    1  A    between atoms: C3_3  and  C4_4 
REMARK    2  A    between atoms: C3_3  and  O2_24 
REMARK    3  A    between atoms: C9_10  and  N2_11 
REMARK    4  A    between atoms: N2_11  and  C10_12 
ROOT
HETATM    1  C4  UNL     1      27.788   7.341  47.985  1.00  0.00     0.069 C 
HETATM    2  C5  UNL     1      27.017   6.355  48.455  1.00  0.00     0.059 C 
HETATM    3  C6  UNL     1      27.715   5.094  48.726  1.00  0.00     0.084 C 
HETATM    4  C7  UNL     1      26.876   3.969  49.215  1.00  0.00     0.126 C 
HETATM    5  N1  UNL     1      26.073   4.280  50.376  1.00  0.00    -0.383 N 
HETATM    6  C8  UNL     1      24.948   5.142  50.445  1.00  0.00     0.128 A 
HETATM    7  C9  UNL     1      24.041   4.779  51.405  1.00  0.00     0.160 A 
HETATM    8  N3  UNL     1      22.983   5.597  51.491  1.00  0.00    -0.222 NA
HETATM    9  C16 UNL     1      22.817   6.674  50.717  1.00  0.00     0.238 A 
HETATM   10  N4  UNL     1      23.709   7.049  49.757  1.00  0.00    -0.215 NA
HETATM   11  C17 UNL     1      24.813   6.255  49.617  1.00  0.00     0.201 A 
HETATM   12  O1  UNL     1      25.664   6.737  48.598  1.00  0.00    -0.294 OA
HETATM   13  H10 UNL     1      26.312   3.844  51.321  1.00  0.00     0.159 HD
ENDROOT
BRANCH   7  14
HETATM   14  N2  UNL     1      24.205   3.619  52.192  1.00  0.00    -0.339 N 
HETATM   15  H11 UNL     1      24.900   3.420  52.930  1.00  0.00     0.167 HD
BRANCH  14  16
HETATM   16  C10 UNL     1      23.378   2.468  52.059  1.00  0.00     0.035 A 
HETATM   17  C11 UNL     1      22.688   2.153  50.927  1.00  0.00     0.029 A 
HETATM   18  C12 UNL     1      21.903   1.040  50.770  1.00  0.00     0.004 A 
HETATM   19  C13 UNL     1      21.773   0.145  51.807  1.00  0.00     0.019 A 
HETATM   20  C14 UNL     1      22.436   0.381  52.995  1.00  0.00     0.013 A 
HETATM   21 BR1  UNL     1      22.262  -0.844  54.422  1.00  0.00    -0.051 Br
HETATM   22  C15 UNL     1      23.198   1.520  53.059  1.00  0.00     0.048 A 
ENDBRANCH  14  16
ENDBRANCH   7  14
BRANCH   1  23
HETATM   23  C3  UNL     1      29.216   7.247  47.736  1.00  0.00     0.066 C 
HETATM   24  C2  UNL     1      29.737   7.638  46.585  1.00  0.00     0.006 C 
HETATM   25  C1  UNL     1      28.767   8.171  45.583  1.00  0.00     0.038 C 
BRANCH  23  26
HETATM   26  O2  UNL     1      30.178   6.773  48.598  1.00  0.00    -0.356 OA
HETATM   27  C18 UNL     1      31.279   7.550  49.002  1.00  0.00     0.210 C 
ENDBRANCH  23  26
ENDBRANCH   1  23
TORSDOF 4
ENDMDL
MODEL 4
REMARK VINA RESULT:      -7.3      4.207      6.621
REMARK  4 active torsions:
REMARK  status: ('A' for Active; 'I' for Inactive)
REMARK    1  A    between atoms: C3_3  and  C4_4 
REMARK    2  A    between atoms: C3_3  and  O2_24 
REMARK    3  A    between atoms: C9_10  and  N2_11 
REMARK    4  A    between atoms: N2_11  and  C10_12 
ROOT
HETATM    1  C4  UNL     1      27.394   0.714  52.523  1.00  0.00     0.069 C 
HETATM    2  C5  UNL     1      26.067   0.618  52.385  1.00  0.00     0.059 C 
HETATM    3  C6  UNL     1      25.393  -0.190  53.406  1.00  0.00     0.084 C 
HETATM    4  C7  UNL     1      23.922  -0.344  53.259  1.00  0.00     0.126 C 
HETATM    5  N1  UNL     1      23.197   0.902  53.141  1.00  0.00    -0.383 N 
HETATM    6  C8  UNL     1      23.207   1.808  52.049  1.00  0.00     0.128 A 
HETATM    7  C9  UNL     1      22.034   2.501  51.906  1.00  0.00     0.160 A 
HETATM    8  N3  UNL     1      22.039   3.375  50.890  1.00  0.00    -0.222 NA
HETATM    9  C16 UNL     1      23.087   3.562  50.082  1.00  0.00     0.238 A 
HETATM   10  N4  UNL     1      24.261   2.880  50.209  1.00  0.00    -0.215 NA
HETATM   11  C17 UNL     1      24.322   1.973  51.229  1.00  0.00     0.201 A 
HETATM   12  O1  UNL     1      25.579   1.328  51.266  1.00  0.00    -0.294 OA
HETATM   13  H10 UNL     1      22.571   1.230  53.940  1.00  0.00     0.159 HD
ENDROOT
BRANCH   7  14
HETATM   14  N2  UNL     1      20.919   2.270  52.740  1.00  0.00    -0.339 N 
HETATM   15  H11 UNL     1      20.771   2.538  53.727  1.00  0.00     0.167 HD
BRANCH  14  16
HETATM   16  C10 UNL     1      19.759   1.570  52.306  1.00  0.00     0.035 A 
HETATM   17  C11 UNL     1      19.561   0.234  52.490  1.00  0.00     0.029 A 
HETATM   18  C12 UNL     1      18.443  -0.457  52.099  1.00  0.00     0.004 A 
HETATM   19  C13 UNL     1      17.417   0.209  51.470  1.00  0.00     0.019 A 
HETATM   20  C14 UNL     1      17.527   1.566  51.238  1.00  0.00     0.013 A 
HETATM   21 BR1  UNL     1      16.121   2.484  50.375  1.00  0.00    -0.051 Br
HETATM   22  C15 UNL     1      18.682   2.171  51.665  1.00  0.00     0.048 A 
ENDBRANCH  14  16
ENDBRANCH   7  14
BRANCH   1  23
HETATM   23  C3  UNL     1      28.178   0.094  53.576  1.00  0.00     0.066 C 
HETATM   24  C2  UNL     1      28.949   0.818  54.372  1.00  0.00     0.006 C 
HETATM   25  C1  UNL     1      28.951   2.287  54.109  1.00  0.00     0.038 C 
BRANCH  23  26
HETATM   26  O2  UNL     1      28.236  -1.245  53.889  1.00  0.00    -0.356 OA
HETATM   27  C18 UNL     1      29.082  -2.142  53.211  1.00  0.00     0.210 C 
ENDBRANCH  23  26
ENDBRANCH   1  23
TORSDOF 4
ENDMDL
MODEL 5
REMARK VINA RESULT:      -7.3      3.533      4.787
REMARK  4 active torsions:
REMARK  status: ('A' for Active; 'I' for Inactive)
REMARK    1  A    between atoms: C3_3  and  C4_4 
REMARK    2  A    between atoms: C3_3  and  O2_24 
REMARK    3  A    between atoms: C9_10  and  N2_11 
REMARK    4  A    between atoms: N2_11  and  C10_12 
ROOT
HETATM    1  C4  UNL     1      27.108  -0.265  54.519  1.00  0.00     0.069 C 
HETATM    2  C5  UNL     1      26.017   0.478  54.303  1.00  0.00     0.059 C 
HETATM    3  C6  UNL     1      26.276   1.889  54.000  1.00  0.00     0.084 C 
HETATM    4  C7  UNL     1      25.081   2.747  53.792  1.00  0.00     0.126 C 
HETATM    5  N1  UNL     1      24.153   2.253  52.800  1.00  0.00    -0.383 N 
HETATM    6  C8  UNL     1      23.312   1.113  52.894  1.00  0.00     0.128 A 
HETATM    7  C9  UNL     1      22.151   1.232  52.177  1.00  0.00     0.160 A 
HETATM    8  N3  UNL     1      21.358   0.154  52.243  1.00  0.00    -0.222 NA
HETATM    9  C16 UNL     1      21.661  -0.944  52.942  1.00  0.00     0.238 A 
HETATM   10  N4  UNL     1      22.811  -1.079  53.661  1.00  0.00    -0.215 NA
HETATM   11  C17 UNL     1      23.666  -0.012  53.635  1.00  0.00     0.201 A 
HETATM   12  O1  UNL     1      24.819  -0.262  54.413  1.00  0.00    -0.294 OA
HETATM   13  H10 UNL     1      24.051   2.760  51.867  1.00  0.00     0.159 HD
ENDROOT
BRANCH   7  14
HETATM   14  N2  UNL     1      21.821   2.410  51.472  1.00  0.00    -0.339 N 
HETATM   15  H11 UNL     1      21.433   3.300  51.826  1.00  0.00     0.167 HD
BRANCH  14  16
HETATM   16  C10 UNL     1      21.979   2.540  50.064  1.00  0.00     0.035 A 
HETATM   17  C11 UNL     1      21.956   1.491  49.194  1.00  0.00     0.029 A 
HETATM   18  C12 UNL     1      22.086   1.596  47.833  1.00  0.00     0.004 A 
HETATM   19  C13 UNL     1      22.253   2.834  47.258  1.00  0.00     0.019 A 
HETATM   20  C14 UNL     1      22.290   3.958  48.060  1.00  0.00     0.013 A 
HETATM   21 BR1  UNL     1      22.519   5.660  47.275  1.00  0.00    -0.051 Br
HETATM   22  C15 UNL     1      22.152   3.754  49.409  1.00  0.00     0.048 A 
ENDBRANCH  14  16
ENDBRANCH   7  14
BRANCH   1  23
HETATM   23  C3  UNL     1      28.478   0.217  54.474  1.00  0.00     0.066 C 
HETATM   24  C2  UNL     1      29.411  -0.436  53.800  1.00  0.00     0.006 C 
HETATM   25  C1  UNL     1      28.958  -1.678  53.106  1.00  0.00     0.038 C 
BRANCH  23  26
HETATM   26  O2  UNL     1      28.980   1.345  55.079  1.00  0.00    -0.356 OA
HETATM   27  C18 UNL     1      29.860   2.226  54.424  1.00  0.00     0.210 C 
ENDBRANCH  23  26
ENDBRANCH   1  23
TORSDOF 4
ENDMDL
MODEL 6
REMARK VINA RESULT:      -7.2      3.872      5.997
REMARK  4 active torsions:
REMARK  status: ('A' for Active; 'I' for Inactive)
REMARK    1  A    between atoms: C3_3  and  C4_4 
REMARK    2  A    between atoms: C3_3  and  O2_24 
REMARK    3  A    between atoms: C9_10  and  N2_11 
REMARK    4  A    between atoms: N2_11  and  C10_12 
ROOT
HETATM    1  C4  UNL     1      27.612   0.590  52.450  1.00  0.00     0.069 C 
HETATM    2  C5  UNL     1      26.333   0.913  52.228  1.00  0.00     0.059 C 
HETATM    3  C6  UNL     1      25.359   0.211  53.070  1.00  0.00     0.084 C 
HETATM    4  C7  UNL     1      23.928   0.523  52.820  1.00  0.00     0.126 C 
HETATM    5  N1  UNL     1      23.605   1.932  52.862  1.00  0.00    -0.383 N 
HETATM    6  C8  UNL     1      23.980   2.935  51.931  1.00  0.00     0.128 A 
HETATM    7  C9  UNL     1      23.075   3.958  51.836  1.00  0.00     0.160 A 
HETATM    8  N3  UNL     1      23.429   4.920  50.973  1.00  0.00    -0.222 NA
HETATM    9  C16 UNL     1      24.561   4.895  50.263  1.00  0.00     0.238 A 
HETATM   10  N4  UNL     1      25.473   3.884  50.344  1.00  0.00    -0.215 NA
HETATM   11  C17 UNL     1      25.171   2.870  51.209  1.00  0.00     0.201 A 
HETATM   12  O1  UNL     1      26.181   1.882  51.211  1.00  0.00    -0.294 OA
HETATM   13  H10 UNL     1      23.023   2.321  53.668  1.00  0.00     0.159 HD
ENDROOT
BRANCH   7  14
HETATM   14  N2  UNL     1      21.864   3.958  52.561  1.00  0.00    -0.339 N 
HETATM   15  H11 UNL     1      21.679   4.264  53.531  1.00  0.00     0.167 HD
BRANCH  14  16
HETATM   16  C10 UNL     1      20.635   3.487  52.018  1.00  0.00     0.035 A 
HETATM   17  C11 UNL     1      19.811   4.238  51.234  1.00  0.00     0.029 A 
HETATM   18  C12 UNL     1      18.635   3.798  50.684  1.00  0.00     0.004 A 
HETATM   19  C13 UNL     1      18.215   2.508  50.914  1.00  0.00     0.019 A 
HETATM   20  C14 UNL     1      18.985   1.672  51.698  1.00  0.00     0.013 A 
HETATM   21 BR1  UNL     1      18.413  -0.100  52.016  1.00  0.00    -0.051 Br
HETATM   22  C15 UNL     1      20.145   2.200  52.205  1.00  0.00     0.048 A 
ENDBRANCH  14  16
ENDBRANCH   7  14
BRANCH   1  23
HETATM   23  C3  UNL     1      28.079  -0.372  53.433  1.00  0.00     0.066 C 
HETATM   24  C2  UNL     1      28.854  -0.002  54.439  1.00  0.00     0.006 C 
HETATM   25  C1  UNL     1      29.206   1.449  54.485  1.00  0.00     0.038 C 
BRANCH  23  26
HETATM   26  O2  UNL     1      27.805  -1.720  53.468  1.00  0.00    -0.356 OA
HETATM   27  C18 UNL     1      28.758  -2.693  53.117  1.00  0.00     0.210 C 
ENDBRANCH  23  26
ENDBRANCH   1  23
TORSDOF 4
ENDMDL
MODEL 7
REMARK VINA RESULT:      -7.2      3.093      4.593
REMARK  4 active torsions:
REMARK  status: ('A' for Active; 'I' for Inactive)
REMARK    1  A    between atoms: C3_3  and  C4_4 
REMARK    2  A    between atoms: C3_3  and  O2_24 
REMARK    3  A    between atoms: C9_10  and  N2_11 
REMARK    4  A    between atoms: N2_11  and  C10_12 
ROOT
HETATM    1  C4  UNL     1      27.510   0.910  52.246  1.00  0.00     0.069 C 
HETATM    2  C5  UNL     1      26.419   1.608  51.915  1.00  0.00     0.059 C 
HETATM    3  C6  UNL     1      25.290   1.473  52.842  1.00  0.00     0.084 C 
HETATM    4  C7  UNL     1      24.051   2.209  52.481  1.00  0.00     0.126 C 
HETATM    5  N1  UNL     1      24.243   3.621  52.230  1.00  0.00    -0.383 N 
HETATM    6  C8  UNL     1      24.913   4.221  51.133  1.00  0.00     0.128 A 
HETATM    7  C9  UNL     1      24.420   5.456  50.803  1.00  0.00     0.160 A 
HETATM    8  N3  UNL     1      25.059   6.041  49.780  1.00  0.00    -0.222 NA
HETATM    9  C16 UNL     1      26.085   5.480  49.133  1.00  0.00     0.238 A 
HETATM   10  N4  UNL     1      26.588   4.253  49.448  1.00  0.00    -0.215 NA
HETATM   11  C17 UNL     1      25.980   3.602  50.484  1.00  0.00     0.201 A 
HETATM   12  O1  UNL     1      26.580   2.345  50.721  1.00  0.00    -0.294 OA
HETATM   13  H10 UNL     1      23.862   4.340  52.920  1.00  0.00     0.159 HD
ENDROOT
BRANCH   7  14
HETATM   14  N2  UNL     1      23.312   6.023  51.467  1.00  0.00    -0.339 N 
HETATM   15  H11 UNL     1      23.193   6.254  52.467  1.00  0.00     0.167 HD
BRANCH  14  16
HETATM   16  C10 UNL     1      22.104   6.373  50.799  1.00  0.00     0.035 A 
HETATM   17  C11 UNL     1      21.111   5.487  50.506  1.00  0.00     0.029 A 
HETATM   18  C12 UNL     1      19.932   5.805  49.883  1.00  0.00     0.004 A 
HETATM   19  C13 UNL     1      19.690   7.106  49.508  1.00  0.00     0.019 A 
HETATM   20  C14 UNL     1      20.639   8.076  49.763  1.00  0.00     0.013 A 
HETATM   21 BR1  UNL     1      20.311   9.864  49.250  1.00  0.00    -0.051 Br
HETATM   22  C15 UNL     1      21.787   7.663  50.390  1.00  0.00     0.048 A 
ENDBRANCH  14  16
ENDBRANCH   7  14
BRANCH   1  23
HETATM   23  C3  UNL     1      27.645   0.061  53.417  1.00  0.00     0.066 C 
HETATM   24  C2  UNL     1      28.397   0.425  54.443  1.00  0.00     0.006 C 
HETATM   25  C1  UNL     1      29.083   1.744  54.307  1.00  0.00     0.038 C 
BRANCH  23  26
HETATM   26  O2  UNL     1      27.052  -1.163  53.627  1.00  0.00    -0.356 OA
HETATM   27  C18 UNL     1      26.930  -2.126  52.609  1.00  0.00     0.210 C 
ENDBRANCH  23  26
ENDBRANCH   1  23
TORSDOF 4
ENDMDL
MODEL 8
REMARK VINA RESULT:      -7.2      4.889      7.252
REMARK  4 active torsions:
REMARK  status: ('A' for Active; 'I' for Inactive)
REMARK    1  A    between atoms: C3_3  and  C4_4 
REMARK    2  A    between atoms: C3_3  and  O2_24 
REMARK    3  A    between atoms: C9_10  and  N2_11 
REMARK    4  A    between atoms: N2_11  and  C10_12 
ROOT
HETATM    1  C4  UNL     1      25.936  -0.507  54.475  1.00  0.00     0.069 C 
HETATM    2  C5  UNL     1      24.806   0.117  54.125  1.00  0.00     0.059 C 
HETATM    3  C6  UNL     1      24.981   1.258  53.220  1.00  0.00     0.084 C 
HETATM    4  C7  UNL     1      23.746   1.993  52.843  1.00  0.00     0.126 C 
HETATM    5  N1  UNL     1      22.694   1.163  52.299  1.00  0.00    -0.383 N 
HETATM    6  C8  UNL     1      21.907   0.203  52.987  1.00  0.00     0.128 A 
HETATM    7  C9  UNL     1      20.650   0.054  52.463  1.00  0.00     0.160 A 
HETATM    8  N3  UNL     1      19.904  -0.864  53.094  1.00  0.00    -0.222 NA
HETATM    9  C16 UNL     1      20.335  -1.575  54.140  1.00  0.00     0.238 A 
HETATM   10  N4  UNL     1      21.582  -1.438  54.674  1.00  0.00    -0.215 NA
HETATM   11  C17 UNL     1      22.395  -0.517  54.076  1.00  0.00     0.201 A 
HETATM   12  O1  UNL     1      23.657  -0.460  54.710  1.00  0.00    -0.294 OA
HETATM   13  H10 UNL     1      22.443   1.232  51.265  1.00  0.00     0.159 HD
ENDROOT
BRANCH   7  14
HETATM   14  N2  UNL     1      20.189   0.836  51.382  1.00  0.00    -0.339 N 
HETATM   15  H11 UNL     1      20.729   1.331  50.654  1.00  0.00     0.167 HD
BRANCH  14  16
HETATM   16  C10 UNL     1      18.809   1.079  51.135  1.00  0.00     0.035 A 
HETATM   17  C11 UNL     1      17.995   0.224  50.453  1.00  0.00     0.029 A 
HETATM   18  C12 UNL     1      16.659   0.428  50.221  1.00  0.00     0.004 A 
HETATM   19  C13 UNL     1      16.052   1.568  50.694  1.00  0.00     0.019 A 
HETATM   20  C14 UNL     1      16.797   2.495  51.397  1.00  0.00     0.013 A 
HETATM   21 BR1  UNL     1      15.968   4.061  52.049  1.00  0.00    -0.051 Br
HETATM   22  C15 UNL     1      18.125   2.204  51.580  1.00  0.00     0.048 A 
ENDBRANCH  14  16
ENDBRANCH   7  14
BRANCH   1  23
HETATM   23  C3  UNL     1      27.271  -0.143  54.033  1.00  0.00     0.066 C 
HETATM   24  C2  UNL     1      27.898  -0.844  53.103  1.00  0.00     0.006 C 
HETATM   25  C1  UNL     1      27.146  -2.012  52.555  1.00  0.00     0.038 C 
BRANCH  23  26
HETATM   26  O2  UNL     1      28.033   0.911  54.480  1.00  0.00    -0.356 OA
HETATM   27  C18 UNL     1      28.777   1.728  53.608  1.00  0.00     0.210 C 
ENDBRANCH  23  26
ENDBRANCH   1  23
TORSDOF 4
ENDMDL
MODEL 9
REMARK VINA RESULT:      -7.2      3.904      8.070
REMARK  4 active torsions:
REMARK  status: ('A' for Active; 'I' for Inactive)
REMARK    1  A    between atoms: C3_3  and  C4_4 
REMARK    2  A    between atoms: C3_3  and  O2_24 
REMARK    3  A    between atoms: C9_10  and  N2_11 
REMARK    4  A    between atoms: N2_11  and  C10_12 
ROOT
HETATM    1  C4  UNL     1      28.080   7.870  47.667  1.00  0.00     0.069 C 
HETATM    2  C5  UNL     1      27.283   6.916  48.161  1.00  0.00     0.059 C 
HETATM    3  C6  UNL     1      27.950   5.647  48.470  1.00  0.00     0.084 C 
HETATM    4  C7  UNL     1      27.082   4.557  48.987  1.00  0.00     0.126 C 
HETATM    5  N1  UNL     1      26.282   4.920  50.136  1.00  0.00    -0.383 N 
HETATM    6  C8  UNL     1      25.178   5.810  50.175  1.00  0.00     0.128 A 
HETATM    7  C9  UNL     1      24.258   5.495  51.140  1.00  0.00     0.160 A 
HETATM    8  N3  UNL     1      23.220   6.341  51.199  1.00  0.00    -0.222 NA
HETATM    9  C16 UNL     1      23.083   7.399  50.393  1.00  0.00     0.238 A 
HETATM   10  N4  UNL     1      23.988   7.726  49.427  1.00  0.00    -0.215 NA
HETATM   11  C17 UNL     1      25.073   6.902  49.315  1.00  0.00     0.201 A 
HETATM   12  O1  UNL     1      25.939   7.334  48.286  1.00  0.00    -0.294 OA
HETATM   13  H10 UNL     1      26.507   4.505  51.093  1.00  0.00     0.159 HD
ENDROOT
BRANCH   7  14
HETATM   14  N2  UNL     1      24.392   4.355  51.961  1.00  0.00    -0.339 N 
HETATM   15  H11 UNL     1      24.999   4.205  52.783  1.00  0.00     0.167 HD
BRANCH  14  16
HETATM   16  C10 UNL     1      23.660   3.154  51.743  1.00  0.00     0.035 A 
HETATM   17  C11 UNL     1      23.469   2.194  52.693  1.00  0.00     0.029 A 
HETATM   18  C12 UNL     1      22.751   1.041  52.511  1.00  0.00     0.004 A 
HETATM   19  C13 UNL     1      22.160   0.791  51.294  1.00  0.00     0.019 A 
HETATM   20  C14 UNL     1      22.299   1.706  50.269  1.00  0.00     0.013 A 
HETATM   21 BR1  UNL     1      21.489   1.367  48.597  1.00  0.00    -0.051 Br
HETATM   22  C15 UNL     1      23.035   2.830  50.545  1.00  0.00     0.048 A 
ENDBRANCH  14  16
ENDBRANCH   7  14
BRANCH   1  23
HETATM   23  C3  UNL     1      29.506   7.735  47.427  1.00  0.00     0.066 C 
HETATM   24  C2  UNL     1      30.021   7.946  46.227  1.00  0.00     0.006 C 
HETATM   25  C1  UNL     1      29.046   8.324  45.162  1.00  0.00     0.038 C 
BRANCH  23  26
HETATM   26  O2  UNL     1      30.472   7.393  48.346  1.00  0.00    -0.356 OA
HETATM   27  C18 UNL     1      31.396   8.326  48.851  1.00  0.00     0.210 C 
ENDBRANCH  23  26
ENDBRANCH   1  23
TORSDOF 4
ENDMDL
