MODEL 1
REMARK VINA RESULT:      -8.1      0.000      0.000
REMARK  3 active torsions:
REMARK  status: ('A' for Active; 'I' for Inactive)
REMARK    1  A    between atoms: C5_5  and  C6_6 
REMARK    2  A    between atoms: C10_11  and  N2_12 
REMARK       I    between atoms: N2_12  and  C11_13 
REMARK    3  A    between atoms: C11_13  and  C12_15 
ROOT
HETATM    1  C6  UNL     1      22.855   0.718  51.990  1.00  0.00     0.135 C 
HETATM    2  N1  UNL     1      21.978  -0.121  52.517  1.00  0.00    -0.233 NA
HETATM    3  C7  UNL     1      22.456  -0.578  53.785  1.00  0.00     0.065 A 
HETATM    4  C8  UNL     1      22.446  -1.022  55.031  1.00  0.00     0.032 A 
HETATM    5  C9  UNL     1      23.819  -1.196  55.493  1.00  0.00     0.029 A 
HETATM    6  C10 UNL     1      24.689  -0.876  54.565  1.00  0.00     0.041 A 
HETATM    7  C13 UNL     1      23.884  -0.534  53.381  1.00  0.00     0.185 A 
HETATM    8  N3  UNL     1      23.980   0.827  52.910  1.00  0.00    -0.358 N 
HETATM    9  H12 UNL     1      24.452   1.758  52.933  1.00  0.00     0.162 HD
ENDROOT
BRANCH   1  10
HETATM   10  C5  UNL     1      22.582   1.344  50.659  1.00  0.00     0.009 A 
HETATM   11  C4  UNL     1      21.578   0.934  49.808  1.00  0.00     0.016 A 
HETATM   12  C3  UNL     1      21.384   1.552  48.590  1.00  0.00     0.007 A 
HETATM   13  C2  UNL     1      22.192   2.598  48.195  1.00  0.00    -0.062 A 
HETATM   14  C1  UNL     1      21.965   3.253  46.873  1.00  0.00     0.048 C 
HETATM   15  C15 UNL     1      23.198   3.013  49.042  1.00  0.00     0.007 A 
HETATM   16  C14 UNL     1      23.386   2.389  50.258  1.00  0.00     0.016 A 
ENDBRANCH   1  10
BRANCH   6  17
HETATM   17  N2  UNL     1      26.105  -0.892  54.594  1.00  0.00    -0.327 N 
HETATM   18  C11 UNL     1      26.936   0.246  54.719  1.00  0.00     0.235 C 
HETATM   19  O1  UNL     1      26.423   1.390  54.815  1.00  0.00    -0.272 OA
HETATM   20  H8  UNL     1      26.647  -1.779  54.523  1.00  0.00     0.168 HD
BRANCH  18  21
HETATM   21  C12 UNL     1      28.421   0.184  54.747  1.00  0.00     0.217 C 
HETATM   22 CL1  UNL     1      29.045  -0.944  53.522  1.00  0.00    -0.121 Cl
ENDBRANCH  18  21
ENDBRANCH   6  17
TORSDOF 3
ENDMDL
MODEL 2
REMARK VINA RESULT:      -8.0      3.108      4.070
REMARK  3 active torsions:
REMARK  status: ('A' for Active; 'I' for Inactive)
REMARK    1  A    between atoms: C5_5  and  C6_6 
REMARK    2  A    between atoms: C10_11  and  N2_12 
REMARK       I    between atoms: N2_12  and  C11_13 
REMARK    3  A    between atoms: C11_13  and  C12_15 
ROOT
HETATM    1  C6  UNL     1      25.404   3.356  50.782  1.00  0.00     0.135 C 
HETATM    2  N1  UNL     1      24.242   2.799  50.478  1.00  0.00    -0.233 NA
HETATM    3  C7  UNL     1      23.908   1.821  51.464  1.00  0.00     0.065 A 
HETATM    4  C8  UNL     1      23.179   1.047  52.252  1.00  0.00     0.032 A 
HETATM    5  C9  UNL     1      24.061   0.222  53.070  1.00  0.00     0.029 A 
HETATM    6  C10 UNL     1      25.325   0.456  52.811  1.00  0.00     0.041 A 
HETATM    7  C13 UNL     1      25.321   1.435  51.713  1.00  0.00     0.185 A 
HETATM    8  N3  UNL     1      25.896   2.727  52.001  1.00  0.00    -0.358 N 
HETATM    9  H12 UNL     1      26.454   3.345  52.630  1.00  0.00     0.162 HD
ENDROOT
BRANCH   1  10
HETATM   10  C5  UNL     1      25.973   4.422  49.901  1.00  0.00     0.009 A 
HETATM   11  C4  UNL     1      27.181   4.315  49.244  1.00  0.00     0.016 A 
HETATM   12  C3  UNL     1      27.651   5.340  48.451  1.00  0.00     0.007 A 
HETATM   13  C2  UNL     1      26.921   6.500  48.294  1.00  0.00    -0.062 A 
HETATM   14  C1  UNL     1      27.447   7.598  47.431  1.00  0.00     0.048 C 
HETATM   15  C15 UNL     1      25.712   6.615  48.948  1.00  0.00     0.007 A 
HETATM   16  C14 UNL     1      25.249   5.585  49.741  1.00  0.00     0.016 A 
ENDBRANCH   1  10
BRANCH   6  17
HETATM   17  N2  UNL     1      26.495  -0.112  53.374  1.00  0.00    -0.327 N 
HETATM   18  C11 UNL     1      27.397   0.553  54.237  1.00  0.00     0.235 C 
HETATM   19  O1  UNL     1      27.188   1.749  54.561  1.00  0.00    -0.272 OA
HETATM   20  H8  UNL     1      26.776  -1.097  53.180  1.00  0.00     0.168 HD
BRANCH  18  21
HETATM   21  C12 UNL     1      28.614  -0.083  54.806  1.00  0.00     0.217 C 
HETATM   22 CL1  UNL     1      29.773  -0.521  53.530  1.00  0.00    -0.121 Cl
ENDBRANCH  18  21
ENDBRANCH   6  17
TORSDOF 3
ENDMDL
MODEL 3
REMARK VINA RESULT:      -7.5      3.384      6.350
REMARK  3 active torsions:
REMARK  status: ('A' for Active; 'I' for Inactive)
REMARK    1  A    between atoms: C5_5  and  C6_6 
REMARK    2  A    between atoms: C10_11  and  N2_12 
REMARK       I    between atoms: N2_12  and  C11_13 
REMARK    3  A    between atoms: C11_13  and  C12_15 
ROOT
HETATM    1  C6  UNL     1      24.139  -0.478  53.589  1.00  0.00     0.135 C 
HETATM    2  N1  UNL     1      23.459  -1.158  54.498  1.00  0.00    -0.233 NA
HETATM    3  C7  UNL     1      22.058  -0.991  54.271  1.00  0.00     0.065 A 
HETATM    4  C8  UNL     1      20.762  -1.255  54.246  1.00  0.00     0.032 A 
HETATM    5  C9  UNL     1      20.049  -0.122  53.666  1.00  0.00     0.029 A 
HETATM    6  C10 UNL     1      20.866   0.847  53.330  1.00  0.00     0.041 A 
HETATM    7  C13 UNL     1      22.199   0.398  53.764  1.00  0.00     0.185 A 
HETATM    8  N3  UNL     1      23.179   0.198  52.724  1.00  0.00    -0.358 N 
HETATM    9  H12 UNL     1      23.475   0.312  51.730  1.00  0.00     0.162 HD
ENDROOT
BRANCH   1  10
HETATM   10  C5  UNL     1      25.635  -0.497  53.607  1.00  0.00     0.009 A 
HETATM   11  C4  UNL     1      26.406  -1.216  52.718  1.00  0.00     0.016 A 
HETATM   12  C3  UNL     1      27.783  -1.194  52.794  1.00  0.00     0.007 A 
HETATM   13  C2  UNL     1      28.423  -0.449  53.764  1.00  0.00    -0.062 A 
HETATM   14  C1  UNL     1      29.913  -0.438  53.828  1.00  0.00     0.048 C 
HETATM   15  C15 UNL     1      27.657   0.273  54.656  1.00  0.00     0.007 A 
HETATM   16  C14 UNL     1      26.280   0.245  54.574  1.00  0.00     0.016 A 
ENDBRANCH   1  10
BRANCH   6  17
HETATM   17  N2  UNL     1      20.598   2.105  52.737  1.00  0.00    -0.327 N 
HETATM   18  C11 UNL     1      20.812   2.435  51.378  1.00  0.00     0.235 C 
HETATM   19  O1  UNL     1      21.278   1.573  50.590  1.00  0.00    -0.272 OA
HETATM   20  H8  UNL     1      20.210   2.901  53.287  1.00  0.00     0.168 HD
BRANCH  18  21
HETATM   21  C12 UNL     1      20.515   3.770  50.796  1.00  0.00     0.217 C 
HETATM   22 CL1  UNL     1      21.497   5.041  51.560  1.00  0.00    -0.121 Cl
ENDBRANCH  18  21
ENDBRANCH   6  17
TORSDOF 3
ENDMDL
MODEL 4
REMARK VINA RESULT:      -7.4      4.026      6.909
REMARK  3 active torsions:
REMARK  status: ('A' for Active; 'I' for Inactive)
REMARK    1  A    between atoms: C5_5  and  C6_6 
REMARK    2  A    between atoms: C10_11  and  N2_12 
REMARK       I    between atoms: N2_12  and  C11_13 
REMARK    3  A    between atoms: C11_13  and  C12_15 
ROOT
HETATM    1  C6  UNL     1      25.258   2.014  52.546  1.00  0.00     0.135 C 
HETATM    2  N1  UNL     1      24.100   1.566  53.003  1.00  0.00    -0.233 NA
HETATM    3  C7  UNL     1      23.047   2.424  52.558  1.00  0.00     0.065 A 
HETATM    4  C8  UNL     1      21.845   2.821  52.171  1.00  0.00     0.032 A 
HETATM    5  C9  UNL     1      21.879   4.249  51.876  1.00  0.00     0.029 A 
HETATM    6  C10 UNL     1      23.072   4.758  52.072  1.00  0.00     0.041 A 
HETATM    7  C13 UNL     1      23.885   3.649  52.596  1.00  0.00     0.185 A 
HETATM    8  N3  UNL     1      25.000   3.228  51.782  1.00  0.00    -0.358 N 
HETATM    9  H12 UNL     1      25.637   3.393  50.973  1.00  0.00     0.162 HD
ENDROOT
BRANCH   1  10
HETATM   10  C5  UNL     1      26.521   1.282  52.870  1.00  0.00     0.009 A 
HETATM   11  C4  UNL     1      27.668   1.892  53.332  1.00  0.00     0.016 A 
HETATM   12  C3  UNL     1      28.802   1.158  53.607  1.00  0.00     0.007 A 
HETATM   13  C2  UNL     1      28.816  -0.210  53.427  1.00  0.00    -0.062 A 
HETATM   14  C1  UNL     1      30.053  -0.987  53.730  1.00  0.00     0.048 C 
HETATM   15  C15 UNL     1      27.672  -0.827  52.965  1.00  0.00     0.007 A 
HETATM   16  C14 UNL     1      26.542  -0.085  52.691  1.00  0.00     0.016 A 
ENDBRANCH   1  10
BRANCH   6  17
HETATM   17  N2  UNL     1      23.540   6.084  51.902  1.00  0.00    -0.327 N 
HETATM   18  C11 UNL     1      24.334   6.544  50.825  1.00  0.00     0.235 C 
HETATM   19  O1  UNL     1      24.680   5.746  49.917  1.00  0.00    -0.272 OA
HETATM   20  H8  UNL     1      23.319   6.837  52.588  1.00  0.00     0.168 HD
BRANCH  18  21
HETATM   21  C12 UNL     1      24.803   7.947  50.685  1.00  0.00     0.217 C 
HETATM   22 CL1  UNL     1      26.455   8.016  50.031  1.00  0.00    -0.121 Cl
ENDBRANCH  18  21
ENDBRANCH   6  17
TORSDOF 3
ENDMDL
MODEL 5
REMARK VINA RESULT:      -7.3      4.084      5.450
REMARK  3 active torsions:
REMARK  status: ('A' for Active; 'I' for Inactive)
REMARK    1  A    between atoms: C5_5  and  C6_6 
REMARK    2  A    between atoms: C10_11  and  N2_12 
REMARK       I    between atoms: N2_12  and  C11_13 
REMARK    3  A    between atoms: C11_13  and  C12_15 
ROOT
HETATM    1  C6  UNL     1      26.000   3.268  50.404  1.00  0.00     0.135 C 
HETATM    2  N1  UNL     1      27.057   2.696  50.957  1.00  0.00    -0.233 NA
HETATM    3  C7  UNL     1      26.653   1.517  51.655  1.00  0.00     0.065 A 
HETATM    4  C8  UNL     1      26.703   0.304  52.182  1.00  0.00     0.032 A 
HETATM    5  C9  UNL     1      25.433   0.006  52.834  1.00  0.00     0.029 A 
HETATM    6  C10 UNL     1      24.588   1.005  52.733  1.00  0.00     0.041 A 
HETATM    7  C13 UNL     1      25.331   2.072  52.043  1.00  0.00     0.185 A 
HETATM    8  N3  UNL     1      24.828   2.473  50.751  1.00  0.00    -0.358 N 
HETATM    9  H12 UNL     1      24.074   2.449  50.030  1.00  0.00     0.162 HD
ENDROOT
BRANCH   1  10
HETATM   10  C5  UNL     1      26.162   4.523  49.607  1.00  0.00     0.009 A 
HETATM   11  C4  UNL     1      25.162   5.456  49.428  1.00  0.00     0.016 A 
HETATM   12  C3  UNL     1      25.376   6.591  48.676  1.00  0.00     0.007 A 
HETATM   13  C2  UNL     1      26.601   6.821  48.082  1.00  0.00    -0.062 A 
HETATM   14  C1  UNL     1      26.812   8.056  47.272  1.00  0.00     0.048 C 
HETATM   15  C15 UNL     1      27.605   5.893  48.258  1.00  0.00     0.007 A 
HETATM   16  C14 UNL     1      27.382   4.759  49.012  1.00  0.00     0.016 A 
ENDBRANCH   1  10
BRANCH   6  17
HETATM   17  N2  UNL     1      23.261   1.133  53.211  1.00  0.00    -0.327 N 
HETATM   18  C11 UNL     1      22.092   1.063  52.416  1.00  0.00     0.235 C 
HETATM   19  O1  UNL     1      22.187   0.875  51.177  1.00  0.00    -0.272 OA
HETATM   20  H8  UNL     1      23.053   1.292  54.219  1.00  0.00     0.168 HD
BRANCH  18  21
HETATM   21  C12 UNL     1      20.716   1.202  52.961  1.00  0.00     0.217 C 
HETATM   22 CL1  UNL     1      20.552   0.375  54.526  1.00  0.00    -0.121 Cl
ENDBRANCH  18  21
ENDBRANCH   6  17
TORSDOF 3
ENDMDL
MODEL 6
REMARK VINA RESULT:      -7.3      3.179      5.185
REMARK  3 active torsions:
REMARK  status: ('A' for Active; 'I' for Inactive)
REMARK    1  A    between atoms: C5_5  and  C6_6 
REMARK    2  A    between atoms: C10_11  and  N2_12 
REMARK       I    between atoms: N2_12  and  C11_13 
REMARK    3  A    between atoms: C11_13  and  C12_15 
ROOT
HETATM    1  C6  UNL     1      23.959   0.444  53.277  1.00  0.00     0.135 C 
HETATM    2  N1  UNL     1      24.890  -0.465  53.519  1.00  0.00    -0.233 NA
HETATM    3  C7  UNL     1      26.179   0.149  53.483  1.00  0.00     0.065 A 
HETATM    4  C8  UNL     1      27.454   0.383  53.751  1.00  0.00     0.032 A 
HETATM    5  C9  UNL     1      27.907   1.535  52.980  1.00  0.00     0.029 A 
HETATM    6  C10 UNL     1      26.948   2.027  52.232  1.00  0.00     0.041 A 
HETATM    7  C13 UNL     1      25.798   1.132  52.437  1.00  0.00     0.185 A 
HETATM    8  N3  UNL     1      24.628   1.718  53.044  1.00  0.00    -0.358 N 
HETATM    9  H12 UNL     1      24.102   2.563  53.357  1.00  0.00     0.162 HD
ENDROOT
BRANCH   1  10
HETATM   10  C5  UNL     1      22.516   0.050  53.266  1.00  0.00     0.009 A 
HETATM   11  C4  UNL     1      21.555   0.670  52.496  1.00  0.00     0.016 A 
HETATM   12  C3  UNL     1      20.239   0.260  52.538  1.00  0.00     0.007 A 
HETATM   13  C2  UNL     1      19.852  -0.784  53.354  1.00  0.00    -0.062 A 
HETATM   14  C1  UNL     1      18.423  -1.212  53.384  1.00  0.00     0.048 C 
HETATM   15  C15 UNL     1      20.809  -1.408  54.126  1.00  0.00     0.007 A 
HETATM   16  C14 UNL     1      22.123  -0.992  54.080  1.00  0.00     0.016 A 
ENDBRANCH   1  10
BRANCH   6  17
HETATM   17  N2  UNL     1      26.955   3.132  51.346  1.00  0.00    -0.327 N 
HETATM   18  C11 UNL     1      25.936   3.446  50.415  1.00  0.00     0.235 C 
HETATM   19  O1  UNL     1      24.919   2.711  50.329  1.00  0.00    -0.272 OA
HETATM   20  H8  UNL     1      27.744   3.813  51.322  1.00  0.00     0.168 HD
BRANCH  18  21
HETATM   21  C12 UNL     1      25.983   4.618  49.503  1.00  0.00     0.217 C 
HETATM   22 CL1  UNL     1      27.551   4.728  48.671  1.00  0.00    -0.121 Cl
ENDBRANCH  18  21
ENDBRANCH   6  17
TORSDOF 3
ENDMDL
MODEL 7
REMARK VINA RESULT:      -7.1      4.637      7.544
REMARK  3 active torsions:
REMARK  status: ('A' for Active; 'I' for Inactive)
REMARK    1  A    between atoms: C5_5  and  C6_6 
REMARK    2  A    between atoms: C10_11  and  N2_12 
REMARK       I    between atoms: N2_12  and  C11_13 
REMARK    3  A    between atoms: C11_13  and  C12_15 
ROOT
HETATM    1  C6  UNL     1      25.343   2.934  51.131  1.00  0.00     0.135 C 
HETATM    2  N1  UNL     1      26.310   2.620  50.285  1.00  0.00    -0.233 NA
HETATM    3  C7  UNL     1      26.735   3.793  49.587  1.00  0.00     0.065 A 
HETATM    4  C8  UNL     1      27.519   4.642  48.943  1.00  0.00     0.032 A 
HETATM    5  C9  UNL     1      26.755   5.833  48.589  1.00  0.00     0.029 A 
HETATM    6  C10 UNL     1      25.510   5.750  48.992  1.00  0.00     0.041 A 
HETATM    7  C13 UNL     1      25.384   4.411  49.588  1.00  0.00     0.185 A 
HETATM    8  N3  UNL     1      25.075   4.361  50.997  1.00  0.00    -0.358 N 
HETATM    9  H12 UNL     1      24.775   4.844  51.871  1.00  0.00     0.162 HD
ENDROOT
BRANCH   1  10
HETATM   10  C5  UNL     1      24.729   1.874  51.989  1.00  0.00     0.009 A 
HETATM   11  C4  UNL     1      25.415   0.778  52.467  1.00  0.00     0.016 A 
HETATM   12  C3  UNL     1      24.787  -0.167  53.250  1.00  0.00     0.007 A 
HETATM   13  C2  UNL     1      23.452  -0.037  53.576  1.00  0.00    -0.062 A 
HETATM   14  C1  UNL     1      22.791  -1.070  54.425  1.00  0.00     0.048 C 
HETATM   15  C15 UNL     1      22.760   1.057  53.101  1.00  0.00     0.007 A 
HETATM   16  C14 UNL     1      23.396   1.998  52.317  1.00  0.00     0.016 A 
ENDBRANCH   1  10
BRANCH   6  17
HETATM   17  N2  UNL     1      24.443   6.673  48.863  1.00  0.00    -0.327 N 
HETATM   18  C11 UNL     1      23.906   7.459  49.910  1.00  0.00     0.235 C 
HETATM   19  O1  UNL     1      24.380   7.365  51.070  1.00  0.00    -0.272 OA
HETATM   20  H8  UNL     1      23.967   6.840  47.950  1.00  0.00     0.168 HD
BRANCH  18  21
HETATM   21  C12 UNL     1      22.785   8.418  49.729  1.00  0.00     0.217 C 
HETATM   22 CL1  UNL     1      21.277   7.791  50.433  1.00  0.00    -0.121 Cl
ENDBRANCH  18  21
ENDBRANCH   6  17
TORSDOF 3
ENDMDL
MODEL 8
REMARK VINA RESULT:      -7.0      5.065      7.436
REMARK  3 active torsions:
REMARK  status: ('A' for Active; 'I' for Inactive)
REMARK    1  A    between atoms: C5_5  and  C6_6 
REMARK    2  A    between atoms: C10_11  and  N2_12 
REMARK       I    between atoms: N2_12  and  C11_13 
REMARK    3  A    between atoms: C11_13  and  C12_15 
ROOT
HETATM    1  C6  UNL     1      24.313   3.980  51.252  1.00  0.00     0.135 C 
HETATM    2  N1  UNL     1      23.036   4.204  51.517  1.00  0.00    -0.233 NA
HETATM    3  C7  UNL     1      22.673   5.507  51.055  1.00  0.00     0.065 A 
HETATM    4  C8  UNL     1      21.936   6.498  50.581  1.00  0.00     0.032 A 
HETATM    5  C9  UNL     1      22.758   7.697  50.458  1.00  0.00     0.029 A 
HETATM    6  C10 UNL     1      23.992   7.482  50.847  1.00  0.00     0.041 A 
HETATM    7  C13 UNL     1      24.010   6.093  51.331  1.00  0.00     0.185 A 
HETATM    8  N3  UNL     1      24.853   5.171  50.608  1.00  0.00    -0.358 N 
HETATM    9  H12 UNL     1      25.601   4.998  49.902  1.00  0.00     0.162 HD
ENDROOT
BRANCH   1  10
HETATM   10  C5  UNL     1      24.936   2.675  51.634  1.00  0.00     0.009 A 
HETATM   11  C4  UNL     1      26.230   2.319  51.318  1.00  0.00     0.016 A 
HETATM   12  C3  UNL     1      26.742   1.096  51.697  1.00  0.00     0.007 A 
HETATM   13  C2  UNL     1      25.969   0.197  52.403  1.00  0.00    -0.062 A 
HETATM   14  C1  UNL     1      26.542  -1.121  52.804  1.00  0.00     0.048 C 
HETATM   15  C15 UNL     1      24.674   0.547  52.722  1.00  0.00     0.007 A 
HETATM   16  C14 UNL     1      24.169   1.773  52.339  1.00  0.00     0.016 A 
ENDBRANCH   1  10
BRANCH   6  17
HETATM   17  N2  UNL     1      25.104   8.359  50.886  1.00  0.00    -0.327 N 
HETATM   18  C11 UNL     1      26.213   8.318  50.008  1.00  0.00     0.235 C 
HETATM   19  O1  UNL     1      26.263   7.448  49.102  1.00  0.00    -0.272 OA
HETATM   20  H8  UNL     1      25.179   9.122  51.592  1.00  0.00     0.168 HD
BRANCH  18  21
HETATM   21  C12 UNL     1      27.361   9.259  50.084  1.00  0.00     0.217 C 
HETATM   22 CL1  UNL     1      28.735   8.686  49.112  1.00  0.00    -0.121 Cl
ENDBRANCH  18  21
ENDBRANCH   6  17
TORSDOF 3
ENDMDL
MODEL 9
REMARK VINA RESULT:      -7.0      3.985      5.434
REMARK  3 active torsions:
REMARK  status: ('A' for Active; 'I' for Inactive)
REMARK    1  A    between atoms: C5_5  and  C6_6 
REMARK    2  A    between atoms: C10_11  and  N2_12 
REMARK       I    between atoms: N2_12  and  C11_13 
REMARK    3  A    between atoms: C11_13  and  C12_15 
ROOT
HETATM    1  C6  UNL     1      25.081   2.425  51.208  1.00  0.00     0.135 C 
HETATM    2  N1  UNL     1      25.829   1.900  52.164  1.00  0.00    -0.233 NA
HETATM    3  C7  UNL     1      25.115   0.838  52.801  1.00  0.00     0.065 A 
HETATM    4  C8  UNL     1      24.884  -0.294  53.446  1.00  0.00     0.032 A 
HETATM    5  C9  UNL     1      23.446  -0.462  53.628  1.00  0.00     0.029 A 
HETATM    6  C10 UNL     1      22.771   0.540  53.117  1.00  0.00     0.041 A 
HETATM    7  C13 UNL     1      23.788   1.480  52.622  1.00  0.00     0.185 A 
HETATM    8  N3  UNL     1      23.805   1.720  51.199  1.00  0.00    -0.358 N 
HETATM    9  H12 UNL     1      23.353   1.622  50.263  1.00  0.00     0.162 HD
ENDROOT
BRANCH   1  10
HETATM   10  C5  UNL     1      25.608   3.556  50.384  1.00  0.00     0.009 A 
HETATM   11  C4  UNL     1      26.744   3.477  49.606  1.00  0.00     0.016 A 
HETATM   12  C3  UNL     1      27.179   4.562  48.873  1.00  0.00     0.007 A 
HETATM   13  C2  UNL     1      26.486   5.755  48.902  1.00  0.00    -0.062 A 
HETATM   14  C1  UNL     1      26.974   6.916  48.103  1.00  0.00     0.048 C 
HETATM   15  C15 UNL     1      25.349   5.840  49.679  1.00  0.00     0.007 A 
HETATM   16  C14 UNL     1      24.921   4.751  50.409  1.00  0.00     0.016 A 
ENDBRANCH   1  10
BRANCH   6  17
HETATM   17  N2  UNL     1      21.374   0.771  53.068  1.00  0.00    -0.327 N 
HETATM   18  C11 UNL     1      20.547   0.569  51.938  1.00  0.00     0.235 C 
HETATM   19  O1  UNL     1      21.047   0.153  50.863  1.00  0.00    -0.272 OA
HETATM   20  H8  UNL     1      20.845   1.118  53.897  1.00  0.00     0.168 HD
BRANCH  18  21
HETATM   21  C12 UNL     1      19.083   0.825  51.931  1.00  0.00     0.217 C 
HETATM   22 CL1  UNL     1      18.373   0.484  50.337  1.00  0.00    -0.121 Cl
ENDBRANCH  18  21
ENDBRANCH   6  17
TORSDOF 3
ENDMDL
