MODEL 1
REMARK VINA RESULT:      -9.6      0.000      0.000
REMARK  3 active torsions:
REMARK  status: ('A' for Active; 'I' for Inactive)
REMARK    1  A    between atoms: C3_4  and  C4_5 
REMARK    2  A    between atoms: C10_11  and  C11_12 
REMARK    3  A    between atoms: C11_12  and  C12_13 
ROOT
HETATM    1  O1  UNL     1      25.831   2.394  52.336  1.00  0.00    -0.266 OA
HETATM    2  C1  UNL     1      25.849   1.355  53.043  1.00  0.00     0.278 A 
HETATM    3  C2  UNL     1      24.659   0.764  53.400  1.00  0.00     0.093 A 
HETATM    4  C3  UNL     1      23.408   1.251  53.024  1.00  0.00     0.002 A 
HETATM    5  C10 UNL     1      22.226   0.651  53.392  1.00  0.00    -0.027 A 
HETATM    6  C18 UNL     1      22.404  -0.492  54.177  1.00  0.00     0.127 A 
HETATM    7  N1  UNL     1      23.600  -0.977  54.548  1.00  0.00    -0.239 NA
HETATM    8  C19 UNL     1      24.752  -0.372  54.177  1.00  0.00     0.184 A 
HETATM    9  N2  UNL     1      25.935  -0.875  54.564  1.00  0.00    -0.043 NA
HETATM   10  C20 UNL     1      27.095  -0.277  54.200  1.00  0.00     0.723 A 
HETATM   11  N3  UNL     1      27.046   0.834  53.442  1.00  0.00    -0.130 N 
HETATM   12  C21 UNL     1      28.377   1.337  53.151  1.00  0.00     0.262 C 
HETATM   13  N4  UNL     1      29.199   0.611  54.092  1.00  0.00    -0.207 NA
HETATM   14  N5  UNL     1      28.488  -0.540  54.432  1.00  0.00    -0.150 N 
HETATM   15  H16 UNL     1      29.424   1.205  54.919  1.00  0.00     0.149 HD
HETATM   16  H17 UNL     1      28.866  -1.428  54.784  1.00  0.00     0.199 HD
ENDROOT
BRANCH   5  17
HETATM   17  C11 UNL     1      20.911   1.147  53.010  1.00  0.00     0.053 C 
BRANCH  17  18
HETATM   18  C12 UNL     1      20.217   0.427  51.898  1.00  0.00     0.036 C 
HETATM   19  C13 UNL     1      19.749   1.506  50.951  1.00  0.00    -0.006 C 
HETATM   20  C14 UNL     1      19.052   1.071  49.913  1.00  0.00    -0.029 C 
HETATM   21  C15 UNL     1      18.024   0.312  50.240  1.00  0.00     0.011 C 
HETATM   22  C16 UNL     1      17.912  -0.311  51.571  1.00  0.00    -0.002 C 
HETATM   23  C17 UNL     1      18.969  -0.262  52.383  1.00  0.00    -0.018 C 
ENDBRANCH  17  18
ENDBRANCH   5  17
BRANCH   4  24
HETATM   24  C4  UNL     1      23.433   2.463  52.216  1.00  0.00    -0.024 A 
HETATM   25  C5  UNL     1      23.426   2.133  50.858  1.00  0.00     0.012 A 
HETATM   26  C6  UNL     1      23.439   3.117  49.874  1.00  0.00     0.001 A 
HETATM   27  C7  UNL     1      23.460   4.455  50.261  1.00  0.00     0.000 A 
HETATM   28  C8  UNL     1      23.468   4.776  51.602  1.00  0.00     0.001 A 
HETATM   29  C9  UNL     1      23.455   3.801  52.574  1.00  0.00     0.012 A 
ENDBRANCH   4  24
TORSDOF 3
ENDMDL
MODEL 2
REMARK VINA RESULT:      -9.6      2.293      5.693
REMARK  3 active torsions:
REMARK  status: ('A' for Active; 'I' for Inactive)
REMARK    1  A    between atoms: C3_4  and  C4_5 
REMARK    2  A    between atoms: C10_11  and  C11_12 
REMARK    3  A    between atoms: C11_12  and  C12_13 
ROOT
HETATM    1  O1  UNL     1      22.243   0.723  52.786  1.00  0.00    -0.266 OA
HETATM    2  C1  UNL     1      23.388   0.426  53.212  1.00  0.00     0.278 A 
HETATM    3  C2  UNL     1      24.495   0.944  52.580  1.00  0.00     0.093 A 
HETATM    4  C3  UNL     1      24.432   1.791  51.475  1.00  0.00     0.002 A 
HETATM    5  C10 UNL     1      25.549   2.298  50.851  1.00  0.00    -0.027 A 
HETATM    6  C18 UNL     1      26.748   1.881  51.435  1.00  0.00     0.127 A 
HETATM    7  N1  UNL     1      26.830   1.066  52.500  1.00  0.00    -0.239 NA
HETATM    8  C19 UNL     1      25.720   0.578  53.099  1.00  0.00     0.184 A 
HETATM    9  N2  UNL     1      25.828  -0.238  54.161  1.00  0.00    -0.043 NA
HETATM   10  C20 UNL     1      24.724  -0.736  54.768  1.00  0.00     0.723 A 
HETATM   11  N3  UNL     1      23.511  -0.401  54.291  1.00  0.00    -0.130 N 
HETATM   12  C21 UNL     1      22.447  -1.024  55.060  1.00  0.00     0.262 C 
HETATM   13  N4  UNL     1      23.159  -2.025  55.821  1.00  0.00    -0.207 NA
HETATM   14  N5  UNL     1      24.486  -1.604  55.887  1.00  0.00    -0.150 N 
HETATM   15  H16 UNL     1      23.054  -2.965  55.382  1.00  0.00     0.149 HD
HETATM   16  H17 UNL     1      25.188  -1.853  56.594  1.00  0.00     0.199 HD
ENDROOT
BRANCH   5  17
HETATM   17  C11 UNL     1      25.501   3.183  49.695  1.00  0.00     0.053 C 
BRANCH  17  18
HETATM   18  C12 UNL     1      26.207   4.495  49.823  1.00  0.00     0.036 C 
HETATM   19  C13 UNL     1      25.222   5.531  49.337  1.00  0.00    -0.006 C 
HETATM   20  C14 UNL     1      25.683   6.771  49.316  1.00  0.00    -0.029 C 
HETATM   21  C15 UNL     1      26.813   6.910  48.651  1.00  0.00     0.011 C 
HETATM   22  C16 UNL     1      27.668   5.755  48.325  1.00  0.00    -0.002 C 
HETATM   23  C17 UNL     1      27.384   4.579  48.887  1.00  0.00    -0.018 C 
ENDBRANCH  17  18
ENDBRANCH   5  17
BRANCH   4  24
HETATM   24  C4  UNL     1      23.087   2.099  51.008  1.00  0.00    -0.024 A 
HETATM   25  C5  UNL     1      22.641   3.292  51.581  1.00  0.00     0.012 A 
HETATM   26  C6  UNL     1      21.384   3.811  51.290  1.00  0.00     0.001 A 
HETATM   27  C7  UNL     1      20.560   3.118  50.405  1.00  0.00     0.000 A 
HETATM   28  C8  UNL     1      21.003   1.941  49.841  1.00  0.00     0.001 A 
HETATM   29  C9  UNL     1      22.248   1.429  50.131  1.00  0.00     0.012 A 
ENDBRANCH   4  24
TORSDOF 3
ENDMDL
MODEL 3
REMARK VINA RESULT:      -9.3      2.289      6.637
REMARK  3 active torsions:
REMARK  status: ('A' for Active; 'I' for Inactive)
REMARK    1  A    between atoms: C3_4  and  C4_5 
REMARK    2  A    between atoms: C10_11  and  C11_12 
REMARK    3  A    between atoms: C11_12  and  C12_13 
ROOT
HETATM    1  O1  UNL     1      21.158   1.335  51.844  1.00  0.00    -0.266 OA
HETATM    2  C1  UNL     1      21.157   0.409  52.695  1.00  0.00     0.278 A 
HETATM    3  C2  UNL     1      22.335   0.069  53.319  1.00  0.00     0.093 A 
HETATM    4  C3  UNL     1      23.556   0.693  53.066  1.00  0.00     0.002 A 
HETATM    5  C10 UNL     1      24.726   0.339  53.696  1.00  0.00    -0.027 A 
HETATM    6  C18 UNL     1      24.569  -0.704  54.613  1.00  0.00     0.127 A 
HETATM    7  N1  UNL     1      23.403  -1.317  54.872  1.00  0.00    -0.239 NA
HETATM    8  C19 UNL     1      22.262  -0.955  54.241  1.00  0.00     0.184 A 
HETATM    9  N2  UNL     1      21.108  -1.585  54.515  1.00  0.00    -0.043 NA
HETATM   10  C20 UNL     1      19.960  -1.233  53.889  1.00  0.00     0.723 A 
HETATM   11  N3  UNL     1      19.990  -0.238  52.982  1.00  0.00    -0.130 N 
HETATM   12  C21 UNL     1      18.675   0.002  52.413  1.00  0.00     0.262 C 
HETATM   13  N4  UNL     1      17.939  -1.172  52.822  1.00  0.00    -0.207 NA
HETATM   14  N5  UNL     1      18.596  -1.682  53.941  1.00  0.00    -0.150 N 
HETATM   15  H16 UNL     1      17.879  -1.860  52.040  1.00  0.00     0.149 HD
HETATM   16  H17 UNL     1      18.203  -2.273  54.684  1.00  0.00     0.199 HD
ENDROOT
BRANCH   5  17
HETATM   17  C11 UNL     1      26.010   0.978  53.442  1.00  0.00     0.053 C 
BRANCH  17  18
HETATM   18  C12 UNL     1      27.219   0.309  54.012  1.00  0.00     0.036 C 
HETATM   19  C13 UNL     1      28.365   1.257  53.748  1.00  0.00    -0.006 C 
HETATM   20  C14 UNL     1      29.552   0.816  54.132  1.00  0.00    -0.029 C 
HETATM   21  C15 UNL     1      29.860  -0.373  53.652  1.00  0.00     0.011 C 
HETATM   22  C16 UNL     1      28.837  -1.274  53.095  1.00  0.00    -0.002 C 
HETATM   23  C17 UNL     1      27.552  -0.954  53.263  1.00  0.00    -0.018 C 
ENDBRANCH  17  18
ENDBRANCH   5  17
BRANCH   4  24
HETATM   24  C4  UNL     1      23.514   1.751  52.065  1.00  0.00    -0.024 A 
HETATM   25  C5  UNL     1      23.391   2.995  52.688  1.00  0.00     0.012 A 
HETATM   26  C6  UNL     1      23.336   4.173  51.949  1.00  0.00     0.001 A 
HETATM   27  C7  UNL     1      23.405   4.098  50.560  1.00  0.00     0.000 A 
HETATM   28  C8  UNL     1      23.526   2.868  49.949  1.00  0.00     0.001 A 
HETATM   29  C9  UNL     1      23.580   1.704  50.682  1.00  0.00     0.012 A 
ENDBRANCH   4  24
TORSDOF 3
ENDMDL
MODEL 4
REMARK VINA RESULT:      -8.9      3.060      6.143
REMARK  3 active torsions:
REMARK  status: ('A' for Active; 'I' for Inactive)
REMARK    1  A    between atoms: C3_4  and  C4_5 
REMARK    2  A    between atoms: C10_11  and  C11_12 
REMARK    3  A    between atoms: C11_12  and  C12_13 
ROOT
HETATM    1  O1  UNL     1      23.800   0.324  53.407  1.00  0.00    -0.266 OA
HETATM    2  C1  UNL     1      22.590   0.631  53.253  1.00  0.00     0.278 A 
HETATM    3  C2  UNL     1      22.270   1.877  52.763  1.00  0.00     0.093 A 
HETATM    4  C3  UNL     1      23.216   2.842  52.421  1.00  0.00     0.002 A 
HETATM    5  C10 UNL     1      22.881   4.085  51.935  1.00  0.00    -0.027 A 
HETATM    6  C18 UNL     1      21.502   4.281  51.819  1.00  0.00     0.127 A 
HETATM    7  N1  UNL     1      20.576   3.365  52.143  1.00  0.00    -0.239 NA
HETATM    8  C19 UNL     1      20.926   2.148  52.619  1.00  0.00     0.184 A 
HETATM    9  N2  UNL     1      19.980   1.249  52.938  1.00  0.00    -0.043 NA
HETATM   10  C20 UNL     1      20.318   0.028  53.418  1.00  0.00     0.723 A 
HETATM   11  N3  UNL     1      21.620  -0.275  53.573  1.00  0.00    -0.130 N 
HETATM   12  C21 UNL     1      21.795  -1.618  54.096  1.00  0.00     0.262 C 
HETATM   13  N4  UNL     1      20.465  -1.950  54.554  1.00  0.00    -0.207 NA
HETATM   14  N5  UNL     1      19.587  -1.133  53.844  1.00  0.00    -0.150 N 
HETATM   15  H16 UNL     1      20.389  -1.825  55.586  1.00  0.00     0.149 HD
HETATM   16  H17 UNL     1      18.593  -1.304  53.645  1.00  0.00     0.199 HD
ENDROOT
BRANCH   5  17
HETATM   17  C11 UNL     1      23.856   5.105  51.575  1.00  0.00     0.053 C 
BRANCH  17  18
HETATM   18  C12 UNL     1      24.177   5.244  50.121  1.00  0.00     0.036 C 
HETATM   19  C13 UNL     1      25.685   5.277  50.045  1.00  0.00    -0.006 C 
HETATM   20  C14 UNL     1      26.177   5.455  48.829  1.00  0.00    -0.029 C 
HETATM   21  C15 UNL     1      25.693   6.513  48.207  1.00  0.00     0.011 C 
HETATM   22  C16 UNL     1      24.455   7.176  48.652  1.00  0.00    -0.002 C 
HETATM   23  C17 UNL     1      23.711   6.570  49.580  1.00  0.00    -0.018 C 
ENDBRANCH  17  18
ENDBRANCH   5  17
BRANCH   4  24
HETATM   24  C4  UNL     1      24.604   2.448  52.626  1.00  0.00    -0.024 A 
HETATM   25  C5  UNL     1      25.131   1.916  51.447  1.00  0.00     0.012 A 
HETATM   26  C6  UNL     1      26.447   1.471  51.378  1.00  0.00     0.001 A 
HETATM   27  C7  UNL     1      27.247   1.561  52.515  1.00  0.00     0.000 A 
HETATM   28  C8  UNL     1      26.723   2.086  53.677  1.00  0.00     0.001 A 
HETATM   29  C9  UNL     1      25.421   2.527  53.743  1.00  0.00     0.012 A 
ENDBRANCH   4  24
TORSDOF 3
ENDMDL
MODEL 5
REMARK VINA RESULT:      -8.9      3.513      6.932
REMARK  3 active torsions:
REMARK  status: ('A' for Active; 'I' for Inactive)
REMARK    1  A    between atoms: C3_4  and  C4_5 
REMARK    2  A    between atoms: C10_11  and  C11_12 
REMARK    3  A    between atoms: C11_12  and  C12_13 
ROOT
HETATM    1  O1  UNL     1      18.978   0.992  51.379  1.00  0.00    -0.266 OA
HETATM    2  C1  UNL     1      18.863   0.024  52.174  1.00  0.00     0.278 A 
HETATM    3  C2  UNL     1      19.934  -0.330  52.962  1.00  0.00     0.093 A 
HETATM    4  C3  UNL     1      21.165   0.324  52.936  1.00  0.00     0.002 A 
HETATM    5  C10 UNL     1      22.228  -0.045  53.728  1.00  0.00    -0.027 A 
HETATM    6  C18 UNL     1      21.951  -1.135  54.557  1.00  0.00     0.127 A 
HETATM    7  N1  UNL     1      20.773  -1.777  54.597  1.00  0.00    -0.239 NA
HETATM    8  C19 UNL     1      19.739  -1.400  53.810  1.00  0.00     0.184 A 
HETATM    9  N2  UNL     1      18.571  -2.060  53.865  1.00  0.00    -0.043 NA
HETATM   10  C20 UNL     1      17.529  -1.694  53.081  1.00  0.00     0.723 A 
HETATM   11  N3  UNL     1      17.680  -0.654  52.240  1.00  0.00    -0.130 N 
HETATM   12  C21 UNL     1      16.468  -0.405  51.480  1.00  0.00     0.262 C 
HETATM   13  N4  UNL     1      15.702  -1.609  51.709  1.00  0.00    -0.207 NA
HETATM   14  N5  UNL     1      16.185  -2.165  52.893  1.00  0.00    -0.150 N 
HETATM   15  H16 UNL     1      15.783  -2.257  50.896  1.00  0.00     0.149 HD
HETATM   16  H17 UNL     1      15.692  -2.799  53.535  1.00  0.00     0.199 HD
ENDROOT
BRANCH   5  17
HETATM   17  C11 UNL     1      23.521   0.626  53.714  1.00  0.00     0.053 C 
BRANCH  17  18
HETATM   18  C12 UNL     1      24.579   0.029  52.842  1.00  0.00     0.036 C 
HETATM   19  C13 UNL     1      25.604  -0.546  53.791  1.00  0.00    -0.006 C 
HETATM   20  C14 UNL     1      26.666  -1.078  53.207  1.00  0.00    -0.029 C 
HETATM   21  C15 UNL     1      27.272  -0.268  52.361  1.00  0.00     0.011 C 
HETATM   22  C16 UNL     1      26.607   0.932  51.824  1.00  0.00    -0.002 C 
HETATM   23  C17 UNL     1      25.302   1.087  52.052  1.00  0.00    -0.018 C 
ENDBRANCH  17  18
ENDBRANCH   5  17
BRANCH   4  24
HETATM   24  C4  UNL     1      21.259   1.430  51.994  1.00  0.00    -0.024 A 
HETATM   25  C5  UNL     1      21.719   0.970  50.757  1.00  0.00     0.012 A 
HETATM   26  C6  UNL     1      21.889   1.834  49.681  1.00  0.00     0.001 A 
HETATM   27  C7  UNL     1      21.592   3.185  49.849  1.00  0.00     0.000 A 
HETATM   28  C8  UNL     1      21.139   3.635  51.071  1.00  0.00     0.001 A 
HETATM   29  C9  UNL     1      20.970   2.778  52.135  1.00  0.00     0.012 A 
ENDBRANCH   4  24
TORSDOF 3
ENDMDL
MODEL 6
REMARK VINA RESULT:      -8.9      1.869      4.577
REMARK  3 active torsions:
REMARK  status: ('A' for Active; 'I' for Inactive)
REMARK    1  A    between atoms: C3_4  and  C4_5 
REMARK    2  A    between atoms: C10_11  and  C11_12 
REMARK    3  A    between atoms: C11_12  and  C12_13 
ROOT
HETATM    1  O1  UNL     1      23.983   0.905  53.148  1.00  0.00    -0.266 OA
HETATM    2  C1  UNL     1      25.137   1.318  52.869  1.00  0.00     0.278 A 
HETATM    3  C2  UNL     1      25.317   2.108  51.756  1.00  0.00     0.093 A 
HETATM    4  C3  UNL     1      24.286   2.486  50.899  1.00  0.00     0.002 A 
HETATM    5  C10 UNL     1      24.482   3.274  49.788  1.00  0.00    -0.027 A 
HETATM    6  C18 UNL     1      25.815   3.655  49.606  1.00  0.00     0.127 A 
HETATM    7  N1  UNL     1      26.822   3.301  50.421  1.00  0.00    -0.239 NA
HETATM    8  C19 UNL     1      26.608   2.525  51.508  1.00  0.00     0.184 A 
HETATM    9  N2  UNL     1      27.633   2.183  52.306  1.00  0.00    -0.043 NA
HETATM   10  C20 UNL     1      27.433   1.405  53.397  1.00  0.00     0.723 A 
HETATM   11  N3  UNL     1      26.186   0.977  53.673  1.00  0.00    -0.130 N 
HETATM   12  C21 UNL     1      26.159   0.157  54.872  1.00  0.00     0.262 C 
HETATM   13  N4  UNL     1      27.559  -0.135  55.082  1.00  0.00    -0.207 NA
HETATM   14  N5  UNL     1      28.275   0.868  54.429  1.00  0.00    -0.150 N 
HETATM   15  H16 UNL     1      27.792  -1.090  54.734  1.00  0.00     0.149 HD
HETATM   16  H17 UNL     1      29.231   1.187  54.629  1.00  0.00     0.199 HD
ENDROOT
BRANCH   5  17
HETATM   17  C11 UNL     1      23.416   3.678  48.881  1.00  0.00     0.053 C 
BRANCH  17  18
HETATM   18  C12 UNL     1      22.833   5.038  49.092  1.00  0.00     0.036 C 
HETATM   19  C13 UNL     1      23.510   5.578  50.330  1.00  0.00    -0.006 C 
HETATM   20  C14 UNL     1      23.083   6.768  50.723  1.00  0.00    -0.029 C 
HETATM   21  C15 UNL     1      21.776   6.840  50.883  1.00  0.00     0.011 C 
HETATM   22  C16 UNL     1      20.866   5.840  50.298  1.00  0.00    -0.002 C 
HETATM   23  C17 UNL     1      21.367   4.961  49.428  1.00  0.00    -0.018 C 
ENDBRANCH  17  18
ENDBRANCH   5  17
BRANCH   4  24
HETATM   24  C4  UNL     1      22.968   1.976  51.253  1.00  0.00    -0.024 A 
HETATM   25  C5  UNL     1      22.323   2.868  52.113  1.00  0.00     0.012 A 
HETATM   26  C6  UNL     1      21.043   2.614  52.594  1.00  0.00     0.001 A 
HETATM   27  C7  UNL     1      20.399   1.442  52.203  1.00  0.00     0.000 A 
HETATM   28  C8  UNL     1      21.038   0.564  51.355  1.00  0.00     0.001 A 
HETATM   29  C9  UNL     1      22.306   0.818  50.880  1.00  0.00     0.012 A 
ENDBRANCH   4  24
TORSDOF 3
ENDMDL
MODEL 7
REMARK VINA RESULT:      -8.3      2.434      4.506
REMARK  3 active torsions:
REMARK  status: ('A' for Active; 'I' for Inactive)
REMARK    1  A    between atoms: C3_4  and  C4_5 
REMARK    2  A    between atoms: C10_11  and  C11_12 
REMARK    3  A    between atoms: C11_12  and  C12_13 
ROOT
HETATM    1  O1  UNL     1      23.658   0.515  52.518  1.00  0.00    -0.266 OA
HETATM    2  C1  UNL     1      24.773   1.034  52.251  1.00  0.00     0.278 A 
HETATM    3  C2  UNL     1      24.829   2.089  51.370  1.00  0.00     0.093 A 
HETATM    4  C3  UNL     1      23.712   2.632  50.738  1.00  0.00     0.002 A 
HETATM    5  C10 UNL     1      23.785   3.686  49.856  1.00  0.00    -0.027 A 
HETATM    6  C18 UNL     1      25.087   4.156  49.660  1.00  0.00     0.127 A 
HETATM    7  N1  UNL     1      26.175   3.647  50.259  1.00  0.00    -0.239 NA
HETATM    8  C19 UNL     1      26.082   2.610  51.123  1.00  0.00     0.184 A 
HETATM    9  N2  UNL     1      27.186   2.117  51.708  1.00  0.00    -0.043 NA
HETATM   10  C20 UNL     1      27.107   1.077  52.573  1.00  0.00     0.723 A 
HETATM   11  N3  UNL     1      25.902   0.541  52.840  1.00  0.00    -0.130 N 
HETATM   12  C21 UNL     1      26.006  -0.558  53.783  1.00  0.00     0.262 C 
HETATM   13  N4  UNL     1      27.424  -0.836  53.782  1.00  0.00    -0.207 NA
HETATM   14  N5  UNL     1      28.056   0.329  53.350  1.00  0.00    -0.150 N 
HETATM   15  H16 UNL     1      27.638  -1.660  53.179  1.00  0.00     0.149 HD
HETATM   16  H17 UNL     1      29.022   0.625  53.538  1.00  0.00     0.199 HD
ENDROOT
BRANCH   5  17
HETATM   17  C11 UNL     1      22.628   4.265  49.186  1.00  0.00     0.053 C 
BRANCH  17  18
HETATM   18  C12 UNL     1      22.260   3.684  47.859  1.00  0.00     0.036 C 
HETATM   19  C13 UNL     1      22.299   4.841  46.889  1.00  0.00    -0.006 C 
HETATM   20  C14 UNL     1      21.942   4.542  45.650  1.00  0.00    -0.029 C 
HETATM   21  C15 UNL     1      20.767   3.948  45.562  1.00  0.00     0.011 C 
HETATM   22  C16 UNL     1      20.123   3.325  46.731  1.00  0.00    -0.002 C 
HETATM   23  C17 UNL     1      20.837   3.192  47.851  1.00  0.00    -0.018 C 
ENDBRANCH  17  18
ENDBRANCH   5  17
BRANCH   4  24
HETATM   24  C4  UNL     1      22.444   1.994  51.066  1.00  0.00    -0.024 A 
HETATM   25  C5  UNL     1      21.817   2.680  52.109  1.00  0.00     0.012 A 
HETATM   26  C6  UNL     1      20.584   2.273  52.606  1.00  0.00     0.001 A 
HETATM   27  C7  UNL     1      19.969   1.156  52.045  1.00  0.00     0.000 A 
HETATM   28  C8  UNL     1      20.590   0.481  51.016  1.00  0.00     0.001 A 
HETATM   29  C9  UNL     1      21.812   0.886  50.525  1.00  0.00     0.012 A 
ENDBRANCH   4  24
TORSDOF 3
ENDMDL
MODEL 8
REMARK VINA RESULT:      -8.3      3.376      6.841
REMARK  3 active torsions:
REMARK  status: ('A' for Active; 'I' for Inactive)
REMARK    1  A    between atoms: C3_4  and  C4_5 
REMARK    2  A    between atoms: C10_11  and  C11_12 
REMARK    3  A    between atoms: C11_12  and  C12_13 
ROOT
HETATM    1  O1  UNL     1      22.448   4.089  49.343  1.00  0.00    -0.266 OA
HETATM    2  C1  UNL     1      21.783   3.135  49.822  1.00  0.00     0.278 A 
HETATM    3  C2  UNL     1      22.260   2.474  50.931  1.00  0.00     0.093 A 
HETATM    4  C3  UNL     1      23.455   2.795  51.571  1.00  0.00     0.002 A 
HETATM    5  C10 UNL     1      23.919   2.122  52.678  1.00  0.00    -0.027 A 
HETATM    6  C18 UNL     1      23.075   1.089  53.094  1.00  0.00     0.127 A 
HETATM    7  N1  UNL     1      21.920   0.764  52.491  1.00  0.00    -0.239 NA
HETATM    8  C19 UNL     1      21.480   1.438  51.403  1.00  0.00     0.184 A 
HETATM    9  N2  UNL     1      20.323   1.093  50.816  1.00  0.00    -0.043 NA
HETATM   10  C20 UNL     1      19.873   1.758  49.725  1.00  0.00     0.723 A 
HETATM   11  N3  UNL     1      20.605   2.775  49.234  1.00  0.00    -0.130 N 
HETATM   12  C21 UNL     1      19.974   3.370  48.068  1.00  0.00     0.262 C 
HETATM   13  N4  UNL     1      18.974   2.386  47.720  1.00  0.00    -0.207 NA
HETATM   14  N5  UNL     1      18.717   1.655  48.879  1.00  0.00    -0.150 N 
HETATM   15  H16 UNL     1      19.303   1.790  46.930  1.00  0.00     0.149 HD
HETATM   16  H17 UNL     1      17.866   1.129  49.112  1.00  0.00     0.199 HD
ENDROOT
BRANCH   5  17
HETATM   17  C11 UNL     1      25.166   2.444  53.359  1.00  0.00     0.053 C 
BRANCH  17  18
HETATM   18  C12 UNL     1      26.301   1.487  53.172  1.00  0.00     0.036 C 
HETATM   19  C13 UNL     1      26.485   0.816  54.512  1.00  0.00    -0.006 C 
HETATM   20  C14 UNL     1      27.494  -0.038  54.572  1.00  0.00    -0.029 C 
HETATM   21  C15 UNL     1      28.647   0.470  54.185  1.00  0.00     0.011 C 
HETATM   22  C16 UNL     1      28.723   1.710  53.393  1.00  0.00    -0.002 C 
HETATM   23  C17 UNL     1      27.591   2.213  52.897  1.00  0.00    -0.018 C 
ENDBRANCH  17  18
ENDBRANCH   5  17
BRANCH   4  24
HETATM   24  C4  UNL     1      24.198   3.898  50.977  1.00  0.00    -0.024 A 
HETATM   25  C5  UNL     1      25.159   3.406  50.089  1.00  0.00     0.012 A 
HETATM   26  C6  UNL     1      25.999   4.261  49.384  1.00  0.00     0.001 A 
HETATM   27  C7  UNL     1      25.872   5.635  49.574  1.00  0.00     0.000 A 
HETATM   28  C8  UNL     1      24.924   6.117  50.451  1.00  0.00     0.001 A 
HETATM   29  C9  UNL     1      24.093   5.269  51.148  1.00  0.00     0.012 A 
ENDBRANCH   4  24
TORSDOF 3
ENDMDL
MODEL 9
REMARK VINA RESULT:      -8.2      3.254      6.725
REMARK  3 active torsions:
REMARK  status: ('A' for Active; 'I' for Inactive)
REMARK    1  A    between atoms: C3_4  and  C4_5 
REMARK    2  A    between atoms: C10_11  and  C11_12 
REMARK    3  A    between atoms: C11_12  and  C12_13 
ROOT
HETATM    1  O1  UNL     1      21.305   3.174  49.982  1.00  0.00    -0.266 OA
HETATM    2  C1  UNL     1      20.664   2.180  50.410  1.00  0.00     0.278 A 
HETATM    3  C2  UNL     1      21.229   1.384  51.381  1.00  0.00     0.093 A 
HETATM    4  C3  UNL     1      22.489   1.608  51.931  1.00  0.00     0.002 A 
HETATM    5  C10 UNL     1      23.042   0.801  52.899  1.00  0.00    -0.027 A 
HETATM    6  C18 UNL     1      22.215  -0.261  53.273  1.00  0.00     0.127 A 
HETATM    7  N1  UNL     1      20.998  -0.493  52.756  1.00  0.00    -0.239 NA
HETATM    8  C19 UNL     1      20.472   0.312  51.805  1.00  0.00     0.184 A 
HETATM    9  N2  UNL     1      19.253   0.057  51.301  1.00  0.00    -0.043 NA
HETATM   10  C20 UNL     1      18.716   0.854  50.346  1.00  0.00     0.723 A 
HETATM   11  N3  UNL     1      19.424   1.911  49.906  1.00  0.00    -0.130 N 
HETATM   12  C21 UNL     1      18.698   2.650  48.887  1.00  0.00     0.262 C 
HETATM   13  N4  UNL     1      17.642   1.730  48.529  1.00  0.00    -0.207 NA
HETATM   14  N5  UNL     1      17.481   0.870  49.614  1.00  0.00    -0.150 N 
HETATM   15  H16 UNL     1      17.876   1.228  47.646  1.00  0.00     0.149 HD
HETATM   16  H17 UNL     1      16.643   0.333  49.869  1.00  0.00     0.199 HD
ENDROOT
BRANCH   5  17
HETATM   17  C11 UNL     1      24.358   1.020  53.483  1.00  0.00     0.053 C 
BRANCH  17  18
HETATM   18  C12 UNL     1      25.527   0.459  52.739  1.00  0.00     0.036 C 
HETATM   19  C13 UNL     1      25.780  -0.898  53.352  1.00  0.00    -0.006 C 
HETATM   20  C14 UNL     1      26.827  -1.543  52.863  1.00  0.00    -0.029 C 
HETATM   21  C15 UNL     1      27.945  -0.845  52.890  1.00  0.00     0.011 C 
HETATM   22  C16 UNL     1      27.942   0.618  53.061  1.00  0.00    -0.002 C 
HETATM   23  C17 UNL     1      26.775   1.261  52.990  1.00  0.00    -0.018 C 
ENDBRANCH  17  18
ENDBRANCH   5  17
BRANCH   4  24
HETATM   24  C4  UNL     1      23.201   2.762  51.398  1.00  0.00    -0.024 A 
HETATM   25  C5  UNL     1      22.956   3.886  52.191  1.00  0.00     0.012 A 
HETATM   26  C6  UNL     1      23.528   5.119  51.897  1.00  0.00     0.001 A 
HETATM   27  C7  UNL     1      24.361   5.226  50.786  1.00  0.00     0.000 A 
HETATM   28  C8  UNL     1      24.600   4.115  50.004  1.00  0.00     0.001 A 
HETATM   29  C9  UNL     1      24.033   2.895  50.298  1.00  0.00     0.012 A 
ENDBRANCH   4  24
TORSDOF 3
ENDMDL
