MODEL 1
REMARK VINA RESULT:      -7.3      0.000      0.000
REMARK  6 active torsions:
REMARK  status: ('A' for Active; 'I' for Inactive)
REMARK    1  A    between atoms: C6_6  and  N1_7 
REMARK    2  A    between atoms: N1_7  and  C7_8 
REMARK    3  A    between atoms: C7_8  and  C8_9 
REMARK    4  A    between atoms: C9_10  and  N2_11 
REMARK    5  A    between atoms: N2_11  and  C10_12 
REMARK    6  A    between atoms: C10_12  and  C11_13 
ROOT
HETATM    1  C8  UNL     1      23.470   1.782  52.056  1.00  0.00     0.013 C 
HETATM    2  C9  UNL     1      23.746   3.052  52.266  1.00  0.00     0.080 C 
ENDROOT
BRANCH   1   3
HETATM    3  C7  UNL     1      23.740   0.670  52.961  1.00  0.00     0.262 C 
BRANCH   3   4
HETATM    4  N1  UNL     1      24.227  -0.225  53.752  1.00  0.00    -0.281 NA
BRANCH   4   5
HETATM    5  C6  UNL     1      25.666  -0.308  53.805  1.00  0.00     0.117 A 
HETATM    6  C5  UNL     1      26.349  -1.221  53.023  1.00  0.00     0.063 A 
HETATM    7  C4  UNL     1      27.684  -1.000  53.347  1.00  0.00     0.002 A 
HETATM    8  C3  UNL     1      28.893  -1.451  53.039  1.00  0.00     0.015 A 
HETATM    9  C17 UNL     1      27.716   0.009  54.284  1.00  0.00     0.099 A 
HETATM   10  C2  UNL     1      29.803  -0.639  53.873  1.00  0.00     0.016 A 
HETATM   11  C1  UNL     1      28.988   0.156  54.534  1.00  0.00     0.012 A 
HETATM   12  O1  UNL     1      26.489   0.406  54.540  1.00  0.00    -0.298 OA
ENDBRANCH   4   5
ENDBRANCH   3   4
ENDBRANCH   1   3
BRANCH   2  13
HETATM   13  N2  UNL     1      23.326   3.790  51.152  1.00  0.00    -0.395 N 
HETATM   14  H7  UNL     1      22.750   4.533  51.599  1.00  0.00     0.159 HD
BRANCH  13  15
HETATM   15  C10 UNL     1      23.716   3.429  49.800  1.00  0.00     0.157 C 
BRANCH  15  16
HETATM   16  C11 UNL     1      24.869   4.268  49.384  1.00  0.00    -0.041 A 
HETATM   17  C12 UNL     1      24.694   5.584  49.001  1.00  0.00     0.009 A 
HETATM   18  C13 UNL     1      25.816   6.306  48.626  1.00  0.00     0.001 A 
HETATM   19  C14 UNL     1      27.092   5.735  48.631  1.00  0.00     0.000 A 
HETATM   20  C15 UNL     1      27.258   4.405  49.019  1.00  0.00     0.001 A 
HETATM   21  C16 UNL     1      26.128   3.703  49.389  1.00  0.00     0.009 A 
ENDBRANCH  15  16
ENDBRANCH  13  15
ENDBRANCH   2  13
TORSDOF 6
ENDMDL
MODEL 2
REMARK VINA RESULT:      -7.2      2.156      3.967
REMARK  6 active torsions:
REMARK  status: ('A' for Active; 'I' for Inactive)
REMARK    1  A    between atoms: C6_6  and  N1_7 
REMARK    2  A    between atoms: N1_7  and  C7_8 
REMARK    3  A    between atoms: C7_8  and  C8_9 
REMARK    4  A    between atoms: C9_10  and  N2_11 
REMARK    5  A    between atoms: N2_11  and  C10_12 
REMARK    6  A    between atoms: C10_12  and  C11_13 
ROOT
HETATM    1  C8  UNL     1      27.262   2.113  52.092  1.00  0.00     0.013 C 
HETATM    2  C9  UNL     1      26.268   2.696  51.455  1.00  0.00     0.080 C 
ENDROOT
BRANCH   1   3
HETATM    3  C7  UNL     1      27.161   1.011  53.042  1.00  0.00     0.262 C 
BRANCH   3   4
HETATM    4  N1  UNL     1      26.963  -0.093  53.680  1.00  0.00    -0.281 NA
BRANCH   4   5
HETATM    5  C6  UNL     1      25.588  -0.426  53.959  1.00  0.00     0.117 A 
HETATM    6  C5  UNL     1      24.591  -0.129  53.048  1.00  0.00     0.063 A 
HETATM    7  C4  UNL     1      23.433  -0.593  53.663  1.00  0.00     0.002 A 
HETATM    8  C3  UNL     1      22.127  -0.675  53.442  1.00  0.00     0.015 A 
HETATM    9  C17 UNL     1      23.801  -1.128  54.878  1.00  0.00     0.099 A 
HETATM   10  C2  UNL     1      21.598  -1.336  54.653  1.00  0.00     0.016 A 
HETATM   11  C1  UNL     1      22.671  -1.537  55.387  1.00  0.00     0.012 A 
HETATM   12  O1  UNL     1      25.101  -1.013  55.029  1.00  0.00    -0.298 OA
ENDBRANCH   4   5
ENDBRANCH   3   4
ENDBRANCH   1   3
BRANCH   2  13
HETATM   13  N2  UNL     1      26.793   3.706  50.639  1.00  0.00    -0.395 N 
HETATM   14  H7  UNL     1      27.648   3.976  51.168  1.00  0.00     0.159 HD
BRANCH  13  15
HETATM   15  C10 UNL     1      26.143   4.115  49.406  1.00  0.00     0.157 C 
BRANCH  15  16
HETATM   16  C11 UNL     1      26.919   5.220  48.788  1.00  0.00    -0.041 A 
HETATM   17  C12 UNL     1      28.262   5.074  48.495  1.00  0.00     0.009 A 
HETATM   18  C13 UNL     1      28.921   6.149  47.918  1.00  0.00     0.001 A 
HETATM   19  C14 UNL     1      28.261   7.349  47.635  1.00  0.00     0.000 A 
HETATM   20  C15 UNL     1      26.905   7.486  47.936  1.00  0.00     0.001 A 
HETATM   21  C16 UNL     1      26.267   6.404  48.510  1.00  0.00     0.009 A 
ENDBRANCH  15  16
ENDBRANCH  13  15
ENDBRANCH   2  13
TORSDOF 6
ENDMDL
MODEL 3
REMARK VINA RESULT:      -7.2      2.195      7.174
REMARK  6 active torsions:
REMARK  status: ('A' for Active; 'I' for Inactive)
REMARK    1  A    between atoms: C6_6  and  N1_7 
REMARK    2  A    between atoms: N1_7  and  C7_8 
REMARK    3  A    between atoms: C7_8  and  C8_9 
REMARK    4  A    between atoms: C9_10  and  N2_11 
REMARK    5  A    between atoms: N2_11  and  C10_12 
REMARK    6  A    between atoms: C10_12  and  C11_13 
ROOT
HETATM    1  C8  UNL     1      24.901   2.573  52.007  1.00  0.00     0.013 C 
HETATM    2  C9  UNL     1      24.573   1.297  52.001  1.00  0.00     0.080 C 
ENDROOT
BRANCH   1   3
HETATM    3  C7  UNL     1      24.910   3.476  50.861  1.00  0.00     0.262 C 
BRANCH   3   4
HETATM    4  N1  UNL     1      24.688   4.161  49.792  1.00  0.00    -0.281 NA
BRANCH   4   5
HETATM    5  C6  UNL     1      25.821   4.864  49.242  1.00  0.00     0.117 A 
HETATM    6  C5  UNL     1      27.050   4.241  49.128  1.00  0.00     0.063 A 
HETATM    7  C4  UNL     1      27.865   5.219  48.568  1.00  0.00     0.002 A 
HETATM    8  C3  UNL     1      29.119   5.392  48.170  1.00  0.00     0.015 A 
HETATM    9  C17 UNL     1      27.090   6.342  48.386  1.00  0.00     0.099 A 
HETATM   10  C2  UNL     1      29.151   6.784  47.677  1.00  0.00     0.016 A 
HETATM   11  C1  UNL     1      27.918   7.205  47.862  1.00  0.00     0.012 A 
HETATM   12  O1  UNL     1      25.867   6.101  48.800  1.00  0.00    -0.298 OA
ENDBRANCH   4   5
ENDBRANCH   3   4
ENDBRANCH   1   3
BRANCH   2  13
HETATM   13  N2  UNL     1      24.697   0.799  53.304  1.00  0.00    -0.395 N 
HETATM   14  H7  UNL     1      24.405   1.622  53.870  1.00  0.00     0.159 HD
BRANCH  13  15
HETATM   15  C10 UNL     1      25.140  -0.559  53.569  1.00  0.00     0.157 C 
BRANCH  15  16
HETATM   16  C11 UNL     1      26.619  -0.571  53.712  1.00  0.00    -0.041 A 
HETATM   17  C12 UNL     1      27.404  -1.408  52.943  1.00  0.00     0.009 A 
HETATM   18  C13 UNL     1      28.777  -1.364  53.131  1.00  0.00     0.001 A 
HETATM   19  C14 UNL     1      29.363  -0.505  54.065  1.00  0.00     0.000 A 
HETATM   20  C15 UNL     1      28.561   0.336  54.838  1.00  0.00     0.001 A 
HETATM   21  C16 UNL     1      27.196   0.277  54.635  1.00  0.00     0.009 A 
ENDBRANCH  15  16
ENDBRANCH  13  15
ENDBRANCH   2  13
TORSDOF 6
ENDMDL
MODEL 4
REMARK VINA RESULT:      -7.0      1.529      2.196
REMARK  6 active torsions:
REMARK  status: ('A' for Active; 'I' for Inactive)
REMARK    1  A    between atoms: C6_6  and  N1_7 
REMARK    2  A    between atoms: N1_7  and  C7_8 
REMARK    3  A    between atoms: C7_8  and  C8_9 
REMARK    4  A    between atoms: C9_10  and  N2_11 
REMARK    5  A    between atoms: N2_11  and  C10_12 
REMARK    6  A    between atoms: C10_12  and  C11_13 
ROOT
HETATM    1  C8  UNL     1      25.032   2.893  51.549  1.00  0.00     0.013 C 
HETATM    2  C9  UNL     1      25.948   3.288  50.688  1.00  0.00     0.080 C 
ENDROOT
BRANCH   1   3
HETATM    3  C7  UNL     1      24.863   1.547  52.084  1.00  0.00     0.262 C 
BRANCH   3   4
HETATM    4  N1  UNL     1      24.923   0.418  52.705  1.00  0.00    -0.281 NA
BRANCH   4   5
HETATM    5  C6  UNL     1      26.247  -0.100  52.950  1.00  0.00     0.117 A 
HETATM    6  C5  UNL     1      27.234   0.708  53.483  1.00  0.00     0.063 A 
HETATM    7  C4  UNL     1      28.338  -0.133  53.568  1.00  0.00     0.002 A 
HETATM    8  C3  UNL     1      29.607  -0.109  53.956  1.00  0.00     0.015 A 
HETATM    9  C17 UNL     1      27.952  -1.366  53.091  1.00  0.00     0.099 A 
HETATM   10  C2  UNL     1      30.088  -1.482  53.698  1.00  0.00     0.016 A 
HETATM   11  C1  UNL     1      29.032  -2.090  53.203  1.00  0.00     0.012 A 
HETATM   12  O1  UNL     1      26.691  -1.317  52.726  1.00  0.00    -0.298 OA
ENDBRANCH   4   5
ENDBRANCH   3   4
ENDBRANCH   1   3
BRANCH   2  13
HETATM   13  N2  UNL     1      25.762   4.653  50.436  1.00  0.00    -0.395 N 
HETATM   14  H7  UNL     1      25.846   5.055  51.392  1.00  0.00     0.159 HD
BRANCH  13  15
HETATM   15  C10 UNL     1      25.526   5.162  49.096  1.00  0.00     0.157 C 
BRANCH  15  16
HETATM   16  C11 UNL     1      26.782   5.755  48.570  1.00  0.00    -0.041 A 
HETATM   17  C12 UNL     1      26.809   7.042  48.066  1.00  0.00     0.009 A 
HETATM   18  C13 UNL     1      28.018   7.528  47.594  1.00  0.00     0.001 A 
HETATM   19  C14 UNL     1      29.181   6.754  47.619  1.00  0.00     0.000 A 
HETATM   20  C15 UNL     1      29.143   5.455  48.129  1.00  0.00     0.001 A 
HETATM   21  C16 UNL     1      27.930   4.990  48.595  1.00  0.00     0.009 A 
ENDBRANCH  15  16
ENDBRANCH  13  15
ENDBRANCH   2  13
TORSDOF 6
ENDMDL
MODEL 5
REMARK VINA RESULT:      -6.9      2.001      7.140
REMARK  6 active torsions:
REMARK  status: ('A' for Active; 'I' for Inactive)
REMARK    1  A    between atoms: C6_6  and  N1_7 
REMARK    2  A    between atoms: N1_7  and  C7_8 
REMARK    3  A    between atoms: C7_8  and  C8_9 
REMARK    4  A    between atoms: C9_10  and  N2_11 
REMARK    5  A    between atoms: N2_11  and  C10_12 
REMARK    6  A    between atoms: C10_12  and  C11_13 
ROOT
HETATM    1  C8  UNL     1      25.066   2.245  51.341  1.00  0.00     0.013 C 
HETATM    2  C9  UNL     1      24.268   1.570  52.143  1.00  0.00     0.080 C 
ENDROOT
BRANCH   1   3
HETATM    3  C7  UNL     1      24.676   3.289  50.399  1.00  0.00     0.262 C 
BRANCH   3   4
HETATM    4  N1  UNL     1      24.583   4.288  49.590  1.00  0.00    -0.281 NA
BRANCH   4   5
HETATM    5  C6  UNL     1      25.830   4.851  49.132  1.00  0.00     0.117 A 
HETATM    6  C5  UNL     1      25.904   6.174  48.737  1.00  0.00     0.063 A 
HETATM    7  C4  UNL     1      27.237   6.335  48.372  1.00  0.00     0.002 A 
HETATM    8  C3  UNL     1      28.059   7.268  47.911  1.00  0.00     0.015 A 
HETATM    9  C17 UNL     1      27.864   5.124  48.568  1.00  0.00     0.099 A 
HETATM   10  C2  UNL     1      29.360   6.577  47.796  1.00  0.00     0.016 A 
HETATM   11  C1  UNL     1      29.097   5.356  48.208  1.00  0.00     0.012 A 
HETATM   12  O1  UNL     1      26.994   4.251  49.024  1.00  0.00    -0.298 OA
ENDBRANCH   4   5
ENDBRANCH   3   4
ENDBRANCH   1   3
BRANCH   2  13
HETATM   13  N2  UNL     1      25.040   0.664  52.880  1.00  0.00    -0.395 N 
HETATM   14  H7  UNL     1      24.674  -0.248  52.538  1.00  0.00     0.159 HD
BRANCH  13  15
HETATM   15  C10 UNL     1      26.046   1.105  53.830  1.00  0.00     0.157 C 
BRANCH  15  16
HETATM   16  C11 UNL     1      27.272   0.283  53.662  1.00  0.00    -0.041 A 
HETATM   17  C12 UNL     1      28.515   0.774  54.011  1.00  0.00     0.009 A 
HETATM   18  C13 UNL     1      29.614  -0.051  53.827  1.00  0.00     0.001 A 
HETATM   19  C14 UNL     1      29.484  -1.342  53.305  1.00  0.00     0.000 A 
HETATM   20  C15 UNL     1      28.223  -1.828  52.955  1.00  0.00     0.001 A 
HETATM   21  C16 UNL     1      27.142  -0.991  53.147  1.00  0.00     0.009 A 
ENDBRANCH  15  16
ENDBRANCH  13  15
ENDBRANCH   2  13
TORSDOF 6
ENDMDL
MODEL 6
REMARK VINA RESULT:      -6.8      2.631      5.400
REMARK  6 active torsions:
REMARK  status: ('A' for Active; 'I' for Inactive)
REMARK    1  A    between atoms: C6_6  and  N1_7 
REMARK    2  A    between atoms: N1_7  and  C7_8 
REMARK    3  A    between atoms: C7_8  and  C8_9 
REMARK    4  A    between atoms: C9_10  and  N2_11 
REMARK    5  A    between atoms: N2_11  and  C10_12 
REMARK    6  A    between atoms: C10_12  and  C11_13 
ROOT
HETATM    1  C8  UNL     1      23.409   2.389  51.178  1.00  0.00     0.013 C 
HETATM    2  C9  UNL     1      22.546   1.953  50.284  1.00  0.00     0.080 C 
ENDROOT
BRANCH   1   3
HETATM    3  C7  UNL     1      24.837   2.608  50.976  1.00  0.00     0.262 C 
BRANCH   3   4
HETATM    4  N1  UNL     1      26.086   2.923  51.032  1.00  0.00    -0.281 NA
BRANCH   4   5
HETATM    5  C6  UNL     1      26.922   2.059  51.830  1.00  0.00     0.117 A 
HETATM    6  C5  UNL     1      26.663   0.703  51.910  1.00  0.00     0.063 A 
HETATM    7  C4  UNL     1      27.661   0.225  52.752  1.00  0.00     0.002 A 
HETATM    8  C3  UNL     1      28.078  -0.913  53.292  1.00  0.00     0.015 A 
HETATM    9  C17 UNL     1      28.440   1.302  53.116  1.00  0.00     0.099 A 
HETATM   10  C2  UNL     1      29.256  -0.521  54.093  1.00  0.00     0.016 A 
HETATM   11  C1  UNL     1      29.344   0.777  53.897  1.00  0.00     0.012 A 
HETATM   12  O1  UNL     1      27.972   2.391  52.548  1.00  0.00    -0.298 OA
ENDBRANCH   4   5
ENDBRANCH   3   4
ENDBRANCH   1   3
BRANCH   2  13
HETATM   13  N2  UNL     1      21.281   1.884  50.883  1.00  0.00    -0.395 N 
HETATM   14  H7  UNL     1      20.678   1.648  50.068  1.00  0.00     0.159 HD
BRANCH  13  15
HETATM   15  C10 UNL     1      21.090   2.117  52.303  1.00  0.00     0.157 C 
BRANCH  15  16
HETATM   16  C11 UNL     1      20.910   0.814  52.993  1.00  0.00    -0.041 A 
HETATM   17  C12 UNL     1      19.747   0.083  52.848  1.00  0.00     0.009 A 
HETATM   18  C13 UNL     1      19.651  -1.125  53.521  1.00  0.00     0.001 A 
HETATM   19  C14 UNL     1      20.691  -1.602  54.325  1.00  0.00     0.000 A 
HETATM   20  C15 UNL     1      21.862  -0.856  54.465  1.00  0.00     0.001 A 
HETATM   21  C16 UNL     1      21.938   0.344  53.786  1.00  0.00     0.009 A 
ENDBRANCH  15  16
ENDBRANCH  13  15
ENDBRANCH   2  13
TORSDOF 6
ENDMDL
MODEL 7
REMARK VINA RESULT:      -6.6      3.618      6.095
REMARK  6 active torsions:
REMARK  status: ('A' for Active; 'I' for Inactive)
REMARK    1  A    between atoms: C6_6  and  N1_7 
REMARK    2  A    between atoms: N1_7  and  C7_8 
REMARK    3  A    between atoms: C7_8  and  C8_9 
REMARK    4  A    between atoms: C9_10  and  N2_11 
REMARK    5  A    between atoms: N2_11  and  C10_12 
REMARK    6  A    between atoms: C10_12  and  C11_13 
ROOT
HETATM    1  C8  UNL     1      23.327   1.723  53.039  1.00  0.00     0.013 C 
HETATM    2  C9  UNL     1      22.648   0.759  52.452  1.00  0.00     0.080 C 
ENDROOT
BRANCH   1   3
HETATM    3  C7  UNL     1      24.736   2.044  52.837  1.00  0.00     0.262 C 
BRANCH   3   4
HETATM    4  N1  UNL     1      26.017   2.185  52.878  1.00  0.00    -0.281 NA
BRANCH   4   5
HETATM    5  C6  UNL     1      26.786   0.967  52.951  1.00  0.00     0.117 A 
HETATM    6  C5  UNL     1      26.240  -0.238  52.550  1.00  0.00     0.063 A 
HETATM    7  C4  UNL     1      27.264  -1.154  52.768  1.00  0.00     0.002 A 
HETATM    8  C3  UNL     1      27.513  -2.451  52.639  1.00  0.00     0.015 A 
HETATM    9  C17 UNL     1      28.337  -0.455  53.274  1.00  0.00     0.099 A 
HETATM   10  C2  UNL     1      28.902  -2.600  53.118  1.00  0.00     0.016 A 
HETATM   11  C1  UNL     1      29.247  -1.374  53.449  1.00  0.00     0.012 A 
HETATM   12  O1  UNL     1      28.022   0.817  53.374  1.00  0.00    -0.298 OA
ENDBRANCH   4   5
ENDBRANCH   3   4
ENDBRANCH   1   3
BRANCH   2  13
HETATM   13  N2  UNL     1      21.330   0.793  52.924  1.00  0.00    -0.395 N 
HETATM   14  H7  UNL     1      21.107   1.807  52.846  1.00  0.00     0.159 HD
BRANCH  13  15
HETATM   15  C10 UNL     1      20.638  -0.408  53.360  1.00  0.00     0.157 C 
BRANCH  15  16
HETATM   16  C11 UNL     1      19.313  -0.478  52.694  1.00  0.00    -0.041 A 
HETATM   17  C12 UNL     1      19.086   0.150  51.484  1.00  0.00     0.009 A 
HETATM   18  C13 UNL     1      17.824   0.040  50.922  1.00  0.00     0.001 A 
HETATM   19  C14 UNL     1      16.802  -0.680  51.547  1.00  0.00     0.000 A 
HETATM   20  C15 UNL     1      17.040  -1.310  52.769  1.00  0.00     0.001 A 
HETATM   21  C16 UNL     1      18.305  -1.189  53.312  1.00  0.00     0.009 A 
ENDBRANCH  15  16
ENDBRANCH  13  15
ENDBRANCH   2  13
TORSDOF 6
ENDMDL
MODEL 8
REMARK VINA RESULT:      -6.4      2.010      2.836
REMARK  6 active torsions:
REMARK  status: ('A' for Active; 'I' for Inactive)
REMARK    1  A    between atoms: C6_6  and  N1_7 
REMARK    2  A    between atoms: N1_7  and  C7_8 
REMARK    3  A    between atoms: C7_8  and  C8_9 
REMARK    4  A    between atoms: C9_10  and  N2_11 
REMARK    5  A    between atoms: N2_11  and  C10_12 
REMARK    6  A    between atoms: C10_12  and  C11_13 
ROOT
HETATM    1  C8  UNL     1      24.926   3.651  51.110  1.00  0.00     0.013 C 
HETATM    2  C9  UNL     1      25.771   4.078  50.194  1.00  0.00     0.080 C 
ENDROOT
BRANCH   1   3
HETATM    3  C7  UNL     1      24.836   2.299  51.651  1.00  0.00     0.262 C 
BRANCH   3   4
HETATM    4  N1  UNL     1      24.942   1.049  51.949  1.00  0.00    -0.281 NA
BRANCH   4   5
HETATM    5  C6  UNL     1      26.234   0.618  52.423  1.00  0.00     0.117 A 
HETATM    6  C5  UNL     1      26.562  -0.725  52.457  1.00  0.00     0.063 A 
HETATM    7  C4  UNL     1      27.858  -0.736  52.962  1.00  0.00     0.002 A 
HETATM    8  C3  UNL     1      28.819  -1.594  53.276  1.00  0.00     0.015 A 
HETATM    9  C17 UNL     1      28.217   0.573  53.195  1.00  0.00     0.099 A 
HETATM   10  C2  UNL     1      29.920  -0.738  53.767  1.00  0.00     0.016 A 
HETATM   11  C1  UNL     1      29.432   0.479  53.662  1.00  0.00     0.012 A 
HETATM   12  O1  UNL     1      27.223   1.365  52.863  1.00  0.00    -0.298 OA
ENDBRANCH   4   5
ENDBRANCH   3   4
ENDBRANCH   1   3
BRANCH   2  13
HETATM   13  N2  UNL     1      25.523   5.436  49.959  1.00  0.00    -0.395 N 
HETATM   14  H7  UNL     1      25.072   5.723  50.852  1.00  0.00     0.159 HD
BRANCH  13  15
HETATM   15  C10 UNL     1      25.888   6.079  48.709  1.00  0.00     0.157 C 
BRANCH  15  16
HETATM   16  C11 UNL     1      26.857   7.170  48.984  1.00  0.00    -0.041 A 
HETATM   17  C12 UNL     1      28.090   7.205  48.362  1.00  0.00     0.009 A 
HETATM   18  C13 UNL     1      28.942   8.255  48.668  1.00  0.00     0.001 A 
HETATM   19  C14 UNL     1      28.580   9.254  49.576  1.00  0.00     0.000 A 
HETATM   20  C15 UNL     1      27.332   9.209  50.201  1.00  0.00     0.001 A 
HETATM   21  C16 UNL     1      26.498   8.156  49.881  1.00  0.00     0.009 A 
ENDBRANCH  15  16
ENDBRANCH  13  15
ENDBRANCH   2  13
TORSDOF 6
ENDMDL
MODEL 9
REMARK VINA RESULT:      -6.3      4.636      7.590
REMARK  6 active torsions:
REMARK  status: ('A' for Active; 'I' for Inactive)
REMARK    1  A    between atoms: C6_6  and  N1_7 
REMARK    2  A    between atoms: N1_7  and  C7_8 
REMARK    3  A    between atoms: C7_8  and  C8_9 
REMARK    4  A    between atoms: C9_10  and  N2_11 
REMARK    5  A    between atoms: N2_11  and  C10_12 
REMARK    6  A    between atoms: C10_12  and  C11_13 
ROOT
HETATM    1  C8  UNL     1      27.688   4.775  48.817  1.00  0.00     0.013 C 
HETATM    2  C9  UNL     1      26.450   5.136  49.083  1.00  0.00     0.080 C 
ENDROOT
BRANCH   1   3
HETATM    3  C7  UNL     1      28.707   5.581  48.153  1.00  0.00     0.262 C 
BRANCH   3   4
HETATM    4  N1  UNL     1      29.766   6.202  47.756  1.00  0.00    -0.281 NA
BRANCH   4   5
HETATM    5  C6  UNL     1      30.987   5.434  47.755  1.00  0.00     0.117 A 
HETATM    6  C5  UNL     1      32.200   6.036  48.034  1.00  0.00     0.063 A 
HETATM    7  C4  UNL     1      33.116   4.995  47.938  1.00  0.00     0.002 A 
HETATM    8  C3  UNL     1      34.418   4.771  48.059  1.00  0.00     0.015 A 
HETATM    9  C17 UNL     1      32.410   3.857  47.615  1.00  0.00     0.099 A 
HETATM   10  C2  UNL     1      34.563   3.327  47.782  1.00  0.00     0.016 A 
HETATM   11  C1  UNL     1      33.330   2.934  47.544  1.00  0.00     0.012 A 
HETATM   12  O1  UNL     1      31.133   4.151  47.511  1.00  0.00    -0.298 OA
ENDBRANCH   4   5
ENDBRANCH   3   4
ENDBRANCH   1   3
BRANCH   2  13
HETATM   13  N2  UNL     1      25.805   4.072  49.726  1.00  0.00    -0.395 N 
HETATM   14  H7  UNL     1      24.812   4.384  49.701  1.00  0.00     0.159 HD
BRANCH  13  15
HETATM   15  C10 UNL     1      26.534   2.919  50.224  1.00  0.00     0.157 C 
BRANCH  15  16
HETATM   16  C11 UNL     1      25.653   2.137  51.129  1.00  0.00    -0.041 A 
HETATM   17  C12 UNL     1      26.160   1.124  51.921  1.00  0.00     0.009 A 
HETATM   18  C13 UNL     1      25.278   0.438  52.741  1.00  0.00     0.001 A 
HETATM   19  C14 UNL     1      23.916   0.750  52.777  1.00  0.00     0.000 A 
HETATM   20  C15 UNL     1      23.413   1.774  51.973  1.00  0.00     0.001 A 
HETATM   21  C16 UNL     1      24.309   2.445  51.164  1.00  0.00     0.009 A 
ENDBRANCH  15  16
ENDBRANCH  13  15
ENDBRANCH   2  13
TORSDOF 6
ENDMDL
