MODEL 1
REMARK VINA RESULT:      -8.1      0.000      0.000
REMARK  2 active torsions:
REMARK  status: ('A' for Active; 'I' for Inactive)
REMARK    1  A    between atoms: N1_2  and  C2_3 
REMARK    2  A    between atoms: C2_3  and  C3_4 
ROOT
HETATM    1  C3  UNL     1      26.782   0.814  52.740  1.00  0.00    -0.026 C 
HETATM    2  C4  UNL     1      26.660   1.295  51.488  1.00  0.00     0.039 C 
HETATM    3  C5  UNL     1      26.079   2.552  50.990  1.00  0.00     0.069 A 
HETATM    4  N2  UNL     1      26.967   2.876  49.995  1.00  0.00    -0.241 NA
HETATM    5  C6  UNL     1      26.793   4.005  49.290  1.00  0.00     0.235 A 
HETATM    6  N3  UNL     1      25.745   4.794  49.577  1.00  0.00    -0.229 NA
HETATM    7  C7  UNL     1      24.860   4.472  50.567  1.00  0.00     0.117 A 
HETATM    8  C8  UNL     1      24.959   3.326  51.350  1.00  0.00     0.025 A 
HETATM    9  C9  UNL     1      23.919   3.148  52.392  1.00  0.00     0.045 C 
HETATM   10  C10 UNL     1      23.752   4.413  53.204  1.00  0.00     0.026 C 
HETATM   11  C11 UNL     1      24.476   2.111  53.422  1.00  0.00     0.185 C 
HETATM   12  O1  UNL     1      25.684   2.505  53.936  1.00  0.00    -0.386 OA
HETATM   13  C12 UNL     1      26.409   1.311  54.105  1.00  0.00     0.203 C 
HETATM   14  C13 UNL     1      22.648   2.530  51.970  1.00  0.00     0.213 C 
HETATM   15  F1  UNL     1      22.926   1.780  50.807  1.00  0.00    -0.243 F 
HETATM   16  C14 UNL     1      21.459   3.323  51.778  1.00  0.00    -0.049 C 
HETATM   17  C15 UNL     1      20.220   2.463  51.918  1.00  0.00     0.046 C 
HETATM   18  C16 UNL     1      21.003   4.499  51.405  1.00  0.00     0.006 C 
HETATM   19  C17 UNL     1      21.333   5.820  50.916  1.00  0.00     0.012 C 
HETATM   20  C18 UNL     1      22.595   6.131  50.659  1.00  0.00     0.064 C 
HETATM   21  N4  UNL     1      23.817   5.423  50.747  1.00  0.00    -0.253 NA
HETATM   22  H23 UNL     1      23.283   4.796  50.047  1.00  0.00     0.134 HD
ENDROOT
BRANCH   1  23
HETATM   23  C2  UNL     1      27.438  -0.501  52.761  1.00  0.00     0.305 C 
BRANCH  23  24
HETATM   24  N1  UNL     1      28.159  -0.704  54.027  1.00  0.00     0.083 N 
HETATM   25  C1  UNL     1      29.573  -0.779  53.738  1.00  0.00     0.307 C 
HETATM   26  H4  UNL     1      27.987   0.127  54.612  1.00  0.00     0.315 HD
ENDBRANCH  23  24
ENDBRANCH   1  23
TORSDOF 2
ENDMDL
MODEL 2
REMARK VINA RESULT:      -7.9      2.748      4.166
REMARK  2 active torsions:
REMARK  status: ('A' for Active; 'I' for Inactive)
REMARK    1  A    between atoms: N1_2  and  C2_3 
REMARK    2  A    between atoms: C2_3  and  C3_4 
ROOT
HETATM    1  C3  UNL     1      27.098  -0.193  53.428  1.00  0.00    -0.026 C 
HETATM    2  C4  UNL     1      26.092  -0.204  54.323  1.00  0.00     0.039 C 
HETATM    3  C5  UNL     1      24.639  -0.057  54.144  1.00  0.00     0.069 A 
HETATM    4  N2  UNL     1      24.168  -0.978  55.047  1.00  0.00    -0.241 NA
HETATM    5  C6  UNL     1      22.845  -1.166  55.176  1.00  0.00     0.235 A 
HETATM    6  N3  UNL     1      22.010  -0.445  54.412  1.00  0.00    -0.229 NA
HETATM    7  C7  UNL     1      22.477   0.472  53.511  1.00  0.00     0.117 A 
HETATM    8  C8  UNL     1      23.829   0.735  53.309  1.00  0.00     0.025 A 
HETATM    9  C9  UNL     1      24.154   1.749  52.276  1.00  0.00     0.045 C 
HETATM   10  C10 UNL     1      23.402   1.470  50.995  1.00  0.00     0.026 C 
HETATM   11  C11 UNL     1      25.653   1.539  51.886  1.00  0.00     0.185 C 
HETATM   12  O1  UNL     1      25.894   0.255  51.467  1.00  0.00    -0.386 OA
HETATM   13  C12 UNL     1      27.186  -0.040  51.939  1.00  0.00     0.203 C 
HETATM   14  C13 UNL     1      24.127   3.163  52.696  1.00  0.00     0.213 C 
HETATM   15  F1  UNL     1      24.317   3.177  54.095  1.00  0.00    -0.243 F 
HETATM   16  C14 UNL     1      23.032   4.030  52.334  1.00  0.00    -0.049 C 
HETATM   17  C15 UNL     1      23.473   5.479  52.358  1.00  0.00     0.046 C 
HETATM   18  C16 UNL     1      21.739   4.082  52.098  1.00  0.00     0.006 C 
HETATM   19  C17 UNL     1      20.494   3.347  52.038  1.00  0.00     0.012 C 
HETATM   20  C18 UNL     1      20.473   2.061  52.351  1.00  0.00     0.064 C 
HETATM   21  N4  UNL     1      21.458   1.138  52.777  1.00  0.00    -0.253 NA
HETATM   22  H23 UNL     1      21.522   1.867  53.573  1.00  0.00     0.134 HD
ENDROOT
BRANCH   1  23
HETATM   23  C2  UNL     1      28.407  -0.380  54.071  1.00  0.00     0.305 C 
BRANCH  23  24
HETATM   24  N1  UNL     1      28.670   0.695  55.040  1.00  0.00     0.083 N 
HETATM   25  C1  UNL     1      29.257   1.810  54.334  1.00  0.00     0.307 C 
HETATM   26  H4  UNL     1      27.760   0.991  55.422  1.00  0.00     0.315 HD
ENDBRANCH  23  24
ENDBRANCH   1  23
TORSDOF 2
ENDMDL
MODEL 3
REMARK VINA RESULT:      -7.9      2.781      5.251
REMARK  2 active torsions:
REMARK  status: ('A' for Active; 'I' for Inactive)
REMARK    1  A    between atoms: N1_2  and  C2_3 
REMARK    2  A    between atoms: C2_3  and  C3_4 
ROOT
HETATM    1  C3  UNL     1      24.576   5.096  49.615  1.00  0.00    -0.026 C 
HETATM    2  C4  UNL     1      24.264   3.949  48.982  1.00  0.00     0.039 C 
HETATM    3  C5  UNL     1      23.356   2.854  49.360  1.00  0.00     0.069 A 
HETATM    4  N2  UNL     1      22.792   2.550  48.146  1.00  0.00    -0.241 NA
HETATM    5  C6  UNL     1      21.864   1.583  48.067  1.00  0.00     0.235 A 
HETATM    6  N3  UNL     1      21.509   0.933  49.187  1.00  0.00    -0.229 NA
HETATM    7  C7  UNL     1      22.070   1.234  50.396  1.00  0.00     0.117 A 
HETATM    8  C8  UNL     1      23.037   2.219  50.575  1.00  0.00     0.025 A 
HETATM    9  C9  UNL     1      23.520   2.423  51.963  1.00  0.00     0.045 C 
HETATM   10  C10 UNL     1      22.357   2.547  52.922  1.00  0.00     0.026 C 
HETATM   11  C11 UNL     1      24.196   3.832  52.008  1.00  0.00     0.185 C 
HETATM   12  O1  UNL     1      23.342   4.820  51.590  1.00  0.00    -0.386 OA
HETATM   13  C12 UNL     1      24.161   5.737  50.907  1.00  0.00     0.203 C 
HETATM   14  C13 UNL     1      24.599   1.534  52.433  1.00  0.00     0.213 C 
HETATM   15  F1  UNL     1      25.268   1.062  51.284  1.00  0.00    -0.243 F 
HETATM   16  C14 UNL     1      24.327   0.441  53.334  1.00  0.00    -0.049 C 
HETATM   17  C15 UNL     1      25.578   0.062  54.100  1.00  0.00     0.046 C 
HETATM   18  C16 UNL     1      23.437  -0.462  53.688  1.00  0.00     0.006 C 
HETATM   19  C17 UNL     1      22.127  -1.023  53.442  1.00  0.00     0.012 C 
HETATM   20  C18 UNL     1      21.383  -0.551  52.453  1.00  0.00     0.064 C 
HETATM   21  N4  UNL     1      21.571   0.458  51.479  1.00  0.00    -0.253 NA
HETATM   22  H23 UNL     1      22.400  -0.194  51.242  1.00  0.00     0.134 HD
ENDROOT
BRANCH   1  23
HETATM   23  C2  UNL     1      25.542   5.899  48.853  1.00  0.00     0.305 C 
BRANCH  23  24
HETATM   24  N1  UNL     1      26.878   5.828  49.466  1.00  0.00     0.083 N 
HETATM   25  C1  UNL     1      27.739   5.067  48.591  1.00  0.00     0.307 C 
HETATM   26  H4  UNL     1      27.238   6.792  49.525  1.00  0.00     0.315 HD
ENDBRANCH  23  24
ENDBRANCH   1  23
TORSDOF 2
ENDMDL
MODEL 4
REMARK VINA RESULT:      -7.5      2.538      3.661
REMARK  2 active torsions:
REMARK  status: ('A' for Active; 'I' for Inactive)
REMARK    1  A    between atoms: N1_2  and  C2_3 
REMARK    2  A    between atoms: C2_3  and  C3_4 
ROOT
HETATM    1  C3  UNL     1      26.366   1.947  52.778  1.00  0.00    -0.026 C 
HETATM    2  C4  UNL     1      25.200   1.484  53.264  1.00  0.00     0.039 C 
HETATM    3  C5  UNL     1      23.907   1.241  52.602  1.00  0.00     0.069 A 
HETATM    4  N2  UNL     1      23.516   0.074  53.210  1.00  0.00    -0.241 NA
HETATM    5  C6  UNL     1      22.358  -0.505  52.856  1.00  0.00     0.235 A 
HETATM    6  N3  UNL     1      21.606   0.076  51.907  1.00  0.00    -0.229 NA
HETATM    7  C7  UNL     1      21.995   1.238  51.301  1.00  0.00     0.117 A 
HETATM    8  C8  UNL     1      23.176   1.909  51.602  1.00  0.00     0.025 A 
HETATM    9  C9  UNL     1      23.446   3.146  50.830  1.00  0.00     0.045 C 
HETATM   10  C10 UNL     1      23.257   2.906  49.349  1.00  0.00     0.026 C 
HETATM   11  C11 UNL     1      24.973   3.449  50.970  1.00  0.00     0.185 C 
HETATM   12  O1  UNL     1      25.740   2.388  50.562  1.00  0.00    -0.386 OA
HETATM   13  C12 UNL     1      26.849   2.392  51.429  1.00  0.00     0.203 C 
HETATM   14  C13 UNL     1      22.826   4.391  51.323  1.00  0.00     0.213 C 
HETATM   15  F1  UNL     1      22.565   4.200  52.697  1.00  0.00    -0.243 F 
HETATM   16  C14 UNL     1      21.672   4.960  50.672  1.00  0.00    -0.049 C 
HETATM   17  C15 UNL     1      21.578   6.444  50.960  1.00  0.00     0.046 C 
HETATM   18  C16 UNL     1      20.571   4.684  50.005  1.00  0.00     0.006 C 
HETATM   19  C17 UNL     1      19.720   3.649  49.459  1.00  0.00     0.012 C 
HETATM   20  C18 UNL     1      20.032   2.375  49.644  1.00  0.00     0.064 C 
HETATM   21  N4  UNL     1      21.088   1.709  50.312  1.00  0.00    -0.253 NA
HETATM   22  H23 UNL     1      20.661   2.266  51.134  1.00  0.00     0.134 HD
ENDROOT
BRANCH   1  23
HETATM   23  C2  UNL     1      27.402   2.026  53.819  1.00  0.00     0.305 C 
BRANCH  23  24
HETATM   24  N1  UNL     1      27.236   0.944  54.802  1.00  0.00     0.083 N 
HETATM   25  C1  UNL     1      28.442   0.149  54.810  1.00  0.00     0.307 C 
HETATM   26  H4  UNL     1      27.128   1.387  55.727  1.00  0.00     0.315 HD
ENDBRANCH  23  24
ENDBRANCH   1  23
TORSDOF 2
ENDMDL
MODEL 5
REMARK VINA RESULT:      -7.4      2.362      3.517
REMARK  2 active torsions:
REMARK  status: ('A' for Active; 'I' for Inactive)
REMARK    1  A    between atoms: N1_2  and  C2_3 
REMARK    2  A    between atoms: C2_3  and  C3_4 
ROOT
HETATM    1  C3  UNL     1      25.791   0.692  53.218  1.00  0.00    -0.026 C 
HETATM    2  C4  UNL     1      24.446   0.730  53.223  1.00  0.00     0.039 C 
HETATM    3  C5  UNL     1      23.488   1.121  52.176  1.00  0.00     0.069 A 
HETATM    4  N2  UNL     1      22.501   0.184  52.360  1.00  0.00    -0.241 NA
HETATM    5  C6  UNL     1      21.423   0.189  51.560  1.00  0.00     0.235 A 
HETATM    6  N3  UNL     1      21.336   1.116  50.594  1.00  0.00    -0.229 NA
HETATM    7  C7  UNL     1      22.318   2.050  50.410  1.00  0.00     0.117 A 
HETATM    8  C8  UNL     1      23.470   2.123  51.188  1.00  0.00     0.025 A 
HETATM    9  C9  UNL     1      24.437   3.190  50.832  1.00  0.00     0.045 C 
HETATM   10  C10 UNL     1      24.719   3.185  49.347  1.00  0.00     0.026 C 
HETATM   11  C11 UNL     1      25.807   2.798  51.477  1.00  0.00     0.185 C 
HETATM   12  O1  UNL     1      26.217   1.551  51.079  1.00  0.00    -0.386 OA
HETATM   13  C12 UNL     1      26.855   1.006  52.208  1.00  0.00     0.203 C 
HETATM   14  C13 UNL     1      24.190   4.531  51.395  1.00  0.00     0.213 C 
HETATM   15  F1  UNL     1      23.401   4.349  52.552  1.00  0.00    -0.243 F 
HETATM   16  C14 UNL     1      23.647   5.593  50.585  1.00  0.00    -0.049 C 
HETATM   17  C15 UNL     1      24.013   6.943  51.166  1.00  0.00     0.046 C 
HETATM   18  C16 UNL     1      22.843   5.873  49.582  1.00  0.00     0.006 C 
HETATM   19  C17 UNL     1      21.927   5.353  48.589  1.00  0.00     0.012 C 
HETATM   20  C18 UNL     1      21.656   4.057  48.560  1.00  0.00     0.064 C 
HETATM   21  N4  UNL     1      22.072   2.948  49.335  1.00  0.00    -0.253 NA
HETATM   22  H23 UNL     1      21.617   3.559  50.102  1.00  0.00     0.134 HD
ENDROOT
BRANCH   1  23
HETATM   23  C2  UNL     1      26.332   0.230  54.505  1.00  0.00     0.305 C 
BRANCH  23  24
HETATM   24  N1  UNL     1      27.549  -0.572  54.301  1.00  0.00     0.083 N 
HETATM   25  C1  UNL     1      28.655   0.112  54.930  1.00  0.00     0.307 C 
HETATM   26  H4  UNL     1      27.404  -1.473  54.781  1.00  0.00     0.315 HD
ENDBRANCH  23  24
ENDBRANCH   1  23
TORSDOF 2
ENDMDL
MODEL 6
REMARK VINA RESULT:      -7.3      2.811      4.409
REMARK  2 active torsions:
REMARK  status: ('A' for Active; 'I' for Inactive)
REMARK    1  A    between atoms: N1_2  and  C2_3 
REMARK    2  A    between atoms: C2_3  and  C3_4 
ROOT
HETATM    1  C3  UNL     1      21.593   1.086  52.405  1.00  0.00    -0.026 C 
HETATM    2  C4  UNL     1      22.814   0.850  51.890  1.00  0.00     0.039 C 
HETATM    3  C5  UNL     1      23.920   1.767  51.569  1.00  0.00     0.069 A 
HETATM    4  N2  UNL     1      25.003   1.023  51.967  1.00  0.00    -0.241 NA
HETATM    5  C6  UNL     1      26.239   1.533  51.853  1.00  0.00     0.235 A 
HETATM    6  N3  UNL     1      26.386   2.769  51.349  1.00  0.00    -0.229 NA
HETATM    7  C7  UNL     1      25.309   3.511  50.952  1.00  0.00     0.117 A 
HETATM    8  C8  UNL     1      23.993   3.066  51.032  1.00  0.00     0.025 A 
HETATM    9  C9  UNL     1      22.948   4.014  50.573  1.00  0.00     0.045 C 
HETATM   10  C10 UNL     1      23.155   5.379  51.190  1.00  0.00     0.026 C 
HETATM   11  C11 UNL     1      21.592   3.529  51.181  1.00  0.00     0.185 C 
HETATM   12  O1  UNL     1      21.656   3.425  52.547  1.00  0.00    -0.386 OA
HETATM   13  C12 UNL     1      20.856   2.311  52.861  1.00  0.00     0.203 C 
HETATM   14  C13 UNL     1      22.660   4.042  49.127  1.00  0.00     0.213 C 
HETATM   15  F1  UNL     1      23.066   2.795  48.605  1.00  0.00    -0.243 F 
HETATM   16  C14 UNL     1      23.141   5.113  48.289  1.00  0.00    -0.049 C 
HETATM   17  C15 UNL     1      22.283   5.242  47.048  1.00  0.00     0.046 C 
HETATM   18  C16 UNL     1      24.121   5.972  48.104  1.00  0.00     0.006 C 
HETATM   19  C17 UNL     1      25.401   6.460  48.570  1.00  0.00     0.012 C 
HETATM   20  C18 UNL     1      25.986   5.883  49.609  1.00  0.00     0.064 C 
HETATM   21  N4  UNL     1      25.643   4.800  50.454  1.00  0.00    -0.253 NA
HETATM   22  H23 UNL     1      25.665   4.298  49.497  1.00  0.00     0.134 HD
ENDROOT
BRANCH   1  23
HETATM   23  C2  UNL     1      20.813  -0.151  52.558  1.00  0.00     0.305 C 
BRANCH  23  24
HETATM   24  N1  UNL     1      20.369  -0.319  53.950  1.00  0.00     0.083 N 
HETATM   25  C1  UNL     1      21.290  -1.211  54.616  1.00  0.00     0.307 C 
HETATM   26  H4  UNL     1      20.424   0.606  54.401  1.00  0.00     0.315 HD
ENDBRANCH  23  24
ENDBRANCH   1  23
TORSDOF 2
ENDMDL
MODEL 7
REMARK VINA RESULT:      -7.0      2.132      2.519
REMARK  2 active torsions:
REMARK  status: ('A' for Active; 'I' for Inactive)
REMARK    1  A    between atoms: N1_2  and  C2_3 
REMARK    2  A    between atoms: C2_3  and  C3_4 
ROOT
HETATM    1  C3  UNL     1      26.103   1.913  51.715  1.00  0.00    -0.026 C 
HETATM    2  C4  UNL     1      26.507   2.458  50.552  1.00  0.00     0.039 C 
HETATM    3  C5  UNL     1      26.056   3.668  49.846  1.00  0.00     0.069 A 
HETATM    4  N2  UNL     1      27.250   4.159  49.379  1.00  0.00    -0.241 NA
HETATM    5  C6  UNL     1      27.270   5.304  48.678  1.00  0.00     0.235 A 
HETATM    6  N3  UNL     1      26.112   5.944  48.449  1.00  0.00    -0.229 NA
HETATM    7  C7  UNL     1      24.922   5.455  48.913  1.00  0.00     0.117 A 
HETATM    8  C8  UNL     1      24.804   4.280  49.648  1.00  0.00     0.025 A 
HETATM    9  C9  UNL     1      23.436   3.913  50.087  1.00  0.00     0.045 C 
HETATM   10  C10 UNL     1      22.745   5.092  50.733  1.00  0.00     0.026 C 
HETATM   11  C11 UNL     1      23.591   2.882  51.253  1.00  0.00     0.185 C 
HETATM   12  O1  UNL     1      24.362   3.381  52.271  1.00  0.00    -0.386 OA
HETATM   13  C12 UNL     1      25.081   2.272  52.753  1.00  0.00     0.203 C 
HETATM   14  C13 UNL     1      22.598   3.179  49.119  1.00  0.00     0.213 C 
HETATM   15  F1  UNL     1      23.478   2.545  48.216  1.00  0.00    -0.243 F 
HETATM   16  C14 UNL     1      21.536   3.837  48.400  1.00  0.00    -0.049 C 
HETATM   17  C15 UNL     1      20.499   2.830  47.945  1.00  0.00     0.046 C 
HETATM   18  C16 UNL     1      21.148   4.974  47.862  1.00  0.00     0.006 C 
HETATM   19  C17 UNL     1      21.485   6.354  47.588  1.00  0.00     0.012 C 
HETATM   20  C18 UNL     1      22.669   6.827  47.949  1.00  0.00     0.064 C 
HETATM   21  N4  UNL     1      23.797   6.263  48.592  1.00  0.00    -0.253 NA
HETATM   22  H23 UNL     1      23.734   5.626  47.721  1.00  0.00     0.134 HD
ENDROOT
BRANCH   1  23
HETATM   23  C2  UNL     1      26.847   0.685  52.033  1.00  0.00     0.305 C 
BRANCH  23  24
HETATM   24  N1  UNL     1      25.949  -0.339  52.589  1.00  0.00     0.083 N 
HETATM   25  C1  UNL     1      26.694  -1.568  52.732  1.00  0.00     0.307 C 
HETATM   26  H4  UNL     1      25.663  -0.018  53.526  1.00  0.00     0.315 HD
ENDBRANCH  23  24
ENDBRANCH   1  23
TORSDOF 2
ENDMDL
MODEL 8
REMARK VINA RESULT:      -6.7      3.868      5.406
REMARK  2 active torsions:
REMARK  status: ('A' for Active; 'I' for Inactive)
REMARK    1  A    between atoms: N1_2  and  C2_3 
REMARK    2  A    between atoms: C2_3  and  C3_4 
ROOT
HETATM    1  C3  UNL     1      20.976   0.727  52.893  1.00  0.00    -0.026 C 
HETATM    2  C4  UNL     1      20.390   1.938  52.844  1.00  0.00     0.039 C 
HETATM    3  C5  UNL     1      20.183   2.865  51.719  1.00  0.00     0.069 A 
HETATM    4  N2  UNL     1      18.922   3.333  51.994  1.00  0.00    -0.241 NA
HETATM    5  C6  UNL     1      18.344   4.215  51.163  1.00  0.00     0.235 A 
HETATM    6  N3  UNL     1      19.020   4.620  50.076  1.00  0.00    -0.229 NA
HETATM    7  C7  UNL     1      20.276   4.155  49.801  1.00  0.00     0.117 A 
HETATM    8  C8  UNL     1      20.953   3.241  50.603  1.00  0.00     0.025 A 
HETATM    9  C9  UNL     1      22.301   2.832  50.140  1.00  0.00     0.045 C 
HETATM   10  C10 UNL     1      22.270   2.437  48.680  1.00  0.00     0.026 C 
HETATM   11  C11 UNL     1      22.655   1.501  50.881  1.00  0.00     0.185 C 
HETATM   12  O1  UNL     1      21.703   0.536  50.673  1.00  0.00    -0.386 OA
HETATM   13  C12 UNL     1      21.636  -0.170  51.888  1.00  0.00     0.203 C 
HETATM   14  C13 UNL     1      23.429   3.711  50.504  1.00  0.00     0.213 C 
HETATM   15  F1  UNL     1      23.027   4.438  51.645  1.00  0.00    -0.243 F 
HETATM   16  C14 UNL     1      24.029   4.595  49.536  1.00  0.00    -0.049 C 
HETATM   17  C15 UNL     1      25.449   4.937  49.939  1.00  0.00     0.046 C 
HETATM   18  C16 UNL     1      23.800   5.340  48.476  1.00  0.00     0.006 C 
HETATM   19  C17 UNL     1      22.815   5.822  47.532  1.00  0.00     0.012 C 
HETATM   20  C18 UNL     1      21.544   5.474  47.671  1.00  0.00     0.064 C 
HETATM   21  N4  UNL     1      20.841   4.677  48.605  1.00  0.00    -0.253 NA
HETATM   22  H23 UNL     1      21.250   5.430  49.265  1.00  0.00     0.134 HD
ENDROOT
BRANCH   1  23
HETATM   23  C2  UNL     1      20.953   0.161  54.250  1.00  0.00     0.305 C 
BRANCH  23  24
HETATM   24  N1  UNL     1      21.508  -1.202  54.255  1.00  0.00     0.083 N 
HETATM   25  C1  UNL     1      22.593  -1.247  55.208  1.00  0.00     0.307 C 
HETATM   26  H4  UNL     1      20.760  -1.834  54.578  1.00  0.00     0.315 HD
ENDBRANCH  23  24
ENDBRANCH   1  23
TORSDOF 2
ENDMDL
MODEL 9
REMARK VINA RESULT:      -6.7      2.995      6.907
REMARK  2 active torsions:
REMARK  status: ('A' for Active; 'I' for Inactive)
REMARK    1  A    between atoms: N1_2  and  C2_3 
REMARK    2  A    between atoms: C2_3  and  C3_4 
ROOT
HETATM    1  C3  UNL     1      20.088   4.592  49.568  1.00  0.00    -0.026 C 
HETATM    2  C4  UNL     1      20.340   3.271  49.505  1.00  0.00     0.039 C 
HETATM    3  C5  UNL     1      21.222   2.417  50.318  1.00  0.00     0.069 A 
HETATM    4  N2  UNL     1      20.453   1.286  50.440  1.00  0.00    -0.241 NA
HETATM    5  C6  UNL     1      20.912   0.245  51.152  1.00  0.00     0.235 A 
HETATM    6  N3  UNL     1      22.120   0.336  51.730  1.00  0.00    -0.229 NA
HETATM    7  C7  UNL     1      22.886   1.462  51.609  1.00  0.00     0.117 A 
HETATM    8  C8  UNL     1      22.495   2.589  50.893  1.00  0.00     0.025 A 
HETATM    9  C9  UNL     1      23.446   3.727  50.886  1.00  0.00     0.045 C 
HETATM   10  C10 UNL     1      23.915   4.044  52.288  1.00  0.00     0.026 C 
HETATM   11  C11 UNL     1      22.637   4.997  50.464  1.00  0.00     0.185 C 
HETATM   12  O1  UNL     1      21.560   5.207  51.285  1.00  0.00    -0.386 OA
HETATM   13  C12 UNL     1      20.558   5.718  50.440  1.00  0.00     0.203 C 
HETATM   14  C13 UNL     1      24.527   3.688  49.882  1.00  0.00     0.213 C 
HETATM   15  F1  UNL     1      24.083   2.850  48.837  1.00  0.00    -0.243 F 
HETATM   16  C14 UNL     1      25.879   3.348  50.252  1.00  0.00    -0.049 C 
HETATM   17  C15 UNL     1      26.862   3.915  49.249  1.00  0.00     0.046 C 
HETATM   18  C16 UNL     1      26.619   2.626  51.068  1.00  0.00     0.006 C 
HETATM   19  C17 UNL     1      26.634   1.665  52.148  1.00  0.00     0.012 C 
HETATM   20  C18 UNL     1      25.493   1.185  52.619  1.00  0.00     0.064 C 
HETATM   21  N4  UNL     1      24.131   1.395  52.294  1.00  0.00    -0.253 NA
HETATM   22  H23 UNL     1      24.500   1.025  51.347  1.00  0.00     0.134 HD
ENDROOT
BRANCH   1  23
HETATM   23  C2  UNL     1      19.123   5.016  48.542  1.00  0.00     0.305 C 
BRANCH  23  24
HETATM   24  N1  UNL     1      17.886   5.511  49.164  1.00  0.00     0.083 N 
HETATM   25  C1  UNL     1      16.861   4.505  49.001  1.00  0.00     0.307 C 
HETATM   26  H4  UNL     1      18.075   5.627  50.170  1.00  0.00     0.315 HD
ENDBRANCH  23  24
ENDBRANCH   1  23
TORSDOF 2
ENDMDL
