MODEL 1
REMARK VINA RESULT:      -8.4      0.000      0.000
REMARK  7 active torsions:
REMARK  status: ('A' for Active; 'I' for Inactive)
REMARK    1  A    between atoms: C6_6  and  O1_7 
REMARK    2  A    between atoms: C7_8  and  C8_9 
REMARK    3  A    between atoms: C8_9  and  N1_10 
REMARK    4  A    between atoms: N1_10  and  C9_11 
REMARK    5  A    between atoms: N1_10  and  C16_18 
REMARK    6  A    between atoms: C9_11  and  C10_12 
REMARK    7  A    between atoms: C16_18  and  N2_19 
ROOT
HETATM    1  N1  UNL     1      24.143   1.800  51.849  1.00  0.00    -0.371 N 
ENDROOT
BRANCH   1   2
HETATM    2  C8  UNL     1      24.547   1.311  53.105  1.00  0.00     0.161 C 
BRANCH   2   3
HETATM    3  C7  UNL     1      25.913   0.851  53.287  1.00  0.00    -0.006 A 
HETATM    4  C6  UNL     1      27.062   1.482  53.697  1.00  0.00     0.079 A 
HETATM    5  C4  UNL     1      28.314   0.923  53.780  1.00  0.00    -0.028 A 
HETATM    6  C3  UNL     1      28.496  -0.395  53.430  1.00  0.00     0.016 A 
HETATM    7  C5  UNL     1      29.463   1.736  54.242  1.00  0.00     0.051 C 
HETATM    8  C2  UNL     1      27.399  -1.108  53.006  1.00  0.00    -0.061 A 
HETATM    9  C1  UNL     1      27.612  -2.528  52.631  1.00  0.00     0.048 C 
HETATM   10  C21 UNL     1      26.175  -0.486  52.948  1.00  0.00     0.018 A 
BRANCH   4  11
HETATM   11  O1  UNL     1      26.942   2.807  54.067  1.00  0.00    -0.360 OA
HETATM   12  H8  UNL     1      27.289   3.125  54.977  1.00  0.00     0.217 HD
ENDBRANCH   4  11
ENDBRANCH   2   3
ENDBRANCH   1   2
BRANCH   1  13
HETATM   13  C9  UNL     1      22.909   1.170  51.419  1.00  0.00     0.158 C 
BRANCH  13  14
HETATM   14  C10 UNL     1      22.249   0.399  52.505  1.00  0.00    -0.041 A 
HETATM   15  C11 UNL     1      21.276   1.016  53.272  1.00  0.00     0.009 A 
HETATM   16  C12 UNL     1      20.620   0.369  54.303  1.00  0.00     0.001 A 
HETATM   17  C13 UNL     1      20.935  -0.941  54.594  1.00  0.00     0.000 A 
HETATM   18  C14 UNL     1      21.895  -1.591  53.858  1.00  0.00     0.001 A 
HETATM   19  C15 UNL     1      22.516  -0.918  52.852  1.00  0.00     0.009 A 
ENDBRANCH  13  14
ENDBRANCH   1  13
BRANCH   1  20
HETATM   20  C16 UNL     1      24.257   3.153  51.508  1.00  0.00     0.232 C 
HETATM   21  C17 UNL     1      25.585   3.463  50.803  1.00  0.00     0.090 C 
HETATM   22  C18 UNL     1      25.286   3.512  49.375  1.00  0.00    -0.026 C 
HETATM   23  C19 UNL     1      23.976   3.646  49.243  1.00  0.00    -0.026 C 
HETATM   24  C20 UNL     1      23.257   3.702  50.538  1.00  0.00     0.090 C 
BRANCH  20  25
HETATM   25  N2  UNL     1      24.253   3.978  52.697  1.00  0.00     0.107 N 
HETATM   26  H18 UNL     1      23.472   3.688  53.342  1.00  0.00     0.316 HD
HETATM   27  H19 UNL     1      25.140   3.856  53.202  1.00  0.00     0.316 HD
ENDBRANCH  20  25
ENDBRANCH   1  20
TORSDOF 7
ENDMDL
MODEL 2
REMARK VINA RESULT:      -8.3      1.644      4.919
REMARK  7 active torsions:
REMARK  status: ('A' for Active; 'I' for Inactive)
REMARK    1  A    between atoms: C6_6  and  O1_7 
REMARK    2  A    between atoms: C7_8  and  C8_9 
REMARK    3  A    between atoms: C8_9  and  N1_10 
REMARK    4  A    between atoms: N1_10  and  C9_11 
REMARK    5  A    between atoms: N1_10  and  C16_18 
REMARK    6  A    between atoms: C9_11  and  C10_12 
REMARK    7  A    between atoms: C16_18  and  N2_19 
ROOT
HETATM    1  N1  UNL     1      25.933   1.347  52.505  1.00  0.00    -0.371 N 
ENDROOT
BRANCH   1   2
HETATM    2  C8  UNL     1      26.300   1.576  51.166  1.00  0.00     0.161 C 
BRANCH   2   3
HETATM    3  C7  UNL     1      25.715   2.695  50.448  1.00  0.00    -0.006 A 
HETATM    4  C6  UNL     1      26.247   3.854  49.936  1.00  0.00     0.079 A 
HETATM    5  C4  UNL     1      25.555   4.861  49.309  1.00  0.00    -0.028 A 
HETATM    6  C3  UNL     1      24.193   4.755  49.150  1.00  0.00     0.016 A 
HETATM    7  C5  UNL     1      26.272   6.058  48.809  1.00  0.00     0.051 C 
HETATM    8  C2  UNL     1      23.572   3.626  49.631  1.00  0.00    -0.061 A 
HETATM    9  C1  UNL     1      22.103   3.527  49.453  1.00  0.00     0.048 C 
HETATM   10  C21 UNL     1      24.326   2.656  50.248  1.00  0.00     0.018 A 
BRANCH   4  11
HETATM   11  O1  UNL     1      27.613   4.016  50.061  1.00  0.00    -0.360 OA
HETATM   12  H8  UNL     1      28.209   4.060  49.229  1.00  0.00     0.217 HD
ENDBRANCH   4  11
ENDBRANCH   2   3
ENDBRANCH   1   2
BRANCH   1  13
HETATM   13  C9  UNL     1      25.364   0.022  52.668  1.00  0.00     0.158 C 
BRANCH  13  14
HETATM   14  C10 UNL     1      23.965   0.056  53.170  1.00  0.00    -0.041 A 
HETATM   15  C11 UNL     1      23.586  -0.831  54.162  1.00  0.00     0.009 A 
HETATM   16  C12 UNL     1      22.303  -0.866  54.678  1.00  0.00     0.001 A 
HETATM   17  C13 UNL     1      21.353   0.009  54.199  1.00  0.00     0.000 A 
HETATM   18  C14 UNL     1      21.687   0.907  53.215  1.00  0.00     0.001 A 
HETATM   19  C15 UNL     1      22.960   0.908  52.735  1.00  0.00     0.009 A 
ENDBRANCH  13  14
ENDBRANCH   1  13
BRANCH   1  20
HETATM   20  C16 UNL     1      26.728   1.775  53.576  1.00  0.00     0.232 C 
HETATM   21  C17 UNL     1      27.006   0.645  54.578  1.00  0.00     0.090 C 
HETATM   22  C18 UNL     1      28.342   0.148  54.270  1.00  0.00    -0.026 C 
HETATM   23  C19 UNL     1      28.950   1.059  53.527  1.00  0.00    -0.026 C 
HETATM   24  C20 UNL     1      28.110   2.251  53.256  1.00  0.00     0.090 C 
BRANCH  20  25
HETATM   25  N2  UNL     1      26.046   2.801  54.335  1.00  0.00     0.107 N 
HETATM   26  H18 UNL     1      26.743   3.459  54.773  1.00  0.00     0.316 HD
HETATM   27  H19 UNL     1      25.446   3.351  53.707  1.00  0.00     0.316 HD
ENDBRANCH  20  25
ENDBRANCH   1  20
TORSDOF 7
ENDMDL
MODEL 3
REMARK VINA RESULT:      -8.2      1.732      5.086
REMARK  7 active torsions:
REMARK  status: ('A' for Active; 'I' for Inactive)
REMARK    1  A    between atoms: C6_6  and  O1_7 
REMARK    2  A    between atoms: C7_8  and  C8_9 
REMARK    3  A    between atoms: C8_9  and  N1_10 
REMARK    4  A    between atoms: N1_10  and  C9_11 
REMARK    5  A    between atoms: N1_10  and  C16_18 
REMARK    6  A    between atoms: C9_11  and  C10_12 
REMARK    7  A    between atoms: C16_18  and  N2_19 
ROOT
HETATM    1  N1  UNL     1      25.036   1.695  52.994  1.00  0.00    -0.371 N 
ENDROOT
BRANCH   1   2
HETATM    2  C8  UNL     1      24.588   3.019  53.158  1.00  0.00     0.161 C 
BRANCH   2   3
HETATM    3  C7  UNL     1      23.887   3.677  52.069  1.00  0.00    -0.006 A 
HETATM    4  C6  UNL     1      24.321   4.374  50.967  1.00  0.00     0.079 A 
HETATM    5  C4  UNL     1      23.530   4.990  50.030  1.00  0.00    -0.028 A 
HETATM    6  C3  UNL     1      22.161   4.939  50.153  1.00  0.00     0.016 A 
HETATM    7  C5  UNL     1      24.149   5.709  48.891  1.00  0.00     0.051 C 
HETATM    8  C2  UNL     1      21.634   4.260  51.227  1.00  0.00    -0.061 A 
HETATM    9  C1  UNL     1      20.156   4.215  51.346  1.00  0.00     0.048 C 
HETATM   10  C21 UNL     1      22.485   3.666  52.128  1.00  0.00     0.018 A 
BRANCH   4  11
HETATM   11  O1  UNL     1      25.688   4.456  50.787  1.00  0.00    -0.360 OA
HETATM   12  H8  UNL     1      26.159   5.366  50.796  1.00  0.00     0.217 HD
ENDBRANCH   4  11
ENDBRANCH   2   3
ENDBRANCH   1   2
BRANCH   1  13
HETATM   13  C9  UNL     1      24.105   0.930  52.185  1.00  0.00     0.158 C 
BRANCH  13  14
HETATM   14  C10 UNL     1      23.146   0.143  53.004  1.00  0.00    -0.041 A 
HETATM   15  C11 UNL     1      21.811   0.120  52.638  1.00  0.00     0.009 A 
HETATM   16  C12 UNL     1      20.857  -0.583  53.350  1.00  0.00     0.001 A 
HETATM   17  C13 UNL     1      21.230  -1.294  54.470  1.00  0.00     0.000 A 
HETATM   18  C14 UNL     1      22.544  -1.298  54.869  1.00  0.00     0.001 A 
HETATM   19  C15 UNL     1      23.451  -0.593  54.140  1.00  0.00     0.009 A 
ENDBRANCH  13  14
ENDBRANCH   1  13
BRANCH   1  20
HETATM   20  C16 UNL     1      26.385   1.389  52.776  1.00  0.00     0.232 C 
HETATM   21  C17 UNL     1      27.105   0.991  54.072  1.00  0.00     0.090 C 
HETATM   22  C18 UNL     1      27.159  -0.467  54.076  1.00  0.00    -0.026 C 
HETATM   23  C19 UNL     1      26.924  -0.882  52.841  1.00  0.00    -0.026 C 
HETATM   24  C20 UNL     1      26.689   0.227  51.884  1.00  0.00     0.090 C 
BRANCH  20  25
HETATM   25  N2  UNL     1      27.095   2.550  52.285  1.00  0.00     0.107 N 
HETATM   26  H18 UNL     1      28.134   2.425  52.408  1.00  0.00     0.316 HD
HETATM   27  H19 UNL     1      26.910   2.668  51.280  1.00  0.00     0.316 HD
ENDBRANCH  20  25
ENDBRANCH   1  20
TORSDOF 7
ENDMDL
MODEL 4
REMARK VINA RESULT:      -8.1      2.160      5.283
REMARK  7 active torsions:
REMARK  status: ('A' for Active; 'I' for Inactive)
REMARK    1  A    between atoms: C6_6  and  O1_7 
REMARK    2  A    between atoms: C7_8  and  C8_9 
REMARK    3  A    between atoms: C8_9  and  N1_10 
REMARK    4  A    between atoms: N1_10  and  C9_11 
REMARK    5  A    between atoms: N1_10  and  C16_18 
REMARK    6  A    between atoms: C9_11  and  C10_12 
REMARK    7  A    between atoms: C16_18  and  N2_19 
ROOT
HETATM    1  N1  UNL     1      24.191   2.737  51.364  1.00  0.00    -0.371 N 
ENDROOT
BRANCH   1   2
HETATM    2  C8  UNL     1      23.361   1.807  50.711  1.00  0.00     0.161 C 
BRANCH   2   3
HETATM    3  C7  UNL     1      22.390   1.051  51.483  1.00  0.00    -0.006 A 
HETATM    4  C6  UNL     1      21.039   0.845  51.338  1.00  0.00     0.079 A 
HETATM    5  C4  UNL     1      20.228   0.132  52.185  1.00  0.00    -0.028 A 
HETATM    6  C3  UNL     1      20.763  -0.458  53.306  1.00  0.00     0.016 A 
HETATM    7  C5  UNL     1      18.781  -0.001  51.892  1.00  0.00     0.051 C 
HETATM    8  C2  UNL     1      22.111  -0.306  53.535  1.00  0.00    -0.061 A 
HETATM    9  C1  UNL     1      22.673  -0.947  54.749  1.00  0.00     0.048 C 
HETATM   10  C21 UNL     1      22.865   0.422  52.645  1.00  0.00     0.018 A 
BRANCH   4  11
HETATM   11  O1  UNL     1      20.444   1.409  50.226  1.00  0.00    -0.360 OA
HETATM   12  H8  UNL     1      19.842   0.846  49.618  1.00  0.00     0.217 HD
ENDBRANCH   4  11
ENDBRANCH   2   3
ENDBRANCH   1   2
BRANCH   1  13
HETATM   13  C9  UNL     1      25.591   2.403  51.178  1.00  0.00     0.158 C 
BRANCH  13  14
HETATM   14  C10 UNL     1      26.085   1.422  52.179  1.00  0.00    -0.041 A 
HETATM   15  C11 UNL     1      26.088   1.772  53.518  1.00  0.00     0.009 A 
HETATM   16  C12 UNL     1      26.537   0.918  54.509  1.00  0.00     0.001 A 
HETATM   17  C13 UNL     1      27.004  -0.334  54.169  1.00  0.00     0.000 A 
HETATM   18  C14 UNL     1      27.018  -0.722  52.851  1.00  0.00     0.001 A 
HETATM   19  C15 UNL     1      26.568   0.149  51.908  1.00  0.00     0.009 A 
ENDBRANCH  13  14
ENDBRANCH   1  13
BRANCH   1  20
HETATM   20  C16 UNL     1      23.914   4.110  51.362  1.00  0.00     0.232 C 
HETATM   21  C17 UNL     1      22.803   4.475  50.367  1.00  0.00     0.090 C 
HETATM   22  C18 UNL     1      21.581   4.607  51.153  1.00  0.00    -0.026 C 
HETATM   23  C19 UNL     1      21.931   4.736  52.423  1.00  0.00    -0.026 C 
HETATM   24  C20 UNL     1      23.398   4.707  52.634  1.00  0.00     0.090 C 
BRANCH  20  25
HETATM   25  N2  UNL     1      25.074   4.860  50.933  1.00  0.00     0.107 N 
HETATM   26  H18 UNL     1      25.816   4.211  50.561  1.00  0.00     0.316 HD
HETATM   27  H19 UNL     1      24.808   5.500  50.173  1.00  0.00     0.316 HD
ENDBRANCH  20  25
ENDBRANCH   1  20
TORSDOF 7
ENDMDL
MODEL 5
REMARK VINA RESULT:      -8.1      1.641      4.718
REMARK  7 active torsions:
REMARK  status: ('A' for Active; 'I' for Inactive)
REMARK    1  A    between atoms: C6_6  and  O1_7 
REMARK    2  A    between atoms: C7_8  and  C8_9 
REMARK    3  A    between atoms: C8_9  and  N1_10 
REMARK    4  A    between atoms: N1_10  and  C9_11 
REMARK    5  A    between atoms: N1_10  and  C16_18 
REMARK    6  A    between atoms: C9_11  and  C10_12 
REMARK    7  A    between atoms: C16_18  and  N2_19 
ROOT
HETATM    1  N1  UNL     1      25.173   0.665  53.908  1.00  0.00    -0.371 N 
ENDROOT
BRANCH   1   2
HETATM    2  C8  UNL     1      25.454   2.043  53.855  1.00  0.00     0.161 C 
BRANCH   2   3
HETATM    3  C7  UNL     1      25.203   2.777  52.627  1.00  0.00    -0.006 A 
HETATM    4  C6  UNL     1      25.954   2.986  51.496  1.00  0.00     0.079 A 
HETATM    5  C4  UNL     1      25.601   3.753  50.413  1.00  0.00    -0.028 A 
HETATM    6  C3  UNL     1      24.387   4.399  50.403  1.00  0.00     0.016 A 
HETATM    7  C5  UNL     1      26.524   3.885  49.261  1.00  0.00     0.051 C 
HETATM    8  C2  UNL     1      23.565   4.247  51.495  1.00  0.00    -0.061 A 
HETATM    9  C1  UNL     1      22.259   4.952  51.470  1.00  0.00     0.048 C 
HETATM   10  C21 UNL     1      23.981   3.464  52.545  1.00  0.00     0.018 A 
BRANCH   4  11
HETATM   11  O1  UNL     1      27.183   2.358  51.445  1.00  0.00    -0.360 OA
HETATM   12  H8  UNL     1      27.252   1.343  51.567  1.00  0.00     0.217 HD
ENDBRANCH   4  11
ENDBRANCH   2   3
ENDBRANCH   1   2
BRANCH   1  13
HETATM   13  C9  UNL     1      24.434   0.241  52.733  1.00  0.00     0.158 C 
BRANCH  13  14
HETATM   14  C10 UNL     1      22.999  -0.016  53.020  1.00  0.00    -0.041 A 
HETATM   15  C11 UNL     1      22.046   0.397  52.105  1.00  0.00     0.009 A 
HETATM   16  C12 UNL     1      20.692   0.201  52.300  1.00  0.00     0.001 A 
HETATM   17  C13 UNL     1      20.254  -0.429  53.446  1.00  0.00     0.000 A 
HETATM   18  C14 UNL     1      21.165  -0.856  54.380  1.00  0.00     0.001 A 
HETATM   19  C15 UNL     1      22.489  -0.642  54.148  1.00  0.00     0.009 A 
ENDBRANCH  13  14
ENDBRANCH   1  13
BRANCH   1  20
HETATM   20  C16 UNL     1      26.109  -0.266  54.375  1.00  0.00     0.232 C 
HETATM   21  C17 UNL     1      26.481  -1.301  53.304  1.00  0.00     0.090 C 
HETATM   22  C18 UNL     1      27.753  -0.863  52.739  1.00  0.00    -0.026 C 
HETATM   23  C19 UNL     1      28.286   0.011  53.577  1.00  0.00    -0.026 C 
HETATM   24  C20 UNL     1      27.452   0.256  54.779  1.00  0.00     0.090 C 
BRANCH  20  25
HETATM   25  N2  UNL     1      25.558  -1.032  55.472  1.00  0.00     0.107 N 
HETATM   26  H18 UNL     1      24.620  -1.431  55.207  1.00  0.00     0.316 HD
HETATM   27  H19 UNL     1      26.184  -1.818  55.691  1.00  0.00     0.316 HD
ENDBRANCH  20  25
ENDBRANCH   1  20
TORSDOF 7
ENDMDL
MODEL 6
REMARK VINA RESULT:      -8.0      1.807      3.166
REMARK  7 active torsions:
REMARK  status: ('A' for Active; 'I' for Inactive)
REMARK    1  A    between atoms: C6_6  and  O1_7 
REMARK    2  A    between atoms: C7_8  and  C8_9 
REMARK    3  A    between atoms: C8_9  and  N1_10 
REMARK    4  A    between atoms: N1_10  and  C9_11 
REMARK    5  A    between atoms: N1_10  and  C16_18 
REMARK    6  A    between atoms: C9_11  and  C10_12 
REMARK    7  A    between atoms: C16_18  and  N2_19 
ROOT
HETATM    1  N1  UNL     1      23.283   4.306  51.867  1.00  0.00    -0.371 N 
ENDROOT
BRANCH   1   2
HETATM    2  C8  UNL     1      23.869   3.772  53.031  1.00  0.00     0.161 C 
BRANCH   2   3
HETATM    3  C7  UNL     1      24.351   2.402  53.023  1.00  0.00    -0.006 A 
HETATM    4  C6  UNL     1      25.598   1.854  52.844  1.00  0.00     0.079 A 
HETATM    5  C4  UNL     1      25.904   0.516  52.817  1.00  0.00    -0.028 A 
HETATM    6  C3  UNL     1      24.905  -0.415  52.979  1.00  0.00     0.016 A 
HETATM    7  C5  UNL     1      27.305   0.076  52.611  1.00  0.00     0.051 C 
HETATM    8  C2  UNL     1      23.621   0.042  53.166  1.00  0.00    -0.061 A 
HETATM    9  C1  UNL     1      22.554  -0.974  53.339  1.00  0.00     0.048 C 
HETATM   10  C21 UNL     1      23.385   1.396  53.183  1.00  0.00     0.018 A 
BRANCH   4  11
HETATM   11  O1  UNL     1      26.645   2.740  52.680  1.00  0.00    -0.360 OA
HETATM   12  H8  UNL     1      26.624   3.658  53.135  1.00  0.00     0.217 HD
ENDBRANCH   4  11
ENDBRANCH   2   3
ENDBRANCH   1   2
BRANCH   1  13
HETATM   13  C9  UNL     1      21.842   4.401  52.008  1.00  0.00     0.158 C 
BRANCH  13  14
HETATM   14  C10 UNL     1      21.143   3.152  51.608  1.00  0.00    -0.041 A 
HETATM   15  C11 UNL     1      21.509   2.525  50.429  1.00  0.00     0.009 A 
HETATM   16  C12 UNL     1      20.904   1.364  49.985  1.00  0.00     0.001 A 
HETATM   17  C13 UNL     1      19.895   0.794  50.731  1.00  0.00     0.000 A 
HETATM   18  C14 UNL     1      19.501   1.382  51.908  1.00  0.00     0.001 A 
HETATM   19  C15 UNL     1      20.123   2.525  52.308  1.00  0.00     0.009 A 
ENDBRANCH  13  14
ENDBRANCH   1  13
BRANCH   1  20
HETATM   20  C16 UNL     1      23.870   5.361  51.158  1.00  0.00     0.232 C 
HETATM   21  C17 UNL     1      25.120   4.916  50.386  1.00  0.00     0.090 C 
HETATM   22  C18 UNL     1      24.695   4.715  49.005  1.00  0.00    -0.026 C 
HETATM   23  C19 UNL     1      23.533   5.330  48.848  1.00  0.00    -0.026 C 
HETATM   24  C20 UNL     1      23.052   6.001  50.080  1.00  0.00     0.090 C 
BRANCH  20  25
HETATM   25  N2  UNL     1      24.328   6.390  52.067  1.00  0.00     0.107 N 
HETATM   26  H18 UNL     1      23.864   7.310  51.845  1.00  0.00     0.316 HD
HETATM   27  H19 UNL     1      24.075   6.135  53.031  1.00  0.00     0.316 HD
ENDBRANCH  20  25
ENDBRANCH   1  20
TORSDOF 7
ENDMDL
MODEL 7
REMARK VINA RESULT:      -8.0      2.119      5.930
REMARK  7 active torsions:
REMARK  status: ('A' for Active; 'I' for Inactive)
REMARK    1  A    between atoms: C6_6  and  O1_7 
REMARK    2  A    between atoms: C7_8  and  C8_9 
REMARK    3  A    between atoms: C8_9  and  N1_10 
REMARK    4  A    between atoms: N1_10  and  C9_11 
REMARK    5  A    between atoms: N1_10  and  C16_18 
REMARK    6  A    between atoms: C9_11  and  C10_12 
REMARK    7  A    between atoms: C16_18  and  N2_19 
ROOT
HETATM    1  N1  UNL     1      24.600   1.696  53.135  1.00  0.00    -0.371 N 
ENDROOT
BRANCH   1   2
HETATM    2  C8  UNL     1      23.589   0.858  53.642  1.00  0.00     0.161 C 
BRANCH   2   3
HETATM    3  C7  UNL     1      22.369   0.667  52.878  1.00  0.00    -0.006 A 
HETATM    4  C6  UNL     1      21.116   0.218  53.219  1.00  0.00     0.079 A 
HETATM    5  C4  UNL     1      20.053   0.043  52.367  1.00  0.00    -0.028 A 
HETATM    6  C3  UNL     1      20.197   0.330  51.030  1.00  0.00     0.016 A 
HETATM    7  C5  UNL     1      18.757  -0.453  52.887  1.00  0.00     0.051 C 
HETATM    8  C2  UNL     1      21.419   0.787  50.595  1.00  0.00    -0.061 A 
HETATM    9  C1  UNL     1      21.559   1.091  49.150  1.00  0.00     0.048 C 
HETATM   10  C21 UNL     1      22.441   0.939  51.502  1.00  0.00     0.018 A 
BRANCH   4  11
HETATM   11  O1  UNL     1      20.908  -0.082  54.551  1.00  0.00    -0.360 OA
HETATM   12  H8  UNL     1      21.326  -0.921  54.965  1.00  0.00     0.217 HD
ENDBRANCH   4  11
ENDBRANCH   2   3
ENDBRANCH   1   2
BRANCH   1  13
HETATM   13  C9  UNL     1      24.298   3.090  53.397  1.00  0.00     0.158 C 
BRANCH  13  14
HETATM   14  C10 UNL     1      23.821   3.811  52.188  1.00  0.00    -0.041 A 
HETATM   15  C11 UNL     1      22.623   4.501  52.245  1.00  0.00     0.009 A 
HETATM   16  C12 UNL     1      22.109   5.192  51.164  1.00  0.00     0.001 A 
HETATM   17  C13 UNL     1      22.803   5.205  49.973  1.00  0.00     0.000 A 
HETATM   18  C14 UNL     1      23.997   4.534  49.872  1.00  0.00     0.001 A 
HETATM   19  C15 UNL     1      24.466   3.867  50.960  1.00  0.00     0.009 A 
ENDBRANCH  13  14
ENDBRANCH   1  13
BRANCH   1  20
HETATM   20  C16 UNL     1      25.957   1.365  53.233  1.00  0.00     0.232 C 
HETATM   21  C17 UNL     1      26.184   0.092  54.061  1.00  0.00     0.090 C 
HETATM   22  C18 UNL     1      26.372  -0.990  53.100  1.00  0.00    -0.026 C 
HETATM   23  C19 UNL     1      26.648  -0.443  51.927  1.00  0.00    -0.026 C 
HETATM   24  C20 UNL     1      26.677   1.040  51.962  1.00  0.00     0.090 C 
BRANCH  20  25
HETATM   25  N2  UNL     1      26.684   2.407  53.926  1.00  0.00     0.107 N 
HETATM   26  H18 UNL     1      27.647   2.519  53.515  1.00  0.00     0.316 HD
HETATM   27  H19 UNL     1      26.190   3.302  53.817  1.00  0.00     0.316 HD
ENDBRANCH  20  25
ENDBRANCH   1  20
TORSDOF 7
ENDMDL
MODEL 8
REMARK VINA RESULT:      -7.9      2.529      5.909
REMARK  7 active torsions:
REMARK  status: ('A' for Active; 'I' for Inactive)
REMARK    1  A    between atoms: C6_6  and  O1_7 
REMARK    2  A    between atoms: C7_8  and  C8_9 
REMARK    3  A    between atoms: C8_9  and  N1_10 
REMARK    4  A    between atoms: N1_10  and  C9_11 
REMARK    5  A    between atoms: N1_10  and  C16_18 
REMARK    6  A    between atoms: C9_11  and  C10_12 
REMARK    7  A    between atoms: C16_18  and  N2_19 
ROOT
HETATM    1  N1  UNL     1      24.485   4.852  50.393  1.00  0.00    -0.371 N 
ENDROOT
BRANCH   1   2
HETATM    2  C8  UNL     1      24.320   3.460  50.259  1.00  0.00     0.161 C 
BRANCH   2   3
HETATM    3  C7  UNL     1      24.912   2.573  51.245  1.00  0.00    -0.006 A 
HETATM    4  C6  UNL     1      26.191   2.437  51.729  1.00  0.00     0.079 A 
HETATM    5  C4  UNL     1      26.622   1.508  52.644  1.00  0.00    -0.028 A 
HETATM    6  C3  UNL     1      25.731   0.599  53.162  1.00  0.00     0.016 A 
HETATM    7  C5  UNL     1      28.041   1.486  53.069  1.00  0.00     0.051 C 
HETATM    8  C2  UNL     1      24.424   0.659  52.737  1.00  0.00    -0.061 A 
HETATM    9  C1  UNL     1      23.475  -0.330  53.304  1.00  0.00     0.048 C 
HETATM   10  C21 UNL     1      24.061   1.615  51.818  1.00  0.00     0.018 A 
BRANCH   4  11
HETATM   11  O1  UNL     1      27.131   3.328  51.248  1.00  0.00    -0.360 OA
HETATM   12  H8  UNL     1      26.884   4.310  51.092  1.00  0.00     0.217 HD
ENDBRANCH   4  11
ENDBRANCH   2   3
ENDBRANCH   1   2
BRANCH   1  13
HETATM   13  C9  UNL     1      24.650   5.482  49.097  1.00  0.00     0.158 C 
BRANCH  13  14
HETATM   14  C10 UNL     1      26.062   5.848  48.813  1.00  0.00    -0.041 A 
HETATM   15  C11 UNL     1      26.393   7.183  48.660  1.00  0.00     0.009 A 
HETATM   16  C12 UNL     1      27.682   7.605  48.390  1.00  0.00     0.001 A 
HETATM   17  C13 UNL     1      28.690   6.673  48.263  1.00  0.00     0.000 A 
HETATM   18  C14 UNL     1      28.406   5.337  48.408  1.00  0.00     0.001 A 
HETATM   19  C15 UNL     1      27.124   4.966  48.674  1.00  0.00     0.009 A 
ENDBRANCH  13  14
ENDBRANCH   1  13
BRANCH   1  20
HETATM   20  C16 UNL     1      23.743   5.601  51.315  1.00  0.00     0.232 C 
HETATM   21  C17 UNL     1      22.619   6.400  50.641  1.00  0.00     0.090 C 
HETATM   22  C18 UNL     1      21.395   5.632  50.844  1.00  0.00    -0.026 C 
HETATM   23  C19 UNL     1      21.622   4.764  51.816  1.00  0.00    -0.026 C 
HETATM   24  C20 UNL     1      22.996   4.845  52.369  1.00  0.00     0.090 C 
BRANCH  20  25
HETATM   25  N2  UNL     1      24.583   6.589  51.958  1.00  0.00     0.107 N 
HETATM   26  H18 UNL     1      25.338   6.915  51.299  1.00  0.00     0.316 HD
HETATM   27  H19 UNL     1      24.016   7.407  52.215  1.00  0.00     0.316 HD
ENDBRANCH  20  25
ENDBRANCH   1  20
TORSDOF 7
ENDMDL
MODEL 9
REMARK VINA RESULT:      -7.8      2.285      5.414
REMARK  7 active torsions:
REMARK  status: ('A' for Active; 'I' for Inactive)
REMARK    1  A    between atoms: C6_6  and  O1_7 
REMARK    2  A    between atoms: C7_8  and  C8_9 
REMARK    3  A    between atoms: C8_9  and  N1_10 
REMARK    4  A    between atoms: N1_10  and  C9_11 
REMARK    5  A    between atoms: N1_10  and  C16_18 
REMARK    6  A    between atoms: C9_11  and  C10_12 
REMARK    7  A    between atoms: C16_18  and  N2_19 
ROOT
HETATM    1  N1  UNL     1      22.662   3.234  50.838  1.00  0.00    -0.371 N 
ENDROOT
BRANCH   1   2
HETATM    2  C8  UNL     1      22.414   1.850  50.894  1.00  0.00     0.161 C 
BRANCH   2   3
HETATM    3  C7  UNL     1      23.051   1.052  51.927  1.00  0.00    -0.006 A 
HETATM    4  C6  UNL     1      22.552   0.259  52.933  1.00  0.00     0.079 A 
HETATM    5  C4  UNL     1      23.285  -0.411  53.881  1.00  0.00    -0.028 A 
HETATM    6  C3  UNL     1      24.656  -0.318  53.874  1.00  0.00     0.016 A 
HETATM    7  C5  UNL     1      22.599  -1.230  54.909  1.00  0.00     0.051 C 
HETATM    8  C2  UNL     1      25.247   0.454  52.900  1.00  0.00    -0.061 A 
HETATM    9  C1  UNL     1      26.727   0.545  52.906  1.00  0.00     0.048 C 
HETATM   10  C21 UNL     1      24.453   1.098  51.981  1.00  0.00     0.018 A 
BRANCH   4  11
HETATM   11  O1  UNL     1      21.178   0.123  52.989  1.00  0.00    -0.360 OA
HETATM   12  H8  UNL     1      20.729  -0.253  53.830  1.00  0.00     0.217 HD
ENDBRANCH   4  11
ENDBRANCH   2   3
ENDBRANCH   1   2
BRANCH   1  13
HETATM   13  C9  UNL     1      22.965   3.652  49.482  1.00  0.00     0.158 C 
BRANCH  13  14
HETATM   14  C10 UNL     1      24.365   4.126  49.327  1.00  0.00    -0.041 A 
HETATM   15  C11 UNL     1      24.593   5.430  48.924  1.00  0.00     0.009 A 
HETATM   16  C12 UNL     1      25.864   5.945  48.751  1.00  0.00     0.001 A 
HETATM   17  C13 UNL     1      26.960   5.142  48.984  1.00  0.00     0.000 A 
HETATM   18  C14 UNL     1      26.780   3.842  49.386  1.00  0.00     0.001 A 
HETATM   19  C15 UNL     1      25.512   3.375  49.543  1.00  0.00     0.009 A 
ENDBRANCH  13  14
ENDBRANCH   1  13
BRANCH   1  20
HETATM   20  C16 UNL     1      21.907   4.153  51.577  1.00  0.00     0.232 C 
HETATM   21  C17 UNL     1      21.200   5.177  50.677  1.00  0.00     0.090 C 
HETATM   22  C18 UNL     1      19.822   4.718  50.544  1.00  0.00    -0.026 C 
HETATM   23  C19 UNL     1      19.594   3.841  51.508  1.00  0.00    -0.026 C 
HETATM   24  C20 UNL     1      20.769   3.614  52.385  1.00  0.00     0.090 C 
BRANCH  20  25
HETATM   25  N2  UNL     1      22.765   4.933  52.443  1.00  0.00     0.107 N 
HETATM   26  H18 UNL     1      23.498   5.436  51.878  1.00  0.00     0.316 HD
HETATM   27  H19 UNL     1      22.205   5.643  52.934  1.00  0.00     0.316 HD
ENDBRANCH  20  25
ENDBRANCH   1  20
TORSDOF 7
ENDMDL
