MODEL 1
REMARK VINA RESULT:      -5.9      0.000      0.000
REMARK  8 active torsions:
REMARK  status: ('A' for Active; 'I' for Inactive)
REMARK    1  A    between atoms: C2_2  and  C3_3 
REMARK    2  A    between atoms: C2_2  and  C15_21 
REMARK    3  A    between atoms: C3_3  and  C4_4 
REMARK    4  A    between atoms: N2_10  and  C8_11 
REMARK    5  A    between atoms: C8_11  and  N3_12 
REMARK    6  A    between atoms: N3_12  and  C9_13 
REMARK    7  A    between atoms: C9_13  and  C11_15 
REMARK    8  A    between atoms: C11_15  and  C12_16 
ROOT
HETATM    1  C12 UNL     1      27.633   6.171  48.506  1.00  0.00     0.014 C 
HETATM    2  C13 UNL     1      28.787   6.533  47.986  1.00  0.00     0.217 C 
HETATM    3 CL1  UNL     1      30.360   6.851  47.286  1.00  0.00    -0.230 Cl
ENDROOT
BRANCH   1   4
HETATM    4  C11 UNL     1      27.332   4.769  48.686  1.00  0.00     0.025 C 
BRANCH   4   5
HETATM    5  C9  UNL     1      26.385   4.496  49.558  1.00  0.00     0.002 C 
HETATM    6  C10 UNL     1      26.603   3.314  50.444  1.00  0.00     0.068 C 
BRANCH   5   7
HETATM    7  N3  UNL     1      25.238   5.329  49.594  1.00  0.00    -0.375 N 
HETATM    8  H9  UNL     1      25.357   6.170  50.225  1.00  0.00     0.161 HD
BRANCH   7   9
HETATM    9  C8  UNL     1      24.044   5.032  48.841  1.00  0.00     0.272 C 
BRANCH   9  10
HETATM   10  N2  UNL     1      23.654   3.648  49.015  1.00  0.00    -0.254 NA
HETATM   11  C7  UNL     1      22.882   3.379  50.010  1.00  0.00     0.142 C 
HETATM   12  N1  UNL     1      22.453   4.429  50.878  1.00  0.00    -0.221 NA
HETATM   13  C14 UNL     1      22.589   1.903  50.030  1.00  0.00     0.199 C 
HETATM   14  C6  UNL     1      21.642   4.582  51.869  1.00  0.00     0.253 C 
HETATM   15  O1  UNL     1      20.775   3.774  52.582  1.00  0.00    -0.339 OA
HETATM   16  C5  UNL     1      20.222   2.510  52.385  1.00  0.00     0.233 C 
HETATM   17  C4  UNL     1      21.352   1.507  52.417  1.00  0.00     0.030 C 
HETATM   18  N4  UNL     1      22.417   1.498  51.431  1.00  0.00    -0.384 N 
HETATM   19  H18 UNL     1      23.352   1.107  51.760  1.00  0.00     0.159 HD
BRANCH  17  20
HETATM   20  C3  UNL     1      21.542   0.544  53.294  1.00  0.00     0.033 C 
BRANCH  20  21
HETATM   21  C2  UNL     1      22.083  -0.634  53.996  1.00  0.00    -0.066 C 
HETATM   22  C1  UNL     1      21.380  -1.762  54.238  1.00  0.00     0.019 C 
BRANCH  21  23
HETATM   23  C15 UNL     1      23.503  -0.531  54.450  1.00  0.00     0.033 C 
HETATM   24  C16 UNL     1      24.498  -0.697  53.349  1.00  0.00     0.010 C 
ENDBRANCH  21  23
ENDBRANCH  20  21
ENDBRANCH  17  20
ENDBRANCH   9  10
ENDBRANCH   7   9
ENDBRANCH   5   7
ENDBRANCH   4   5
ENDBRANCH   1   4
TORSDOF 8
ENDMDL
MODEL 2
REMARK VINA RESULT:      -5.8      2.040      2.868
REMARK  8 active torsions:
REMARK  status: ('A' for Active; 'I' for Inactive)
REMARK    1  A    between atoms: C2_2  and  C3_3 
REMARK    2  A    between atoms: C2_2  and  C15_21 
REMARK    3  A    between atoms: C3_3  and  C4_4 
REMARK    4  A    between atoms: N2_10  and  C8_11 
REMARK    5  A    between atoms: C8_11  and  N3_12 
REMARK    6  A    between atoms: N3_12  and  C9_13 
REMARK    7  A    between atoms: C9_13  and  C11_15 
REMARK    8  A    between atoms: C11_15  and  C12_16 
ROOT
HETATM    1  C12 UNL     1      29.349   9.240  49.304  1.00  0.00     0.014 C 
HETATM    2  C13 UNL     1      30.611   8.866  49.289  1.00  0.00     0.217 C 
HETATM    3 CL1  UNL     1      32.249   8.266  49.140  1.00  0.00    -0.230 Cl
ENDROOT
BRANCH   1   4
HETATM    4  C11 UNL     1      28.421   8.687  48.344  1.00  0.00     0.025 C 
BRANCH   4   5
HETATM    5  C9  UNL     1      28.081   7.431  48.539  1.00  0.00     0.002 C 
HETATM    6  C10 UNL     1      28.858   6.396  47.792  1.00  0.00     0.068 C 
BRANCH   5   7
HETATM    7  N3  UNL     1      27.013   7.149  49.429  1.00  0.00    -0.375 N 
HETATM    8  H9  UNL     1      27.301   7.191  50.447  1.00  0.00     0.161 HD
BRANCH   7   9
HETATM    9  C8  UNL     1      25.684   6.836  48.965  1.00  0.00     0.272 C 
BRANCH   9  10
HETATM   10  N2  UNL     1      25.494   5.403  48.870  1.00  0.00    -0.254 NA
HETATM   11  C7  UNL     1      24.867   4.832  49.838  1.00  0.00     0.142 C 
HETATM   12  N1  UNL     1      24.397   5.612  50.938  1.00  0.00    -0.221 NA
HETATM   13  C14 UNL     1      24.769   3.355  49.565  1.00  0.00     0.199 C 
HETATM   14  C6  UNL     1      23.677   5.444  51.994  1.00  0.00     0.253 C 
HETATM   15  O1  UNL     1      22.997   4.392  52.581  1.00  0.00    -0.339 OA
HETATM   16  C5  UNL     1      22.593   3.126  52.161  1.00  0.00     0.233 C 
HETATM   17  C4  UNL     1      23.839   2.313  51.898  1.00  0.00     0.030 C 
HETATM   18  N4  UNL     1      24.792   2.657  50.858  1.00  0.00    -0.384 N 
HETATM   19  H18 UNL     1      25.797   2.349  51.028  1.00  0.00     0.159 HD
BRANCH  17  20
HETATM   20  C3  UNL     1      24.238   1.233  52.534  1.00  0.00     0.033 C 
BRANCH  20  21
HETATM   21  C2  UNL     1      24.253  -0.073  53.219  1.00  0.00    -0.066 C 
HETATM   22  C1  UNL     1      23.158  -0.673  53.734  1.00  0.00     0.019 C 
BRANCH  21  23
HETATM   23  C15 UNL     1      25.586  -0.742  53.326  1.00  0.00     0.033 C 
HETATM   24  C16 UNL     1      26.558  -0.313  52.276  1.00  0.00     0.010 C 
ENDBRANCH  21  23
ENDBRANCH  20  21
ENDBRANCH  17  20
ENDBRANCH   9  10
ENDBRANCH   7   9
ENDBRANCH   5   7
ENDBRANCH   4   5
ENDBRANCH   1   4
TORSDOF 8
ENDMDL
MODEL 3
REMARK VINA RESULT:      -5.8      2.359      3.537
REMARK  8 active torsions:
REMARK  status: ('A' for Active; 'I' for Inactive)
REMARK    1  A    between atoms: C2_2  and  C3_3 
REMARK    2  A    between atoms: C2_2  and  C15_21 
REMARK    3  A    between atoms: C3_3  and  C4_4 
REMARK    4  A    between atoms: N2_10  and  C8_11 
REMARK    5  A    between atoms: C8_11  and  N3_12 
REMARK    6  A    between atoms: N3_12  and  C9_13 
REMARK    7  A    between atoms: C9_13  and  C11_15 
REMARK    8  A    between atoms: C11_15  and  C12_16 
ROOT
HETATM    1  C12 UNL     1      29.796   8.043  48.919  1.00  0.00     0.014 C 
HETATM    2  C13 UNL     1      29.977   9.347  48.973  1.00  0.00     0.217 C 
HETATM    3 CL1  UNL     1      30.131  11.089  48.898  1.00  0.00    -0.230 Cl
ENDROOT
BRANCH   1   4
HETATM    4  C11 UNL     1      29.055   7.463  47.823  1.00  0.00     0.025 C 
BRANCH   4   5
HETATM    5  C9  UNL     1      27.778   7.240  48.052  1.00  0.00     0.002 C 
HETATM    6  C10 UNL     1      26.800   7.947  47.172  1.00  0.00     0.068 C 
BRANCH   5   7
HETATM    7  N3  UNL     1      27.423   6.359  49.106  1.00  0.00    -0.375 N 
HETATM    8  H9  UNL     1      27.627   6.759  50.065  1.00  0.00     0.161 HD
BRANCH   7   9
HETATM    9  C8  UNL     1      26.851   5.058  48.865  1.00  0.00     0.272 C 
BRANCH   9  10
HETATM   10  N2  UNL     1      25.562   4.931  49.512  1.00  0.00    -0.254 NA
HETATM   11  C7  UNL     1      25.444   4.005  50.399  1.00  0.00     0.142 C 
HETATM   12  N1  UNL     1      26.558   3.165  50.701  1.00  0.00    -0.221 NA
HETATM   13  C14 UNL     1      24.045   4.025  50.955  1.00  0.00     0.199 C 
HETATM   14  C6  UNL     1      26.860   2.242  51.550  1.00  0.00     0.253 C 
HETATM   15  O1  UNL     1      26.227   1.611  52.605  1.00  0.00    -0.339 OA
HETATM   16  C5  UNL     1      25.083   1.865  53.360  1.00  0.00     0.233 C 
HETATM   17  C4  UNL     1      23.892   1.751  52.437  1.00  0.00     0.030 C 
HETATM   18  N4  UNL     1      23.685   2.646  51.313  1.00  0.00    -0.384 N 
HETATM   19  H18 UNL     1      23.133   2.246  50.496  1.00  0.00     0.159 HD
BRANCH  17  20
HETATM   20  C3  UNL     1      22.915   0.871  52.498  1.00  0.00     0.033 C 
BRANCH  20  21
HETATM   21  C2  UNL     1      21.592   0.247  52.683  1.00  0.00    -0.066 C 
HETATM   22  C1  UNL     1      20.660   0.142  51.711  1.00  0.00     0.019 C 
BRANCH  21  23
HETATM   23  C15 UNL     1      21.308  -0.294  54.047  1.00  0.00     0.033 C 
HETATM   24  C16 UNL     1      22.486  -0.946  54.692  1.00  0.00     0.010 C 
ENDBRANCH  21  23
ENDBRANCH  20  21
ENDBRANCH  17  20
ENDBRANCH   9  10
ENDBRANCH   7   9
ENDBRANCH   5   7
ENDBRANCH   4   5
ENDBRANCH   1   4
TORSDOF 8
ENDMDL
MODEL 4
REMARK VINA RESULT:      -5.6      1.995      2.415
REMARK  8 active torsions:
REMARK  status: ('A' for Active; 'I' for Inactive)
REMARK    1  A    between atoms: C2_2  and  C3_3 
REMARK    2  A    between atoms: C2_2  and  C15_21 
REMARK    3  A    between atoms: C3_3  and  C4_4 
REMARK    4  A    between atoms: N2_10  and  C8_11 
REMARK    5  A    between atoms: C8_11  and  N3_12 
REMARK    6  A    between atoms: N3_12  and  C9_13 
REMARK    7  A    between atoms: C9_13  and  C11_15 
REMARK    8  A    between atoms: C11_15  and  C12_16 
ROOT
HETATM    1  C12 UNL     1      25.719   4.036  49.522  1.00  0.00     0.014 C 
HETATM    2  C13 UNL     1      26.307   3.292  50.437  1.00  0.00     0.217 C 
HETATM    3 CL1  UNL     1      27.117   2.447  51.738  1.00  0.00    -0.230 Cl
ENDROOT
BRANCH   1   4
HETATM    4  C11 UNL     1      25.627   5.466  49.706  1.00  0.00     0.025 C 
BRANCH   4   5
HETATM    5  C9  UNL     1      24.466   6.006  49.407  1.00  0.00     0.002 C 
HETATM    6  C10 UNL     1      23.891   6.965  50.399  1.00  0.00     0.068 C 
BRANCH   5   7
HETATM    7  N3  UNL     1      23.845   5.644  48.184  1.00  0.00    -0.375 N 
HETATM    8  H9  UNL     1      24.463   5.811  47.342  1.00  0.00     0.161 HD
BRANCH   7   9
HETATM    9  C8  UNL     1      22.506   5.112  48.127  1.00  0.00     0.272 C 
BRANCH   9  10
HETATM   10  N2  UNL     1      22.495   3.700  48.447  1.00  0.00    -0.254 NA
HETATM   11  C7  UNL     1      21.977   3.361  49.575  1.00  0.00     0.142 C 
HETATM   12  N1  UNL     1      21.446   4.364  50.442  1.00  0.00    -0.221 NA
HETATM   13  C14 UNL     1      22.058   1.866  49.733  1.00  0.00     0.199 C 
HETATM   14  C6  UNL     1      20.787   4.424  51.549  1.00  0.00     0.253 C 
HETATM   15  O1  UNL     1      20.264   3.513  52.449  1.00  0.00    -0.339 OA
HETATM   16  C5  UNL     1      20.011   2.143  52.426  1.00  0.00     0.233 C 
HETATM   17  C4  UNL     1      21.341   1.434  52.319  1.00  0.00     0.030 C 
HETATM   18  N4  UNL     1      22.210   1.572  51.164  1.00  0.00    -0.384 N 
HETATM   19  H18 UNL     1      23.251   1.441  51.347  1.00  0.00     0.159 HD
BRANCH  17  20
HETATM   20  C3  UNL     1      21.893   0.632  53.204  1.00  0.00     0.033 C 
BRANCH  20  21
HETATM   21  C2  UNL     1      22.442  -0.562  53.873  1.00  0.00    -0.066 C 
HETATM   22  C1  UNL     1      21.711  -1.411  54.628  1.00  0.00     0.019 C 
BRANCH  21  23
HETATM   23  C15 UNL     1      23.902  -0.812  53.675  1.00  0.00     0.033 C 
HETATM   24  C16 UNL     1      24.704   0.434  53.488  1.00  0.00     0.010 C 
ENDBRANCH  21  23
ENDBRANCH  20  21
ENDBRANCH  17  20
ENDBRANCH   9  10
ENDBRANCH   7   9
ENDBRANCH   5   7
ENDBRANCH   4   5
ENDBRANCH   1   4
TORSDOF 8
ENDMDL
MODEL 5
REMARK VINA RESULT:      -5.5      2.445      3.900
REMARK  8 active torsions:
REMARK  status: ('A' for Active; 'I' for Inactive)
REMARK    1  A    between atoms: C2_2  and  C3_3 
REMARK    2  A    between atoms: C2_2  and  C15_21 
REMARK    3  A    between atoms: C3_3  and  C4_4 
REMARK    4  A    between atoms: N2_10  and  C8_11 
REMARK    5  A    between atoms: C8_11  and  N3_12 
REMARK    6  A    between atoms: N3_12  and  C9_13 
REMARK    7  A    between atoms: C9_13  and  C11_15 
REMARK    8  A    between atoms: C11_15  and  C12_16 
ROOT
HETATM    1  C12 UNL     1      28.897   8.797  45.979  1.00  0.00     0.014 C 
HETATM    2  C13 UNL     1      27.742   9.422  46.080  1.00  0.00     0.217 C 
HETATM    3 CL1  UNL     1      26.160  10.133  46.325  1.00  0.00    -0.230 Cl
ENDROOT
BRANCH   1   4
HETATM    4  C11 UNL     1      29.138   7.598  46.749  1.00  0.00     0.025 C 
BRANCH   4   5
HETATM    5  C9  UNL     1      29.427   7.785  48.019  1.00  0.00     0.002 C 
HETATM    6  C10 UNL     1      30.669   8.557  48.323  1.00  0.00     0.068 C 
BRANCH   5   7
HETATM    7  N3  UNL     1      28.554   7.246  48.999  1.00  0.00    -0.375 N 
HETATM    8  H9  UNL     1      28.948   7.303  49.979  1.00  0.00     0.161 HD
BRANCH   7   9
HETATM    9  C8  UNL     1      27.272   6.679  48.661  1.00  0.00     0.272 C 
BRANCH   9  10
HETATM   10  N2  UNL     1      27.309   5.233  48.736  1.00  0.00    -0.254 NA
HETATM   11  C7  UNL     1      26.370   4.659  49.403  1.00  0.00     0.142 C 
HETATM   12  N1  UNL     1      25.357   5.449  50.027  1.00  0.00    -0.221 NA
HETATM   13  C14 UNL     1      26.576   3.168  49.371  1.00  0.00     0.199 C 
HETATM   14  C6  UNL     1      24.250   5.261  50.661  1.00  0.00     0.253 C 
HETATM   15  O1  UNL     1      23.496   4.169  51.051  1.00  0.00    -0.339 OA
HETATM   16  C5  UNL     1      23.480   2.816  50.717  1.00  0.00     0.233 C 
HETATM   17  C4  UNL     1      24.786   2.215  51.181  1.00  0.00     0.030 C 
HETATM   18  N4  UNL     1      26.070   2.617  50.635  1.00  0.00    -0.384 N 
HETATM   19  H18 UNL     1      26.905   2.511  51.287  1.00  0.00     0.159 HD
BRANCH  17  20
HETATM   20  C3  UNL     1      24.958   1.291  52.102  1.00  0.00     0.033 C 
BRANCH  20  21
HETATM   21  C2  UNL     1      24.713   0.215  53.081  1.00  0.00    -0.066 C 
HETATM   22  C1  UNL     1      23.500  -0.078  53.598  1.00  0.00     0.019 C 
BRANCH  21  23
HETATM   23  C15 UNL     1      25.910  -0.577  53.497  1.00  0.00     0.033 C 
HETATM   24  C16 UNL     1      27.045  -0.503  52.529  1.00  0.00     0.010 C 
ENDBRANCH  21  23
ENDBRANCH  20  21
ENDBRANCH  17  20
ENDBRANCH   9  10
ENDBRANCH   7   9
ENDBRANCH   5   7
ENDBRANCH   4   5
ENDBRANCH   1   4
TORSDOF 8
ENDMDL
MODEL 6
REMARK VINA RESULT:      -5.4      3.418      8.025
REMARK  8 active torsions:
REMARK  status: ('A' for Active; 'I' for Inactive)
REMARK    1  A    between atoms: C2_2  and  C3_3 
REMARK    2  A    between atoms: C2_2  and  C15_21 
REMARK    3  A    between atoms: C3_3  and  C4_4 
REMARK    4  A    between atoms: N2_10  and  C8_11 
REMARK    5  A    between atoms: C8_11  and  N3_12 
REMARK    6  A    between atoms: N3_12  and  C9_13 
REMARK    7  A    between atoms: C9_13  and  C11_15 
REMARK    8  A    between atoms: C11_15  and  C12_16 
ROOT
HETATM    1  C12 UNL     1      21.541  -1.127  54.633  1.00  0.00     0.014 C 
HETATM    2  C13 UNL     1      22.751  -1.316  55.117  1.00  0.00     0.217 C 
HETATM    3 CL1  UNL     1      24.387  -1.401  55.734  1.00  0.00    -0.230 Cl
ENDROOT
BRANCH   1   4
HETATM    4  C11 UNL     1      21.129   0.193  54.213  1.00  0.00     0.025 C 
BRANCH   4   5
HETATM    5  C9  UNL     1      20.800   0.311  52.945  1.00  0.00     0.002 C 
HETATM    6  C10 UNL     1      19.361   0.109  52.599  1.00  0.00     0.068 C 
BRANCH   5   7
HETATM    7  N3  UNL     1      21.819   0.614  52.006  1.00  0.00    -0.375 N 
HETATM    8  H9  UNL     1      21.459   0.687  51.014  1.00  0.00     0.161 HD
BRANCH   7   9
HETATM    9  C8  UNL     1      23.197   0.792  52.394  1.00  0.00     0.272 C 
BRANCH   9  10
HETATM   10  N2  UNL     1      23.494   2.191  52.622  1.00  0.00    -0.254 NA
HETATM   11  C7  UNL     1      23.558   2.950  51.585  1.00  0.00     0.142 C 
HETATM   12  N1  UNL     1      23.338   2.399  50.286  1.00  0.00    -0.221 NA
HETATM   13  C14 UNL     1      23.876   4.357  52.017  1.00  0.00     0.199 C 
HETATM   14  C6  UNL     1      23.219   2.820  49.073  1.00  0.00     0.253 C 
HETATM   15  O1  UNL     1      23.248   4.048  48.437  1.00  0.00    -0.339 OA
HETATM   16  C5  UNL     1      23.175   5.375  48.855  1.00  0.00     0.233 C 
HETATM   17  C4  UNL     1      24.403   5.659  49.690  1.00  0.00     0.030 C 
HETATM   18  N4  UNL     1      24.665   4.987  50.950  1.00  0.00    -0.384 N 
HETATM   19  H18 UNL     1      25.690   4.892  51.221  1.00  0.00     0.159 HD
BRANCH  17  20
HETATM   20  C3  UNL     1      25.374   6.505  49.420  1.00  0.00     0.033 C 
BRANCH  20  21
HETATM   21  C2  UNL     1      26.233   7.703  49.403  1.00  0.00    -0.066 C 
HETATM   22  C1  UNL     1      25.886   8.894  49.938  1.00  0.00     0.019 C 
BRANCH  21  23
HETATM   23  C15 UNL     1      27.566   7.545  48.746  1.00  0.00     0.033 C 
HETATM   24  C16 UNL     1      27.841   6.154  48.274  1.00  0.00     0.010 C 
ENDBRANCH  21  23
ENDBRANCH  20  21
ENDBRANCH  17  20
ENDBRANCH   9  10
ENDBRANCH   7   9
ENDBRANCH   5   7
ENDBRANCH   4   5
ENDBRANCH   1   4
TORSDOF 8
ENDMDL
MODEL 7
REMARK VINA RESULT:      -5.4      4.751      7.302
REMARK  8 active torsions:
REMARK  status: ('A' for Active; 'I' for Inactive)
REMARK    1  A    between atoms: C2_2  and  C3_3 
REMARK    2  A    between atoms: C2_2  and  C15_21 
REMARK    3  A    between atoms: C3_3  and  C4_4 
REMARK    4  A    between atoms: N2_10  and  C8_11 
REMARK    5  A    between atoms: C8_11  and  N3_12 
REMARK    6  A    between atoms: N3_12  and  C9_13 
REMARK    7  A    between atoms: C9_13  and  C11_15 
REMARK    8  A    between atoms: C11_15  and  C12_16 
ROOT
HETATM    1  C12 UNL     1      28.099  13.601  48.229  1.00  0.00     0.014 C 
HETATM    2  C13 UNL     1      26.895  14.134  48.179  1.00  0.00     0.217 C 
HETATM    3 CL1  UNL     1      25.237  14.694  48.173  1.00  0.00    -0.230 Cl
ENDROOT
BRANCH   1   4
HETATM    4  C11 UNL     1      28.271  12.253  48.717  1.00  0.00     0.025 C 
BRANCH   4   5
HETATM    5  C9  UNL     1      29.495  11.775  48.655  1.00  0.00     0.002 C 
HETATM    6  C10 UNL     1      30.588  12.647  49.183  1.00  0.00     0.068 C 
BRANCH   5   7
HETATM    7  N3  UNL     1      29.692  10.487  48.096  1.00  0.00    -0.375 N 
HETATM    8  H9  UNL     1      29.357  10.415  47.095  1.00  0.00     0.161 HD
BRANCH   7   9
HETATM    9  C8  UNL     1      30.285   9.404  48.841  1.00  0.00     0.272 C 
BRANCH   9  10
HETATM   10  N2  UNL     1      29.757   8.127  48.409  1.00  0.00    -0.254 NA
HETATM   11  C7  UNL     1      28.553   7.843  48.765  1.00  0.00     0.142 C 
HETATM   12  N1  UNL     1      27.807   8.774  49.550  1.00  0.00    -0.221 NA
HETATM   13  C14 UNL     1      28.182   6.486  48.230  1.00  0.00     0.199 C 
HETATM   14  C6  UNL     1      26.604   8.903  49.998  1.00  0.00     0.253 C 
HETATM   15  O1  UNL     1      25.430   8.176  49.927  1.00  0.00    -0.339 OA
HETATM   16  C5  UNL     1      24.974   7.119  49.142  1.00  0.00     0.233 C 
HETATM   17  C4  UNL     1      25.827   5.912  49.460  1.00  0.00     0.030 C 
HETATM   18  N4  UNL     1      27.251   5.867  49.183  1.00  0.00    -0.384 N 
HETATM   19  H18 UNL     1      27.827   5.232  49.814  1.00  0.00     0.159 HD
BRANCH  17  20
HETATM   20  C3  UNL     1      25.439   4.782  50.011  1.00  0.00     0.033 C 
BRANCH  20  21
HETATM   21  C2  UNL     1      25.418   3.399  50.521  1.00  0.00    -0.066 C 
HETATM   22  C1  UNL     1      26.524   2.660  50.756  1.00  0.00     0.019 C 
BRANCH  21  23
HETATM   23  C15 UNL     1      24.066   2.818  50.784  1.00  0.00     0.033 C 
HETATM   24  C16 UNL     1      24.100   1.558  51.586  1.00  0.00     0.010 C 
ENDBRANCH  21  23
ENDBRANCH  20  21
ENDBRANCH  17  20
ENDBRANCH   9  10
ENDBRANCH   7   9
ENDBRANCH   5   7
ENDBRANCH   4   5
ENDBRANCH   1   4
TORSDOF 8
ENDMDL
MODEL 8
REMARK VINA RESULT:      -5.4      3.094      4.214
REMARK  8 active torsions:
REMARK  status: ('A' for Active; 'I' for Inactive)
REMARK    1  A    between atoms: C2_2  and  C3_3 
REMARK    2  A    between atoms: C2_2  and  C15_21 
REMARK    3  A    between atoms: C3_3  and  C4_4 
REMARK    4  A    between atoms: N2_10  and  C8_11 
REMARK    5  A    between atoms: C8_11  and  N3_12 
REMARK    6  A    between atoms: N3_12  and  C9_13 
REMARK    7  A    between atoms: C9_13  and  C11_15 
REMARK    8  A    between atoms: C11_15  and  C12_16 
ROOT
HETATM    1  C12 UNL     1      27.399  10.391  48.868  1.00  0.00     0.014 C 
HETATM    2  C13 UNL     1      28.668  10.162  49.133  1.00  0.00     0.217 C 
HETATM    3 CL1  UNL     1      30.344   9.721  49.383  1.00  0.00    -0.230 Cl
ENDROOT
BRANCH   1   4
HETATM    4  C11 UNL     1      26.676   9.509  47.982  1.00  0.00     0.025 C 
BRANCH   4   5
HETATM    5  C9  UNL     1      25.833   8.682  48.562  1.00  0.00     0.002 C 
HETATM    6  C10 UNL     1      24.450   9.191  48.811  1.00  0.00     0.068 C 
BRANCH   5   7
HETATM    7  N3  UNL     1      26.288   7.385  48.912  1.00  0.00    -0.375 N 
HETATM    8  H9  UNL     1      27.337   7.278  48.821  1.00  0.00     0.161 HD
BRANCH   7   9
HETATM    9  C8  UNL     1      25.390   6.341  49.337  1.00  0.00     0.272 C 
BRANCH   9  10
HETATM   10  N2  UNL     1      26.017   5.040  49.223  1.00  0.00    -0.254 NA
HETATM   11  C7  UNL     1      25.628   4.130  50.045  1.00  0.00     0.142 C 
HETATM   12  N1  UNL     1      24.619   4.431  51.011  1.00  0.00    -0.221 NA
HETATM   13  C14 UNL     1      26.387   2.858  49.777  1.00  0.00     0.199 C 
HETATM   14  C6  UNL     1      23.921   3.803  51.895  1.00  0.00     0.253 C 
HETATM   15  O1  UNL     1      23.815   2.497  52.338  1.00  0.00    -0.339 OA
HETATM   16  C5  UNL     1      24.237   1.258  51.860  1.00  0.00     0.233 C 
HETATM   17  C4  UNL     1      25.748   1.252  51.875  1.00  0.00     0.030 C 
HETATM   18  N4  UNL     1      26.541   2.150  51.055  1.00  0.00    -0.384 N 
HETATM   19  H18 UNL     1      27.503   2.400  51.436  1.00  0.00     0.159 HD
BRANCH  17  20
HETATM   20  C3  UNL     1      26.537   0.485  52.596  1.00  0.00     0.033 C 
BRANCH  20  21
HETATM   21  C2  UNL     1      27.379  -0.637  53.049  1.00  0.00    -0.066 C 
HETATM   22  C1  UNL     1      27.193  -1.923  52.680  1.00  0.00     0.019 C 
BRANCH  21  23
HETATM   23  C15 UNL     1      28.501  -0.284  53.972  1.00  0.00     0.033 C 
HETATM   24  C16 UNL     1      29.799  -0.928  53.611  1.00  0.00     0.010 C 
ENDBRANCH  21  23
ENDBRANCH  20  21
ENDBRANCH  17  20
ENDBRANCH   9  10
ENDBRANCH   7   9
ENDBRANCH   5   7
ENDBRANCH   4   5
ENDBRANCH   1   4
TORSDOF 8
ENDMDL
MODEL 9
REMARK VINA RESULT:      -5.3     17.483     20.117
REMARK  8 active torsions:
REMARK  status: ('A' for Active; 'I' for Inactive)
REMARK    1  A    between atoms: C2_2  and  C3_3 
REMARK    2  A    between atoms: C2_2  and  C15_21 
REMARK    3  A    between atoms: C3_3  and  C4_4 
REMARK    4  A    between atoms: N2_10  and  C8_11 
REMARK    5  A    between atoms: C8_11  and  N3_12 
REMARK    6  A    between atoms: N3_12  and  C9_13 
REMARK    7  A    between atoms: C9_13  and  C11_15 
REMARK    8  A    between atoms: C11_15  and  C12_16 
ROOT
HETATM    1  C12 UNL     1      42.816   4.783  55.437  1.00  0.00     0.014 C 
HETATM    2  C13 UNL     1      43.704   3.811  55.390  1.00  0.00     0.217 C 
HETATM    3 CL1  UNL     1      45.004   2.640  55.334  1.00  0.00    -0.230 Cl
ENDROOT
BRANCH   1   4
HETATM    4  C11 UNL     1      43.254   6.157  55.523  1.00  0.00     0.025 C 
BRANCH   4   5
HETATM    5  C9  UNL     1      42.298   7.055  55.616  1.00  0.00     0.002 C 
HETATM    6  C10 UNL     1      42.566   8.240  56.486  1.00  0.00     0.068 C 
BRANCH   5   7
HETATM    7  N3  UNL     1      41.094   6.840  54.897  1.00  0.00    -0.375 N 
HETATM    8  H9  UNL     1      40.549   6.003  55.246  1.00  0.00     0.161 HD
BRANCH   7   9
HETATM    9  C8  UNL     1      40.686   7.689  53.805  1.00  0.00     0.272 C 
BRANCH   9  10
HETATM   10  N2  UNL     1      41.802   7.980  52.930  1.00  0.00    -0.254 NA
HETATM   11  C7  UNL     1      41.524   8.303  51.716  1.00  0.00     0.142 C 
HETATM   12  N1  UNL     1      40.161   8.359  51.291  1.00  0.00    -0.221 NA
HETATM   13  C14 UNL     1      42.801   8.565  50.964  1.00  0.00     0.199 C 
HETATM   14  C6  UNL     1      39.496   8.720  50.246  1.00  0.00     0.253 C 
HETATM   15  O1  UNL     1      39.800   9.241  49.002  1.00  0.00    -0.339 OA
HETATM   16  C5  UNL     1      40.928   9.827  48.429  1.00  0.00     0.233 C 
HETATM   17  C4  UNL     1      42.011   8.774  48.371  1.00  0.00     0.030 C 
HETATM   18  N4  UNL     1      42.586   8.178  49.563  1.00  0.00    -0.384 N 
HETATM   19  H18 UNL     1      42.965   7.189  49.451  1.00  0.00     0.159 HD
BRANCH  17  20
HETATM   20  C3  UNL     1      42.566   8.258  47.296  1.00  0.00     0.033 C 
BRANCH  20  21
HETATM   21  C2  UNL     1      42.882   7.929  45.894  1.00  0.00    -0.066 C 
HETATM   22  C1  UNL     1      42.732   6.702  45.350  1.00  0.00     0.019 C 
BRANCH  21  23
HETATM   23  C15 UNL     1      43.394   9.056  45.056  1.00  0.00     0.033 C 
HETATM   24  C16 UNL     1      43.058   8.927  43.606  1.00  0.00     0.010 C 
ENDBRANCH  21  23
ENDBRANCH  20  21
ENDBRANCH  17  20
ENDBRANCH   9  10
ENDBRANCH   7   9
ENDBRANCH   5   7
ENDBRANCH   4   5
ENDBRANCH   1   4
TORSDOF 8
ENDMDL
