MODEL 1
REMARK VINA RESULT:      -7.5      0.000      0.000
REMARK  5 active torsions:
REMARK  status: ('A' for Active; 'I' for Inactive)
REMARK    1  A    between atoms: O1_2  and  C2_3 
REMARK    2  A    between atoms: C2_3  and  O2_20 
REMARK    3  A    between atoms: C3_4  and  C4_5 
REMARK    4  A    between atoms: C8_11  and  N3_12 
REMARK    5  A    between atoms: N3_12  and  C9_13 
ROOT
HETATM    1  C4  UNL     1      22.741  -0.151  53.174  1.00  0.00     0.039 A 
HETATM    2  C5  UNL     1      21.735  -0.639  53.971  1.00  0.00     0.046 A 
HETATM    3  C6  UNL     1      20.285  -0.537  53.689  1.00  0.00     0.071 C 
HETATM    4  N1  UNL     1      22.015  -1.264  55.137  1.00  0.00    -0.246 NA
HETATM    5  C7  UNL     1      23.289  -1.416  55.535  1.00  0.00     0.235 A 
HETATM    6  N2  UNL     1      24.255  -0.933  54.746  1.00  0.00    -0.224 NA
HETATM    7  C8  UNL     1      24.066  -0.308  53.588  1.00  0.00     0.141 A 
ENDROOT
BRANCH   7   8
HETATM    8  N3  UNL     1      25.087   0.189  52.759  1.00  0.00    -0.340 N 
HETATM    9  H9  UNL     1      24.883   0.337  51.744  1.00  0.00     0.167 HD
BRANCH   8  10
HETATM   10  C9  UNL     1      26.424   0.545  53.078  1.00  0.00     0.034 A 
HETATM   11  C10 UNL     1      26.833   1.864  53.303  1.00  0.00     0.029 A 
HETATM   12  C11 UNL     1      28.126   2.190  53.609  1.00  0.00     0.003 A 
HETATM   13  C12 UNL     1      29.100   1.225  53.711  1.00  0.00     0.007 A 
HETATM   14  C13 UNL     1      28.750  -0.077  53.501  1.00  0.00    -0.060 A 
HETATM   15  C14 UNL     1      29.833  -1.077  53.623  1.00  0.00     0.048 C 
HETATM   16  C15 UNL     1      27.455  -0.368  53.198  1.00  0.00     0.036 A 
ENDBRANCH   8  10
ENDBRANCH   7   8
BRANCH   1  17
HETATM   17  C3  UNL     1      22.407   0.485  51.908  1.00  0.00     0.081 C 
HETATM   18  C2  UNL     1      22.564   1.686  51.371  1.00  0.00     0.180 C 
BRANCH  18  19
HETATM   19  O1  UNL     1      22.102   1.932  50.089  1.00  0.00    -0.336 OA
HETATM   20  C1  UNL     1      21.397   1.020  49.282  1.00  0.00     0.212 C 
ENDBRANCH  18  19
BRANCH  18  21
HETATM   21  O2  UNL     1      23.173   2.697  52.058  1.00  0.00    -0.336 OA
HETATM   22  C16 UNL     1      24.078   3.631  51.536  1.00  0.00     0.212 C 
ENDBRANCH  18  21
ENDBRANCH   1  17
TORSDOF 5
ENDMDL
MODEL 2
REMARK VINA RESULT:      -7.2      2.640      5.080
REMARK  5 active torsions:
REMARK  status: ('A' for Active; 'I' for Inactive)
REMARK    1  A    between atoms: O1_2  and  C2_3 
REMARK    2  A    between atoms: C2_3  and  O2_20 
REMARK    3  A    between atoms: C3_4  and  C4_5 
REMARK    4  A    between atoms: C8_11  and  N3_12 
REMARK    5  A    between atoms: N3_12  and  C9_13 
ROOT
HETATM    1  C4  UNL     1      23.924   0.260  53.183  1.00  0.00     0.039 A 
HETATM    2  C5  UNL     1      22.787  -0.388  53.596  1.00  0.00     0.046 A 
HETATM    3  C6  UNL     1      22.665  -1.225  54.812  1.00  0.00     0.071 C 
HETATM    4  N1  UNL     1      21.647  -0.316  52.873  1.00  0.00    -0.246 NA
HETATM    5  C7  UNL     1      21.610   0.394  51.734  1.00  0.00     0.235 A 
HETATM    6  N2  UNL     1      22.728   1.017  51.348  1.00  0.00    -0.224 NA
HETATM    7  C8  UNL     1      23.887   0.999  51.998  1.00  0.00     0.141 A 
ENDROOT
BRANCH   7   8
HETATM    8  N3  UNL     1      25.056   1.665  51.591  1.00  0.00    -0.340 N 
HETATM    9  H9  UNL     1      25.984   1.232  51.808  1.00  0.00     0.167 HD
BRANCH   8  10
HETATM   10  C9  UNL     1      25.207   2.895  50.896  1.00  0.00     0.034 A 
HETATM   11  C10 UNL     1      24.241   3.906  50.912  1.00  0.00     0.029 A 
HETATM   12  C11 UNL     1      24.401   5.085  50.236  1.00  0.00     0.003 A 
HETATM   13  C12 UNL     1      25.533   5.337  49.498  1.00  0.00     0.007 A 
HETATM   14  C13 UNL     1      26.506   4.380  49.453  1.00  0.00    -0.060 A 
HETATM   15  C14 UNL     1      27.704   4.697  48.647  1.00  0.00     0.048 C 
HETATM   16  C15 UNL     1      26.315   3.217  50.136  1.00  0.00     0.036 A 
ENDBRANCH   8  10
ENDBRANCH   7   8
BRANCH   1  17
HETATM   17  C3  UNL     1      25.126   0.192  54.002  1.00  0.00     0.081 C 
HETATM   18  C2  UNL     1      26.364  -0.254  53.849  1.00  0.00     0.180 C 
BRANCH  18  19
HETATM   19  O1  UNL     1      27.269  -0.143  54.890  1.00  0.00    -0.336 OA
HETATM   20  C1  UNL     1      28.663  -0.005  54.756  1.00  0.00     0.212 C 
ENDBRANCH  18  19
BRANCH  18  21
HETATM   21  O2  UNL     1      26.771  -0.828  52.679  1.00  0.00    -0.336 OA
HETATM   22  C16 UNL     1      26.926  -2.199  52.433  1.00  0.00     0.212 C 
ENDBRANCH  18  21
ENDBRANCH   1  17
TORSDOF 5
ENDMDL
MODEL 3
REMARK VINA RESULT:      -7.1      1.838      5.472
REMARK  5 active torsions:
REMARK  status: ('A' for Active; 'I' for Inactive)
REMARK    1  A    between atoms: O1_2  and  C2_3 
REMARK    2  A    between atoms: C2_3  and  O2_20 
REMARK    3  A    between atoms: C3_4  and  C4_5 
REMARK    4  A    between atoms: C8_11  and  N3_12 
REMARK    5  A    between atoms: N3_12  and  C9_13 
ROOT
HETATM    1  C4  UNL     1      27.068   0.874  53.125  1.00  0.00     0.039 A 
HETATM    2  C5  UNL     1      28.336   1.239  53.504  1.00  0.00     0.046 A 
HETATM    3  C6  UNL     1      28.849   2.626  53.576  1.00  0.00     0.071 C 
HETATM    4  N1  UNL     1      29.255   0.305  53.838  1.00  0.00    -0.246 NA
HETATM    5  C7  UNL     1      28.939  -1.000  53.803  1.00  0.00     0.235 A 
HETATM    6  N2  UNL     1      27.700  -1.335  53.430  1.00  0.00    -0.224 NA
HETATM    7  C8  UNL     1      26.739  -0.483  53.087  1.00  0.00     0.141 A 
ENDROOT
BRANCH   7   8
HETATM    8  N3  UNL     1      25.434  -0.842  52.705  1.00  0.00    -0.340 N 
HETATM    9  H9  UNL     1      25.274  -1.198  51.735  1.00  0.00     0.167 HD
BRANCH   8  10
HETATM   10  C9  UNL     1      24.226  -0.803  53.451  1.00  0.00     0.034 A 
HETATM   11  C10 UNL     1      24.126  -1.249  54.772  1.00  0.00     0.029 A 
HETATM   12  C11 UNL     1      22.954  -1.204  55.476  1.00  0.00     0.003 A 
HETATM   13  C12 UNL     1      21.801  -0.713  54.912  1.00  0.00     0.007 A 
HETATM   14  C13 UNL     1      21.848  -0.264  53.623  1.00  0.00    -0.060 A 
HETATM   15  C14 UNL     1      20.583   0.255  53.061  1.00  0.00     0.048 C 
HETATM   16  C15 UNL     1      23.030  -0.323  52.950  1.00  0.00     0.036 A 
ENDBRANCH   8  10
ENDBRANCH   7   8
BRANCH   1  17
HETATM   17  C3  UNL     1      26.092   1.906  52.805  1.00  0.00     0.081 C 
HETATM   18  C2  UNL     1      25.804   2.656  51.752  1.00  0.00     0.180 C 
BRANCH  18  19
HETATM   19  O1  UNL     1      24.760   3.563  51.819  1.00  0.00    -0.336 OA
HETATM   20  C1  UNL     1      23.491   3.316  52.374  1.00  0.00     0.212 C 
ENDBRANCH  18  19
BRANCH  18  21
HETATM   21  O2  UNL     1      26.519   2.557  50.594  1.00  0.00    -0.336 OA
HETATM   22  C16 UNL     1      26.492   3.456  49.518  1.00  0.00     0.212 C 
ENDBRANCH  18  21
ENDBRANCH   1  17
TORSDOF 5
ENDMDL
MODEL 4
REMARK VINA RESULT:      -7.0      2.668      5.385
REMARK  5 active torsions:
REMARK  status: ('A' for Active; 'I' for Inactive)
REMARK    1  A    between atoms: O1_2  and  C2_3 
REMARK    2  A    between atoms: C2_3  and  O2_20 
REMARK    3  A    between atoms: C3_4  and  C4_5 
REMARK    4  A    between atoms: C8_11  and  N3_12 
REMARK    5  A    between atoms: N3_12  and  C9_13 
ROOT
HETATM    1  C4  UNL     1      26.176   1.254  52.911  1.00  0.00     0.039 A 
HETATM    2  C5  UNL     1      26.794   0.887  54.080  1.00  0.00     0.046 A 
HETATM    3  C6  UNL     1      26.221  -0.001  55.117  1.00  0.00     0.071 C 
HETATM    4  N1  UNL     1      28.027   1.350  54.388  1.00  0.00    -0.246 NA
HETATM    5  C7  UNL     1      28.667   2.181  53.549  1.00  0.00     0.235 A 
HETATM    6  N2  UNL     1      28.048   2.528  52.416  1.00  0.00    -0.224 NA
HETATM    7  C8  UNL     1      26.841   2.119  52.039  1.00  0.00     0.141 A 
ENDROOT
BRANCH   7   8
HETATM    8  N3  UNL     1      26.199   2.480  50.841  1.00  0.00    -0.340 N 
HETATM    9  H9  UNL     1      25.621   1.764  50.344  1.00  0.00     0.167 HD
BRANCH   8  10
HETATM   10  C9  UNL     1      26.200   3.720  50.148  1.00  0.00     0.034 A 
HETATM   11  C10 UNL     1      27.198   4.090  49.240  1.00  0.00     0.029 A 
HETATM   12  C11 UNL     1      27.185   5.288  48.581  1.00  0.00     0.003 A 
HETATM   13  C12 UNL     1      26.176   6.201  48.781  1.00  0.00     0.007 A 
HETATM   14  C13 UNL     1      25.178   5.886  49.657  1.00  0.00    -0.060 A 
HETATM   15  C14 UNL     1      24.116   6.899  49.837  1.00  0.00     0.048 C 
HETATM   16  C15 UNL     1      25.222   4.684  50.297  1.00  0.00     0.036 A 
ENDBRANCH   8  10
ENDBRANCH   7   8
BRANCH   1  17
HETATM   17  C3  UNL     1      24.863   0.710  52.594  1.00  0.00     0.081 C 
HETATM   18  C2  UNL     1      23.633   1.186  52.481  1.00  0.00     0.180 C 
BRANCH  18  19
HETATM   19  O1  UNL     1      22.593   0.335  52.147  1.00  0.00    -0.336 OA
HETATM   20  C1  UNL     1      21.724  -0.295  53.056  1.00  0.00     0.212 C 
ENDBRANCH  18  19
BRANCH  18  21
HETATM   21  O2  UNL     1      23.362   2.508  52.689  1.00  0.00    -0.336 OA
HETATM   22  C16 UNL     1      22.378   3.269  52.042  1.00  0.00     0.212 C 
ENDBRANCH  18  21
ENDBRANCH   1  17
TORSDOF 5
ENDMDL
MODEL 5
REMARK VINA RESULT:      -7.0      1.426      2.195
REMARK  5 active torsions:
REMARK  status: ('A' for Active; 'I' for Inactive)
REMARK    1  A    between atoms: O1_2  and  C2_3 
REMARK    2  A    between atoms: C2_3  and  O2_20 
REMARK    3  A    between atoms: C3_4  and  C4_5 
REMARK    4  A    between atoms: C8_11  and  N3_12 
REMARK    5  A    between atoms: N3_12  and  C9_13 
ROOT
HETATM    1  C4  UNL     1      22.987   0.395  52.711  1.00  0.00     0.039 A 
HETATM    2  C5  UNL     1      21.674  -0.004  52.687  1.00  0.00     0.046 A 
HETATM    3  C6  UNL     1      20.653   0.444  51.712  1.00  0.00     0.071 C 
HETATM    4  N1  UNL     1      21.194  -0.864  53.614  1.00  0.00    -0.246 NA
HETATM    5  C7  UNL     1      22.000  -1.343  54.575  1.00  0.00     0.235 A 
HETATM    6  N2  UNL     1      23.275  -0.942  54.582  1.00  0.00    -0.224 NA
HETATM    7  C8  UNL     1      23.825  -0.102  53.711  1.00  0.00     0.141 A 
ENDROOT
BRANCH   7   8
HETATM    8  N3  UNL     1      25.170   0.308  53.718  1.00  0.00    -0.340 N 
HETATM    9  H9  UNL     1      25.392   1.302  53.957  1.00  0.00     0.167 HD
BRANCH   8  10
HETATM   10  C9  UNL     1      26.349  -0.435  53.440  1.00  0.00     0.034 A 
HETATM   11  C10 UNL     1      26.332  -1.711  52.869  1.00  0.00     0.029 A 
HETATM   12  C11 UNL     1      27.476  -2.414  52.607  1.00  0.00     0.003 A 
HETATM   13  C12 UNL     1      28.715  -1.894  52.897  1.00  0.00     0.007 A 
HETATM   14  C13 UNL     1      28.783  -0.650  53.455  1.00  0.00    -0.060 A 
HETATM   15  C14 UNL     1      30.138  -0.134  53.749  1.00  0.00     0.048 C 
HETATM   16  C15 UNL     1      27.626   0.023  53.703  1.00  0.00     0.036 A 
ENDBRANCH   8  10
ENDBRANCH   7   8
BRANCH   1  17
HETATM   17  C3  UNL     1      23.480   1.295  51.678  1.00  0.00     0.081 C 
HETATM   18  C2  UNL     1      23.522   2.606  51.493  1.00  0.00     0.180 C 
BRANCH  18  19
HETATM   19  O1  UNL     1      24.095   3.120  50.342  1.00  0.00    -0.336 OA
HETATM   20  C1  UNL     1      25.472   3.319  50.129  1.00  0.00     0.212 C 
ENDBRANCH  18  19
BRANCH  18  21
HETATM   21  O2  UNL     1      23.006   3.470  52.415  1.00  0.00    -0.336 OA
HETATM   22  C16 UNL     1      22.519   4.761  52.168  1.00  0.00     0.212 C 
ENDBRANCH  18  21
ENDBRANCH   1  17
TORSDOF 5
ENDMDL
MODEL 6
REMARK VINA RESULT:      -6.6      3.679      5.390
REMARK  5 active torsions:
REMARK  status: ('A' for Active; 'I' for Inactive)
REMARK    1  A    between atoms: O1_2  and  C2_3 
REMARK    2  A    between atoms: C2_3  and  O2_20 
REMARK    3  A    between atoms: C3_4  and  C4_5 
REMARK    4  A    between atoms: C8_11  and  N3_12 
REMARK    5  A    between atoms: N3_12  and  C9_13 
ROOT
HETATM    1  C4  UNL     1      24.993   2.385  51.235  1.00  0.00     0.039 A 
HETATM    2  C5  UNL     1      24.875   1.877  52.504  1.00  0.00     0.046 A 
HETATM    3  C6  UNL     1      23.610   1.469  53.156  1.00  0.00     0.071 C 
HETATM    4  N1  UNL     1      25.963   1.722  53.293  1.00  0.00    -0.246 NA
HETATM    5  C7  UNL     1      27.180   2.066  52.842  1.00  0.00     0.235 A 
HETATM    6  N2  UNL     1      27.274   2.561  51.604  1.00  0.00    -0.224 NA
HETATM    7  C8  UNL     1      26.259   2.744  50.766  1.00  0.00     0.141 A 
ENDROOT
BRANCH   7   8
HETATM    8  N3  UNL     1      26.366   3.256  49.461  1.00  0.00    -0.340 N 
HETATM    9  H9  UNL     1      26.137   2.630  48.655  1.00  0.00     0.167 HD
BRANCH   8  10
HETATM   10  C9  UNL     1      26.754   4.550  49.021  1.00  0.00     0.034 A 
HETATM   11  C10 UNL     1      25.876   5.637  48.972  1.00  0.00     0.029 A 
HETATM   12  C11 UNL     1      26.266   6.877  48.545  1.00  0.00     0.003 A 
HETATM   13  C12 UNL     1      27.556   7.118  48.137  1.00  0.00     0.007 A 
HETATM   14  C13 UNL     1      28.451   6.088  48.167  1.00  0.00    -0.060 A 
HETATM   15  C14 UNL     1      29.826   6.397  47.719  1.00  0.00     0.048 C 
HETATM   16  C15 UNL     1      28.031   4.866  48.597  1.00  0.00     0.036 A 
ENDBRANCH   8  10
ENDBRANCH   7   8
BRANCH   1  17
HETATM   17  C3  UNL     1      23.807   2.506  50.399  1.00  0.00     0.081 C 
HETATM   18  C2  UNL     1      22.909   3.447  50.143  1.00  0.00     0.180 C 
BRANCH  18  19
HETATM   19  O1  UNL     1      21.880   3.191  49.253  1.00  0.00    -0.336 OA
HETATM   20  C1  UNL     1      21.807   2.093  48.376  1.00  0.00     0.212 C 
ENDBRANCH  18  19
BRANCH  18  21
HETATM   21  O2  UNL     1      22.974   4.672  50.742  1.00  0.00    -0.336 OA
HETATM   22  C16 UNL     1      21.890   5.487  51.091  1.00  0.00     0.212 C 
ENDBRANCH  18  21
ENDBRANCH   1  17
TORSDOF 5
ENDMDL
MODEL 7
REMARK VINA RESULT:      -6.6      2.658      4.651
REMARK  5 active torsions:
REMARK  status: ('A' for Active; 'I' for Inactive)
REMARK    1  A    between atoms: O1_2  and  C2_3 
REMARK    2  A    between atoms: C2_3  and  O2_20 
REMARK    3  A    between atoms: C3_4  and  C4_5 
REMARK    4  A    between atoms: C8_11  and  N3_12 
REMARK    5  A    between atoms: N3_12  and  C9_13 
ROOT
HETATM    1  C4  UNL     1      24.672   3.498  50.676  1.00  0.00     0.039 A 
HETATM    2  C5  UNL     1      24.553   4.212  49.510  1.00  0.00     0.046 A 
HETATM    3  C6  UNL     1      23.280   4.639  48.886  1.00  0.00     0.071 C 
HETATM    4  N1  UNL     1      25.648   4.577  48.806  1.00  0.00    -0.246 NA
HETATM    5  C7  UNL     1      26.874   4.244  49.240  1.00  0.00     0.235 A 
HETATM    6  N2  UNL     1      26.970   3.548  50.377  1.00  0.00    -0.224 NA
HETATM    7  C8  UNL     1      25.948   3.150  51.127  1.00  0.00     0.141 A 
ENDROOT
BRANCH   7   8
HETATM    8  N3  UNL     1      26.055   2.426  52.328  1.00  0.00    -0.340 N 
HETATM    9  H9  UNL     1      25.391   2.641  53.107  1.00  0.00     0.167 HD
BRANCH   8  10
HETATM   10  C9  UNL     1      26.962   1.394  52.688  1.00  0.00     0.034 A 
HETATM   11  C10 UNL     1      28.203   1.638  53.285  1.00  0.00     0.029 A 
HETATM   12  C11 UNL     1      29.065   0.632  53.625  1.00  0.00     0.003 A 
HETATM   13  C12 UNL     1      28.751  -0.686  53.394  1.00  0.00     0.007 A 
HETATM   14  C13 UNL     1      27.550  -0.976  52.814  1.00  0.00    -0.060 A 
HETATM   15  C14 UNL     1      27.257  -2.407  52.585  1.00  0.00     0.048 C 
HETATM   16  C15 UNL     1      26.715   0.049  52.486  1.00  0.00     0.036 A 
ENDBRANCH   8  10
ENDBRANCH   7   8
BRANCH   1  17
HETATM   17  C3  UNL     1      23.475   3.150  51.428  1.00  0.00     0.081 C 
HETATM   18  C2  UNL     1      22.534   2.221  51.351  1.00  0.00     0.180 C 
BRANCH  18  19
HETATM   19  O1  UNL     1      21.510   2.201  52.283  1.00  0.00    -0.336 OA
HETATM   20  C1  UNL     1      20.472   3.145  52.383  1.00  0.00     0.212 C 
ENDBRANCH  18  19
BRANCH  18  21
HETATM   21  O2  UNL     1      22.548   1.276  50.366  1.00  0.00    -0.336 OA
HETATM   22  C16 UNL     1      21.703   1.224  49.249  1.00  0.00     0.212 C 
ENDBRANCH  18  21
ENDBRANCH   1  17
TORSDOF 5
ENDMDL
MODEL 8
REMARK VINA RESULT:      -6.5      2.478      5.090
REMARK  5 active torsions:
REMARK  status: ('A' for Active; 'I' for Inactive)
REMARK    1  A    between atoms: O1_2  and  C2_3 
REMARK    2  A    between atoms: C2_3  and  O2_20 
REMARK    3  A    between atoms: C3_4  and  C4_5 
REMARK    4  A    between atoms: C8_11  and  N3_12 
REMARK    5  A    between atoms: N3_12  and  C9_13 
ROOT
HETATM    1  C4  UNL     1      22.929   0.262  53.114  1.00  0.00     0.039 A 
HETATM    2  C5  UNL     1      21.869   0.014  53.949  1.00  0.00     0.046 A 
HETATM    3  C6  UNL     1      21.840  -0.998  55.029  1.00  0.00     0.071 C 
HETATM    4  N1  UNL     1      20.712   0.703  53.824  1.00  0.00    -0.246 NA
HETATM    5  C7  UNL     1      20.583   1.644  52.875  1.00  0.00     0.235 A 
HETATM    6  N2  UNL     1      21.626   1.870  52.070  1.00  0.00    -0.224 NA
HETATM    7  C8  UNL     1      22.795   1.240  52.125  1.00  0.00     0.141 A 
ENDROOT
BRANCH   7   8
HETATM    8  N3  UNL     1      23.892   1.490  51.282  1.00  0.00    -0.340 N 
HETATM    9  H9  UNL     1      24.593   0.729  51.130  1.00  0.00     0.167 HD
BRANCH   8  10
HETATM   10  C9  UNL     1      24.233   2.664  50.559  1.00  0.00     0.034 A 
HETATM   11  C10 UNL     1      25.430   3.361  50.751  1.00  0.00     0.029 A 
HETATM   12  C11 UNL     1      25.744   4.491  50.047  1.00  0.00     0.003 A 
HETATM   13  C12 UNL     1      24.887   5.004  49.102  1.00  0.00     0.007 A 
HETATM   14  C13 UNL     1      23.706   4.358  48.877  1.00  0.00    -0.060 A 
HETATM   15  C14 UNL     1      22.818   4.948  47.852  1.00  0.00     0.048 C 
HETATM   16  C15 UNL     1      23.423   3.236  49.596  1.00  0.00     0.036 A 
ENDBRANCH   8  10
ENDBRANCH   7   8
BRANCH   1  17
HETATM   17  C3  UNL     1      24.173  -0.472  53.297  1.00  0.00     0.081 C 
HETATM   18  C2  UNL     1      25.433  -0.165  53.565  1.00  0.00     0.180 C 
BRANCH  18  19
HETATM   19  O1  UNL     1      26.378  -1.172  53.673  1.00  0.00    -0.336 OA
HETATM   20  C1  UNL     1      26.919  -1.908  52.603  1.00  0.00     0.212 C 
ENDBRANCH  18  19
BRANCH  18  21
HETATM   21  O2  UNL     1      25.827   1.130  53.736  1.00  0.00    -0.336 OA
HETATM   22  C16 UNL     1      27.142   1.614  53.690  1.00  0.00     0.212 C 
ENDBRANCH  18  21
ENDBRANCH   1  17
TORSDOF 5
ENDMDL
MODEL 9
REMARK VINA RESULT:      -6.4      2.163      4.244
REMARK  5 active torsions:
REMARK  status: ('A' for Active; 'I' for Inactive)
REMARK    1  A    between atoms: O1_2  and  C2_3 
REMARK    2  A    between atoms: C2_3  and  O2_20 
REMARK    3  A    between atoms: C3_4  and  C4_5 
REMARK    4  A    between atoms: C8_11  and  N3_12 
REMARK    5  A    between atoms: N3_12  and  C9_13 
ROOT
HETATM    1  C4  UNL     1      23.834   2.450  50.630  1.00  0.00     0.039 A 
HETATM    2  C5  UNL     1      23.539   3.156  49.491  1.00  0.00     0.046 A 
HETATM    3  C6  UNL     1      22.339   2.965  48.644  1.00  0.00     0.071 C 
HETATM    4  N1  UNL     1      24.377   4.113  49.032  1.00  0.00    -0.246 NA
HETATM    5  C7  UNL     1      25.516   4.386  49.688  1.00  0.00     0.235 A 
HETATM    6  N2  UNL     1      25.787   3.687  50.794  1.00  0.00    -0.224 NA
HETATM    7  C8  UNL     1      25.020   2.733  51.312  1.00  0.00     0.141 A 
ENDROOT
BRANCH   7   8
HETATM    8  N3  UNL     1      25.305   2.008  52.482  1.00  0.00    -0.340 N 
HETATM    9  H9  UNL     1      24.832   2.284  53.374  1.00  0.00     0.167 HD
BRANCH   8  10
HETATM   10  C9  UNL     1      26.176   0.902  52.677  1.00  0.00     0.034 A 
HETATM   11  C10 UNL     1      25.784  -0.425  52.477  1.00  0.00     0.029 A 
HETATM   12  C11 UNL     1      26.635  -1.479  52.669  1.00  0.00     0.003 A 
HETATM   13  C12 UNL     1      27.934  -1.282  53.074  1.00  0.00     0.007 A 
HETATM   14  C13 UNL     1      28.364  -0.004  53.281  1.00  0.00    -0.060 A 
HETATM   15  C14 UNL     1      29.769   0.156  53.715  1.00  0.00     0.048 C 
HETATM   16  C15 UNL     1      27.492   1.023  53.081  1.00  0.00     0.036 A 
ENDBRANCH   8  10
ENDBRANCH   7   8
BRANCH   1  17
HETATM   17  C3  UNL     1      22.893   1.451  51.117  1.00  0.00     0.081 C 
HETATM   18  C2  UNL     1      21.847   1.438  51.930  1.00  0.00     0.180 C 
BRANCH  18  19
HETATM   19  O1  UNL     1      21.170   0.253  52.162  1.00  0.00    -0.336 OA
HETATM   20  C1  UNL     1      20.593  -0.138  53.384  1.00  0.00     0.212 C 
ENDBRANCH  18  19
BRANCH  18  21
HETATM   21  O2  UNL     1      21.418   2.576  52.552  1.00  0.00    -0.336 OA
HETATM   22  C16 UNL     1      20.515   3.516  52.039  1.00  0.00     0.212 C 
ENDBRANCH  18  21
ENDBRANCH   1  17
TORSDOF 5
ENDMDL
