MODEL 1
REMARK VINA RESULT:      -7.5      0.000      0.000
REMARK  5 active torsions:
REMARK  status: ('A' for Active; 'I' for Inactive)
REMARK    1  A    between atoms: C2_2  and  C3_3 
REMARK    2  A    between atoms: C3_3  and  N4_18 
REMARK    3  A    between atoms: C4_4  and  C5_5 
REMARK    4  A    between atoms: C8_10  and  N3_11 
REMARK    5  A    between atoms: N3_11  and  C9_12 
REMARK       I    between atoms: N4_18  and  C14_19 
REMARK       I    between atoms: C14_19  and  N5_20 
ROOT
HETATM    1  C5  UNL     1      24.197  -0.547  54.410  1.00  0.00     0.010 A 
HETATM    2  C6  UNL     1      23.675  -1.455  55.430  1.00  0.00     0.192 A 
HETATM    3  N1  UNL     1      22.320  -1.795  55.173  1.00  0.00    -0.278 NA
HETATM    4  C7  UNL     1      21.686  -1.348  54.165  1.00  0.00     0.229 A 
HETATM    5  N2  UNL     1      22.206  -0.474  53.176  1.00  0.00    -0.224 NA
HETATM    6  C8  UNL     1      23.419  -0.059  53.250  1.00  0.00     0.137 A 
ENDROOT
BRANCH   1   7
HETATM    7  C4  UNL     1      25.444  -0.101  54.492  1.00  0.00     0.051 C 
HETATM    8  C3  UNL     1      26.746  -0.291  53.931  1.00  0.00     0.079 C 
BRANCH   8   9
HETATM    9  C2  UNL     1      26.682  -1.245  53.026  1.00  0.00    -0.126 C 
HETATM   10  C1  UNL     1      26.880  -2.325  52.271  1.00  0.00     0.099 C 
ENDBRANCH   8   9
BRANCH   8  11
HETATM   11  N4  UNL     1      28.020   0.298  54.139  1.00  0.00    -0.302 N 
HETATM   12  C14 UNL     1      28.372   1.669  54.187  1.00  0.00     0.318 C 
HETATM   13  N5  UNL     1      29.669   2.198  54.399  1.00  0.00    -0.352 N 
HETATM   14  O1  UNL     1      27.485   2.541  54.032  1.00  0.00    -0.247 OA
HETATM   15  H13 UNL     1      30.154   1.855  55.259  1.00  0.00     0.160 HD
HETATM   16  H14 UNL     1      30.040   2.881  53.690  1.00  0.00     0.160 HD
HETATM   17  H12 UNL     1      28.860  -0.266  54.282  1.00  0.00     0.171 HD
ENDBRANCH   8  11
ENDBRANCH   1   7
BRANCH   6  18
HETATM   18  N3  UNL     1      23.922   0.809  52.245  1.00  0.00    -0.344 N 
HETATM   19  H7  UNL     1      24.426   0.311  51.453  1.00  0.00     0.167 HD
BRANCH  18  20
HETATM   20  C9  UNL     1      23.711   2.225  52.384  1.00  0.00     0.015 A 
HETATM   21  C10 UNL     1      24.184   3.260  53.083  1.00  0.00     0.026 A 
HETATM   22  C11 UNL     1      23.504   4.502  52.736  1.00  0.00     0.017 A 
HETATM   23  C12 UNL     1      22.618   4.182  51.815  1.00  0.00    -0.006 A 
HETATM   24 BR1  UNL     1      21.482   5.510  51.054  1.00  0.00    -0.055 Br
HETATM   25  C13 UNL     1      22.645   2.752  51.497  1.00  0.00     0.103 A 
ENDBRANCH  18  20
ENDBRANCH   6  18
TORSDOF 5
ENDMDL
MODEL 2
REMARK VINA RESULT:      -7.4      2.265      2.569
REMARK  5 active torsions:
REMARK  status: ('A' for Active; 'I' for Inactive)
REMARK    1  A    between atoms: C2_2  and  C3_3 
REMARK    2  A    between atoms: C3_3  and  N4_18 
REMARK    3  A    between atoms: C4_4  and  C5_5 
REMARK    4  A    between atoms: C8_10  and  N3_11 
REMARK    5  A    between atoms: N3_11  and  C9_12 
REMARK       I    between atoms: N4_18  and  C14_19 
REMARK       I    between atoms: C14_19  and  N5_20 
ROOT
HETATM    1  C5  UNL     1      23.983   0.699  53.200  1.00  0.00     0.010 A 
HETATM    2  C6  UNL     1      23.397  -0.629  53.382  1.00  0.00     0.192 A 
HETATM    3  N1  UNL     1      22.133  -0.726  52.741  1.00  0.00    -0.278 NA
HETATM    4  C7  UNL     1      21.622   0.243  52.094  1.00  0.00     0.229 A 
HETATM    5  N2  UNL     1      22.204   1.523  51.916  1.00  0.00    -0.224 NA
HETATM    6  C8  UNL     1      23.349   1.792  52.432  1.00  0.00     0.137 A 
ENDROOT
BRANCH   1   7
HETATM    7  C4  UNL     1      25.157   0.987  53.746  1.00  0.00     0.051 C 
HETATM    8  C3  UNL     1      26.525   0.570  53.758  1.00  0.00     0.079 C 
BRANCH   8   9
HETATM    9  C2  UNL     1      26.659  -0.464  52.955  1.00  0.00    -0.126 C 
HETATM   10  C1  UNL     1      26.922  -1.652  52.410  1.00  0.00     0.099 C 
ENDBRANCH   8   9
BRANCH   8  11
HETATM   11  N4  UNL     1      27.699   1.010  54.423  1.00  0.00    -0.302 N 
HETATM   12  C14 UNL     1      28.697   1.907  53.969  1.00  0.00     0.318 C 
HETATM   13  N5  UNL     1      29.854   2.310  54.682  1.00  0.00    -0.352 N 
HETATM   14  O1  UNL     1      28.595   2.423  52.831  1.00  0.00    -0.247 OA
HETATM   15  H13 UNL     1      29.674   2.702  55.633  1.00  0.00     0.160 HD
HETATM   16  H14 UNL     1      30.786   2.186  54.211  1.00  0.00     0.160 HD
HETATM   17  H12 UNL     1      27.943   0.688  55.361  1.00  0.00     0.171 HD
ENDBRANCH   8  11
ENDBRANCH   1   7
BRANCH   6  18
HETATM   18  N3  UNL     1      23.918   3.079  52.235  1.00  0.00    -0.344 N 
HETATM   19  H7  UNL     1      23.540   3.826  52.889  1.00  0.00     0.167 HD
BRANCH  18  20
HETATM   20  C9  UNL     1      24.914   3.246  51.212  1.00  0.00     0.015 A 
HETATM   21  C10 UNL     1      25.816   2.523  50.544  1.00  0.00     0.026 A 
HETATM   22  C11 UNL     1      26.554   3.333  49.582  1.00  0.00     0.017 A 
HETATM   23  C12 UNL     1      26.070   4.554  49.694  1.00  0.00    -0.006 A 
HETATM   24 BR1  UNL     1      26.745   5.971  48.614  1.00  0.00    -0.055 Br
HETATM   25  C13 UNL     1      25.012   4.637  50.705  1.00  0.00     0.103 A 
ENDBRANCH  18  20
ENDBRANCH   6  18
TORSDOF 5
ENDMDL
MODEL 3
REMARK VINA RESULT:      -7.1      2.756      4.604
REMARK  5 active torsions:
REMARK  status: ('A' for Active; 'I' for Inactive)
REMARK    1  A    between atoms: C2_2  and  C3_3 
REMARK    2  A    between atoms: C3_3  and  N4_18 
REMARK    3  A    between atoms: C4_4  and  C5_5 
REMARK    4  A    between atoms: C8_10  and  N3_11 
REMARK    5  A    between atoms: N3_11  and  C9_12 
REMARK       I    between atoms: N4_18  and  C14_19 
REMARK       I    between atoms: C14_19  and  N5_20 
ROOT
HETATM    1  C5  UNL     1      23.910   3.094  52.553  1.00  0.00     0.010 A 
HETATM    2  C6  UNL     1      23.835   4.544  52.727  1.00  0.00     0.192 A 
HETATM    3  N1  UNL     1      22.524   5.028  52.466  1.00  0.00    -0.278 NA
HETATM    4  C7  UNL     1      21.568   4.256  52.135  1.00  0.00     0.229 A 
HETATM    5  N2  UNL     1      21.651   2.849  51.978  1.00  0.00    -0.224 NA
HETATM    6  C8  UNL     1      22.764   2.240  52.171  1.00  0.00     0.137 A 
ENDROOT
BRANCH   1   7
HETATM    7  C4  UNL     1      25.062   2.462  52.734  1.00  0.00     0.051 C 
HETATM    8  C3  UNL     1      26.282   2.135  52.065  1.00  0.00     0.079 C 
BRANCH   8   9
HETATM    9  C2  UNL     1      26.241   2.625  50.845  1.00  0.00    -0.126 C 
HETATM   10  C1  UNL     1      26.425   3.329  49.727  1.00  0.00     0.099 C 
ENDBRANCH   8   9
BRANCH   8  11
HETATM   11  N4  UNL     1      27.460   1.427  52.422  1.00  0.00    -0.302 N 
HETATM   12  C14 UNL     1      28.412   1.729  53.427  1.00  0.00     0.318 C 
HETATM   13  N5  UNL     1      29.574   0.980  53.737  1.00  0.00    -0.352 N 
HETATM   14  O1  UNL     1      28.257   2.748  54.140  1.00  0.00    -0.247 OA
HETATM   15  H13 UNL     1      29.410  -0.032  53.938  1.00  0.00     0.160 HD
HETATM   16  H14 UNL     1      30.496   1.487  53.740  1.00  0.00     0.160 HD
HETATM   17  H12 UNL     1      27.743   0.571  51.941  1.00  0.00     0.171 HD
ENDBRANCH   8  11
ENDBRANCH   1   7
BRANCH   6  18
HETATM   18  N3  UNL     1      22.823   0.829  52.016  1.00  0.00    -0.344 N 
HETATM   19  H7  UNL     1      23.496   0.502  51.261  1.00  0.00     0.167 HD
BRANCH  18  20
HETATM   20  C9  UNL     1      22.003   0.005  52.862  1.00  0.00     0.015 A 
HETATM   21  C10 UNL     1      22.101  -0.722  53.979  1.00  0.00     0.026 A 
HETATM   22  C11 UNL     1      20.832  -1.346  54.330  1.00  0.00     0.017 A 
HETATM   23  C12 UNL     1      19.977  -0.975  53.398  1.00  0.00    -0.006 A 
HETATM   24 BR1  UNL     1      18.165  -1.562  53.449  1.00  0.00    -0.055 Br
HETATM   25  C13 UNL     1      20.599  -0.107  52.395  1.00  0.00     0.103 A 
ENDBRANCH  18  20
ENDBRANCH   6  18
TORSDOF 5
ENDMDL
MODEL 4
REMARK VINA RESULT:      -7.1      3.844      6.139
REMARK  5 active torsions:
REMARK  status: ('A' for Active; 'I' for Inactive)
REMARK    1  A    between atoms: C2_2  and  C3_3 
REMARK    2  A    between atoms: C3_3  and  N4_18 
REMARK    3  A    between atoms: C4_4  and  C5_5 
REMARK    4  A    between atoms: C8_10  and  N3_11 
REMARK    5  A    between atoms: N3_11  and  C9_12 
REMARK       I    between atoms: N4_18  and  C14_19 
REMARK       I    between atoms: C14_19  and  N5_20 
ROOT
HETATM    1  C5  UNL     1      25.585   1.801  52.319  1.00  0.00     0.010 A 
HETATM    2  C6  UNL     1      25.743   1.518  53.745  1.00  0.00     0.192 A 
HETATM    3  N1  UNL     1      27.061   1.814  54.186  1.00  0.00    -0.278 NA
HETATM    4  C7  UNL     1      27.952   2.273  53.404  1.00  0.00     0.229 A 
HETATM    5  N2  UNL     1      27.785   2.552  52.024  1.00  0.00    -0.224 NA
HETATM    6  C8  UNL     1      26.654   2.342  51.452  1.00  0.00     0.137 A 
ENDROOT
BRANCH   1   7
HETATM    7  C4  UNL     1      24.424   1.568  51.720  1.00  0.00     0.051 C 
HETATM    8  C3  UNL     1      23.125   2.133  51.525  1.00  0.00     0.079 C 
BRANCH   8   9
HETATM    9  C2  UNL     1      23.060   3.277  52.172  1.00  0.00    -0.126 C 
HETATM   10  C1  UNL     1      23.152   4.550  52.561  1.00  0.00     0.099 C 
ENDBRANCH   8   9
BRANCH   8  11
HETATM   11  N4  UNL     1      21.957   1.738  50.823  1.00  0.00    -0.302 N 
HETATM   12  C14 UNL     1      21.710   1.743  49.428  1.00  0.00     0.318 C 
HETATM   13  N5  UNL     1      20.516   1.334  48.783  1.00  0.00    -0.352 N 
HETATM   14  O1  UNL     1      22.602   2.141  48.643  1.00  0.00    -0.247 OA
HETATM   15  H13 UNL     1      20.190   0.371  49.023  1.00  0.00     0.160 HD
HETATM   16  H14 UNL     1      20.057   2.016  48.127  1.00  0.00     0.160 HD
HETATM   17  H12 UNL     1      21.128   1.389  51.307  1.00  0.00     0.171 HD
ENDBRANCH   8  11
ENDBRANCH   1   7
BRANCH   6  18
HETATM   18  N3  UNL     1      26.505   2.635  50.070  1.00  0.00    -0.344 N 
HETATM   19  H7  UNL     1      26.524   1.780  49.440  1.00  0.00     0.167 HD
BRANCH  18  20
HETATM   20  C9  UNL     1      26.347   4.007  49.668  1.00  0.00     0.015 A 
HETATM   21  C10 UNL     1      25.462   5.001  49.771  1.00  0.00     0.026 A 
HETATM   22  C11 UNL     1      25.929   6.211  49.105  1.00  0.00     0.017 A 
HETATM   23  C12 UNL     1      27.111   5.914  48.604  1.00  0.00    -0.006 A 
HETATM   24 BR1  UNL     1      28.111   7.213  47.633  1.00  0.00    -0.055 Br
HETATM   25  C13 UNL     1      27.499   4.530  48.892  1.00  0.00     0.103 A 
ENDBRANCH  18  20
ENDBRANCH   6  18
TORSDOF 5
ENDMDL
MODEL 5
REMARK VINA RESULT:      -7.1      3.455      4.458
REMARK  5 active torsions:
REMARK  status: ('A' for Active; 'I' for Inactive)
REMARK    1  A    between atoms: C2_2  and  C3_3 
REMARK    2  A    between atoms: C3_3  and  N4_18 
REMARK    3  A    between atoms: C4_4  and  C5_5 
REMARK    4  A    between atoms: C8_10  and  N3_11 
REMARK    5  A    between atoms: N3_11  and  C9_12 
REMARK       I    between atoms: N4_18  and  C14_19 
REMARK       I    between atoms: C14_19  and  N5_20 
ROOT
HETATM    1  C5  UNL     1      23.806   2.884  51.961  1.00  0.00     0.010 A 
HETATM    2  C6  UNL     1      22.500   2.844  52.617  1.00  0.00     0.192 A 
HETATM    3  N1  UNL     1      21.445   2.981  51.675  1.00  0.00    -0.278 NA
HETATM    4  C7  UNL     1      21.659   3.110  50.428  1.00  0.00     0.229 A 
HETATM    5  N2  UNL     1      22.931   3.138  49.801  1.00  0.00    -0.224 NA
HETATM    6  C8  UNL     1      24.002   3.031  50.502  1.00  0.00     0.137 A 
ENDROOT
BRANCH   1   7
HETATM    7  C4  UNL     1      24.915   2.791  52.682  1.00  0.00     0.051 C 
HETATM    8  C3  UNL     1      25.690   1.858  53.438  1.00  0.00     0.079 C 
BRANCH   8   9
HETATM    9  C2  UNL     1      25.086   0.689  53.415  1.00  0.00    -0.126 C 
HETATM   10  C1  UNL     1      24.272  -0.341  53.182  1.00  0.00     0.099 C 
ENDBRANCH   8   9
BRANCH   8  11
HETATM   11  N4  UNL     1      26.904   1.927  54.171  1.00  0.00    -0.302 N 
HETATM   12  C14 UNL     1      28.209   2.226  53.709  1.00  0.00     0.318 C 
HETATM   13  N5  UNL     1      29.388   2.280  54.494  1.00  0.00    -0.352 N 
HETATM   14  O1  UNL     1      28.393   2.476  52.495  1.00  0.00    -0.247 OA
HETATM   15  H13 UNL     1      29.339   2.910  55.326  1.00  0.00     0.160 HD
HETATM   16  H14 UNL     1      30.206   1.694  54.187  1.00  0.00     0.160 HD
HETATM   17  H12 UNL     1      26.939   1.749  55.177  1.00  0.00     0.171 HD
ENDBRANCH   8  11
ENDBRANCH   1   7
BRANCH   6  18
HETATM   18  N3  UNL     1      25.266   3.054  49.853  1.00  0.00    -0.344 N 
HETATM   19  H7  UNL     1      25.726   2.100  49.764  1.00  0.00     0.167 HD
BRANCH  18  20
HETATM   20  C9  UNL     1      25.784   4.314  49.393  1.00  0.00     0.015 A 
HETATM   21  C10 UNL     1      25.377   5.571  49.197  1.00  0.00     0.026 A 
HETATM   22  C11 UNL     1      26.451   6.412  48.684  1.00  0.00     0.017 A 
HETATM   23  C12 UNL     1      27.505   5.628  48.580  1.00  0.00    -0.006 A 
HETATM   24 BR1  UNL     1      29.166   6.310  47.940  1.00  0.00    -0.055 Br
HETATM   25  C13 UNL     1      27.214   4.256  49.002  1.00  0.00     0.103 A 
ENDBRANCH  18  20
ENDBRANCH   6  18
TORSDOF 5
ENDMDL
MODEL 6
REMARK VINA RESULT:      -6.9      4.243      6.244
REMARK  5 active torsions:
REMARK  status: ('A' for Active; 'I' for Inactive)
REMARK    1  A    between atoms: C2_2  and  C3_3 
REMARK    2  A    between atoms: C3_3  and  N4_18 
REMARK    3  A    between atoms: C4_4  and  C5_5 
REMARK    4  A    between atoms: C8_10  and  N3_11 
REMARK    5  A    between atoms: N3_11  and  C9_12 
REMARK       I    between atoms: N4_18  and  C14_19 
REMARK       I    between atoms: C14_19  and  N5_20 
ROOT
HETATM    1  C5  UNL     1      23.011   3.573  49.456  1.00  0.00     0.010 A 
HETATM    2  C6  UNL     1      22.634   3.536  48.043  1.00  0.00     0.192 A 
HETATM    3  N1  UNL     1      21.946   2.334  47.724  1.00  0.00    -0.278 NA
HETATM    4  C7  UNL     1      21.705   1.438  48.594  1.00  0.00     0.229 A 
HETATM    5  N2  UNL     1      22.068   1.488  49.964  1.00  0.00    -0.224 NA
HETATM    6  C8  UNL     1      22.700   2.504  50.430  1.00  0.00     0.137 A 
ENDROOT
BRANCH   1   7
HETATM    7  C4  UNL     1      23.681   4.612  49.938  1.00  0.00     0.051 C 
HETATM    8  C3  UNL     1      25.009   5.105  50.124  1.00  0.00     0.079 C 
BRANCH   8   9
HETATM    9  C2  UNL     1      25.860   4.214  49.663  1.00  0.00    -0.126 C 
HETATM   10  C1  UNL     1      26.717   3.204  49.507  1.00  0.00     0.099 C 
ENDBRANCH   8   9
BRANCH   8  11
HETATM   11  N4  UNL     1      25.569   6.287  50.675  1.00  0.00    -0.302 N 
HETATM   12  C14 UNL     1      26.046   7.443  50.009  1.00  0.00     0.318 C 
HETATM   13  N5  UNL     1      26.598   8.598  50.617  1.00  0.00    -0.352 N 
HETATM   14  O1  UNL     1      25.998   7.500  48.758  1.00  0.00    -0.247 OA
HETATM   15  H13 UNL     1      26.000   9.042  51.349  1.00  0.00     0.160 HD
HETATM   16  H14 UNL     1      27.548   8.913  50.294  1.00  0.00     0.160 HD
HETATM   17  H12 UNL     1      25.686   6.412  51.682  1.00  0.00     0.171 HD
ENDBRANCH   8  11
ENDBRANCH   1   7
BRANCH   6  18
HETATM   18  N3  UNL     1      23.047   2.538  51.807  1.00  0.00    -0.344 N 
HETATM   19  H7  UNL     1      22.843   3.465  52.284  1.00  0.00     0.167 HD
BRANCH  18  20
HETATM   20  C9  UNL     1      23.618   1.361  52.406  1.00  0.00     0.015 A 
HETATM   21  C10 UNL     1      23.255   0.338  53.183  1.00  0.00     0.026 A 
HETATM   22  C11 UNL     1      24.369  -0.566  53.441  1.00  0.00     0.017 A 
HETATM   23  C12 UNL     1      25.402  -0.057  52.801  1.00  0.00    -0.006 A 
HETATM   24 BR1  UNL     1      27.102  -0.917  52.856  1.00  0.00    -0.055 Br
HETATM   25  C13 UNL     1      25.057   1.180  52.095  1.00  0.00     0.103 A 
ENDBRANCH  18  20
ENDBRANCH   6  18
TORSDOF 5
ENDMDL
MODEL 7
REMARK VINA RESULT:      -6.8      3.884      5.978
REMARK  5 active torsions:
REMARK  status: ('A' for Active; 'I' for Inactive)
REMARK    1  A    between atoms: C2_2  and  C3_3 
REMARK    2  A    between atoms: C3_3  and  N4_18 
REMARK    3  A    between atoms: C4_4  and  C5_5 
REMARK    4  A    between atoms: C8_10  and  N3_11 
REMARK    5  A    between atoms: N3_11  and  C9_12 
REMARK       I    between atoms: N4_18  and  C14_19 
REMARK       I    between atoms: C14_19  and  N5_20 
ROOT
HETATM    1  C5  UNL     1      22.566   3.594  51.882  1.00  0.00     0.010 A 
HETATM    2  C6  UNL     1      21.283   4.178  52.270  1.00  0.00     0.192 A 
HETATM    3  N1  UNL     1      20.292   3.175  52.446  1.00  0.00    -0.278 NA
HETATM    4  C7  UNL     1      20.541   1.938  52.284  1.00  0.00     0.229 A 
HETATM    5  N2  UNL     1      21.793   1.382  51.916  1.00  0.00    -0.224 NA
HETATM    6  C8  UNL     1      22.806   2.144  51.712  1.00  0.00     0.137 A 
ENDROOT
BRANCH   1   7
HETATM    7  C4  UNL     1      23.611   4.379  51.653  1.00  0.00     0.051 C 
HETATM    8  C3  UNL     1      24.347   4.991  50.591  1.00  0.00     0.079 C 
BRANCH   8   9
HETATM    9  C2  UNL     1      23.800   4.647  49.444  1.00  0.00    -0.126 C 
HETATM   10  C1  UNL     1      23.003   4.495  48.386  1.00  0.00     0.099 C 
ENDBRANCH   8   9
BRANCH   8  11
HETATM   11  N4  UNL     1      25.483   5.839  50.519  1.00  0.00    -0.302 N 
HETATM   12  C14 UNL     1      25.538   7.254  50.473  1.00  0.00     0.318 C 
HETATM   13  N5  UNL     1      26.709   8.049  50.401  1.00  0.00    -0.352 N 
HETATM   14  O1  UNL     1      24.473   7.915  50.495  1.00  0.00    -0.247 OA
HETATM   15  H13 UNL     1      27.418   7.862  51.145  1.00  0.00     0.160 HD
HETATM   16  H14 UNL     1      26.775   8.751  49.621  1.00  0.00     0.160 HD
HETATM   17  H12 UNL     1      26.434   5.468  50.490  1.00  0.00     0.171 HD
ENDBRANCH   8  11
ENDBRANCH   1   7
BRANCH   6  18
HETATM   18  N3  UNL     1      24.053   1.567  51.351  1.00  0.00    -0.344 N 
HETATM   19  H7  UNL     1      24.334   1.736  50.341  1.00  0.00     0.167 HD
BRANCH  18  20
HETATM   20  C9  UNL     1      24.790   0.837  52.347  1.00  0.00     0.015 A 
HETATM   21  C10 UNL     1      24.573   0.128  53.458  1.00  0.00     0.026 A 
HETATM   22  C11 UNL     1      25.816  -0.374  54.030  1.00  0.00     0.017 A 
HETATM   23  C12 UNL     1      26.777   0.052  53.235  1.00  0.00    -0.006 A 
HETATM   24 BR1  UNL     1      28.599  -0.371  53.597  1.00  0.00    -0.055 Br
HETATM   25  C13 UNL     1      26.256   0.842  52.116  1.00  0.00     0.103 A 
ENDBRANCH  18  20
ENDBRANCH   6  18
TORSDOF 5
ENDMDL
MODEL 8
REMARK VINA RESULT:      -6.7      3.317      5.289
REMARK  5 active torsions:
REMARK  status: ('A' for Active; 'I' for Inactive)
REMARK    1  A    between atoms: C2_2  and  C3_3 
REMARK    2  A    between atoms: C3_3  and  N4_18 
REMARK    3  A    between atoms: C4_4  and  C5_5 
REMARK    4  A    between atoms: C8_10  and  N3_11 
REMARK    5  A    between atoms: N3_11  and  C9_12 
REMARK       I    between atoms: N4_18  and  C14_19 
REMARK       I    between atoms: C14_19  and  N5_20 
ROOT
HETATM    1  C5  UNL     1      25.196   1.699  52.462  1.00  0.00     0.010 A 
HETATM    2  C6  UNL     1      26.520   1.378  51.932  1.00  0.00     0.192 A 
HETATM    3  N1  UNL     1      26.817  -0.003  52.088  1.00  0.00    -0.278 NA
HETATM    4  C7  UNL     1      25.999  -0.819  52.620  1.00  0.00     0.229 A 
HETATM    5  N2  UNL     1      24.712  -0.497  53.122  1.00  0.00    -0.224 NA
HETATM    6  C8  UNL     1      24.277   0.709  53.067  1.00  0.00     0.137 A 
ENDROOT
BRANCH   1   7
HETATM    7  C4  UNL     1      24.749   2.948  52.424  1.00  0.00     0.051 C 
HETATM    8  C3  UNL     1      24.092   3.881  51.563  1.00  0.00     0.079 C 
BRANCH   8   9
HETATM    9  C2  UNL     1      23.857   3.298  50.407  1.00  0.00    -0.126 C 
HETATM   10  C1  UNL     1      23.519   3.009  49.150  1.00  0.00     0.099 C 
ENDBRANCH   8   9
BRANCH   8  11
HETATM   11  N4  UNL     1      23.669   5.230  51.688  1.00  0.00    -0.302 N 
HETATM   12  C14 UNL     1      24.262   6.403  51.161  1.00  0.00     0.318 C 
HETATM   13  N5  UNL     1      23.790   7.730  51.321  1.00  0.00    -0.352 N 
HETATM   14  O1  UNL     1      25.309   6.314  50.479  1.00  0.00    -0.247 OA
HETATM   15  H13 UNL     1      22.796   7.884  51.038  1.00  0.00     0.160 HD
HETATM   16  H14 UNL     1      24.460   8.444  51.705  1.00  0.00     0.160 HD
HETATM   17  H12 UNL     1      22.832   5.487  52.214  1.00  0.00     0.171 HD
ENDBRANCH   8  11
ENDBRANCH   1   7
BRANCH   6  18
HETATM   18  N3  UNL     1      22.982   1.008  53.569  1.00  0.00    -0.344 N 
HETATM   19  H7  UNL     1      22.982   1.445  54.538  1.00  0.00     0.167 HD
BRANCH  18  20
HETATM   20  C9  UNL     1      21.837   0.707  52.753  1.00  0.00     0.015 A 
HETATM   21  C10 UNL     1      21.443   0.798  51.480  1.00  0.00     0.026 A 
HETATM   22  C11 UNL     1      20.090   0.288  51.296  1.00  0.00     0.017 A 
HETATM   23  C12 UNL     1      19.689  -0.109  52.487  1.00  0.00    -0.006 A 
HETATM   24 BR1  UNL     1      17.954  -0.858  52.730  1.00  0.00    -0.055 Br
HETATM   25  C13 UNL     1      20.714   0.104  53.512  1.00  0.00     0.103 A 
ENDBRANCH  18  20
ENDBRANCH   6  18
TORSDOF 5
ENDMDL
MODEL 9
REMARK VINA RESULT:      -6.6      3.507      6.763
REMARK  5 active torsions:
REMARK  status: ('A' for Active; 'I' for Inactive)
REMARK    1  A    between atoms: C2_2  and  C3_3 
REMARK    2  A    between atoms: C3_3  and  N4_18 
REMARK    3  A    between atoms: C4_4  and  C5_5 
REMARK    4  A    between atoms: C8_10  and  N3_11 
REMARK    5  A    between atoms: N3_11  and  C9_12 
REMARK       I    between atoms: N4_18  and  C14_19 
REMARK       I    between atoms: C14_19  and  N5_20 
ROOT
HETATM    1  C5  UNL     1      23.617   2.134  50.853  1.00  0.00     0.010 A 
HETATM    2  C6  UNL     1      23.304   2.739  49.560  1.00  0.00     0.192 A 
HETATM    3  N1  UNL     1      24.314   3.657  49.163  1.00  0.00    -0.278 NA
HETATM    4  C7  UNL     1      25.345   3.883  49.873  1.00  0.00     0.229 A 
HETATM    5  N2  UNL     1      25.642   3.282  51.123  1.00  0.00    -0.224 NA
HETATM    6  C8  UNL     1      24.835   2.426  51.639  1.00  0.00     0.137 A 
ENDROOT
BRANCH   1   7
HETATM    7  C4  UNL     1      22.778   1.262  51.399  1.00  0.00     0.051 C 
HETATM    8  C3  UNL     1      21.480   1.170  51.990  1.00  0.00     0.079 C 
BRANCH   8   9
HETATM    9  C2  UNL     1      20.934   2.367  52.003  1.00  0.00    -0.126 C 
HETATM   10  C1  UNL     1      20.109   3.411  52.090  1.00  0.00     0.099 C 
ENDBRANCH   8   9
BRANCH   8  11
HETATM   11  N4  UNL     1      20.703   0.116  52.539  1.00  0.00    -0.302 N 
HETATM   12  C14 UNL     1      20.841  -0.536  53.789  1.00  0.00     0.318 C 
HETATM   13  N5  UNL     1      20.030  -1.588  54.283  1.00  0.00    -0.352 N 
HETATM   14  O1  UNL     1      21.754  -0.185  54.572  1.00  0.00    -0.247 OA
HETATM   15  H13 UNL     1      19.004  -1.392  54.292  1.00  0.00     0.160 HD
HETATM   16  H14 UNL     1      20.511  -2.469  54.598  1.00  0.00     0.160 HD
HETATM   17  H12 UNL     1      19.916  -0.296  52.034  1.00  0.00     0.171 HD
ENDBRANCH   8  11
ENDBRANCH   1   7
BRANCH   6  18
HETATM   18  N3  UNL     1      25.156   1.831  52.888  1.00  0.00    -0.344 N 
HETATM   19  H7  UNL     1      24.738   2.330  53.728  1.00  0.00     0.167 HD
BRANCH  18  20
HETATM   20  C9  UNL     1      25.980   0.652  52.901  1.00  0.00     0.015 A 
HETATM   21  C10 UNL     1      25.884  -0.659  52.671  1.00  0.00     0.026 A 
HETATM   22  C11 UNL     1      27.158  -1.338  52.871  1.00  0.00     0.017 A 
HETATM   23  C12 UNL     1      28.014  -0.401  53.224  1.00  0.00    -0.006 A 
HETATM   24 BR1  UNL     1      29.833  -0.834  53.594  1.00  0.00    -0.055 Br
HETATM   25  C13 UNL     1      27.389   0.923  53.283  1.00  0.00     0.103 A 
ENDBRANCH  18  20
ENDBRANCH   6  18
TORSDOF 5
ENDMDL
