MODEL 1
REMARK VINA RESULT:      -9.0      0.000      0.000
REMARK  4 active torsions:
REMARK  status: ('A' for Active; 'I' for Inactive)
REMARK    1  A    between atoms: C7_7  and  C8_8 
REMARK    2  A    between atoms: C8_8  and  N1_9 
REMARK    3  A    between atoms: C8_8  and  C9_10 
REMARK    4  A    between atoms: N3_28  and  O2_29 
ROOT
HETATM    1  C1  UNL     1      26.554   4.204  49.043  1.00  0.00     0.034 C 
HETATM    2  C2  UNL     1      25.992   5.169  50.097  1.00  0.00     0.106 C 
HETATM    3  C3  UNL     1      24.821   4.571  50.810  1.00  0.00     0.046 C 
HETATM    4  C4  UNL     1      23.496   4.946  50.260  1.00  0.00     0.048 C 
HETATM    5  C5  UNL     1      22.457   4.629  51.347  1.00  0.00     0.047 C 
HETATM    6  C6  UNL     1      22.756   3.393  52.081  1.00  0.00    -0.016 C 
HETATM    7  C7  UNL     1      22.538   2.063  52.124  1.00  0.00    -0.025 C 
HETATM    8  C15 UNL     1      21.977   0.981  51.279  1.00  0.00     0.009 C 
HETATM    9  C16 UNL     1      21.451   0.665  50.116  1.00  0.00     0.002 C 
HETATM   10  C17 UNL     1      21.029   1.092  48.793  1.00  0.00     0.017 C 
HETATM   11  C18 UNL     1      21.156   2.346  48.306  1.00  0.00     0.091 C 
HETATM   12  N2  UNL     1      21.774   3.280  49.223  1.00  0.00    -0.337 N 
HETATM   13  C19 UNL     1      23.044   4.004  49.142  1.00  0.00     0.230 C 
HETATM   14  O1  UNL     1      22.973   3.333  48.087  1.00  0.00    -0.272 OA
HETATM   15  C20 UNL     1      23.383   6.366  49.908  1.00  0.00     0.052 C 
HETATM   16  C21 UNL     1      24.584   7.000  49.294  1.00  0.00     0.048 C 
HETATM   17  C22 UNL     1      24.450   7.098  47.767  1.00  0.00     0.040 C 
HETATM   18  C23 UNL     1      24.587   8.458  49.738  1.00  0.00     0.040 C 
HETATM   19  N3  UNL     1      25.847   6.477  49.601  1.00  0.00    -0.283 N 
HETATM   20  H21 UNL     1      20.964   3.203  49.874  1.00  0.00     0.168 HD
ENDROOT
BRANCH   7  21
HETATM   21  C8  UNL     1      23.221   1.368  53.289  1.00  0.00     0.283 C 
BRANCH  21  22
HETATM   22  N1  UNL     1      22.480   0.196  53.667  1.00  0.00     0.091 N 
HETATM   23  H11 UNL     1      22.083   0.255  54.630  1.00  0.00     0.314 HD
HETATM   24  H12 UNL     1      21.797  -0.137  52.976  1.00  0.00     0.314 HD
ENDBRANCH  21  22
BRANCH  21  25
HETATM   25  C9  UNL     1      24.640   1.153  53.108  1.00  0.00    -0.019 A 
HETATM   26  C10 UNL     1      25.662   2.106  53.180  1.00  0.00     0.010 A 
HETATM   27  C11 UNL     1      26.994   1.819  52.995  1.00  0.00     0.002 A 
HETATM   28  C12 UNL     1      27.359   0.528  52.724  1.00  0.00     0.024 A 
HETATM   29  C13 UNL     1      26.441  -0.491  52.630  1.00  0.00     0.034 A 
HETATM   30 CL1  UNL     1      26.845  -2.159  52.286  1.00  0.00    -0.084 Cl
HETATM   31  C14 UNL     1      25.126  -0.128  52.826  1.00  0.00     0.033 A 
ENDBRANCH  21  25
ENDBRANCH   7  21
BRANCH  19  32
HETATM   32  O2  UNL     1      26.821   7.341  49.888  1.00  0.00    -0.291 OA
HETATM   33  H30 UNL     1      26.629   7.730  50.780  1.00  0.00     0.244 HD
ENDBRANCH  19  32
TORSDOF 4
ENDMDL
MODEL 2
REMARK VINA RESULT:      -9.0      2.759      4.258
REMARK  4 active torsions:
REMARK  status: ('A' for Active; 'I' for Inactive)
REMARK    1  A    between atoms: C7_7  and  C8_8 
REMARK    2  A    between atoms: C8_8  and  N1_9 
REMARK    3  A    between atoms: C8_8  and  C9_10 
REMARK    4  A    between atoms: N3_28  and  O2_29 
ROOT
HETATM    1  C1  UNL     1      21.506   1.729  48.209  1.00  0.00     0.034 C 
HETATM    2  C2  UNL     1      21.872   3.139  48.697  1.00  0.00     0.106 C 
HETATM    3  C3  UNL     1      22.722   3.084  49.926  1.00  0.00     0.046 C 
HETATM    4  C4  UNL     1      21.981   3.208  51.204  1.00  0.00     0.048 C 
HETATM    5  C5  UNL     1      23.011   3.578  52.282  1.00  0.00     0.047 C 
HETATM    6  C6  UNL     1      24.297   2.890  52.105  1.00  0.00    -0.016 C 
HETATM    7  C7  UNL     1      25.011   1.797  52.442  1.00  0.00    -0.025 C 
HETATM    8  C15 UNL     1      24.819   0.475  53.087  1.00  0.00     0.009 C 
HETATM    9  C16 UNL     1      23.960  -0.364  53.624  1.00  0.00     0.002 C 
HETATM   10  C17 UNL     1      22.585  -0.663  53.989  1.00  0.00     0.017 C 
HETATM   11  C18 UNL     1      21.527   0.141  53.742  1.00  0.00     0.091 C 
HETATM   12  N2  UNL     1      21.860   1.371  53.055  1.00  0.00    -0.337 N 
HETATM   13  C19 UNL     1      21.490   1.856  51.724  1.00  0.00     0.230 C 
HETATM   14  O1  UNL     1      20.934   0.739  51.841  1.00  0.00    -0.272 OA
HETATM   15  C20 UNL     1      20.937   4.240  51.184  1.00  0.00     0.052 C 
HETATM   16  C21 UNL     1      20.154   4.374  49.923  1.00  0.00     0.048 C 
HETATM   17  C22 UNL     1      18.793   3.670  50.028  1.00  0.00     0.040 C 
HETATM   18  C23 UNL     1      19.777   5.845  49.796  1.00  0.00     0.040 C 
HETATM   19  N3  UNL     1      20.761   4.001  48.717  1.00  0.00    -0.283 N 
HETATM   20  H21 UNL     1      22.408   1.701  53.878  1.00  0.00     0.168 HD
ENDROOT
BRANCH   7  21
HETATM   21  C8  UNL     1      26.404   1.766  51.841  1.00  0.00     0.283 C 
BRANCH  21  22
HETATM   22  N1  UNL     1      26.739   3.057  51.302  1.00  0.00     0.091 N 
HETATM   23  H11 UNL     1      26.210   3.288  50.434  1.00  0.00     0.314 HD
HETATM   24  H12 UNL     1      26.747   3.829  51.979  1.00  0.00     0.314 HD
ENDBRANCH  21  22
BRANCH  21  25
HETATM   25  C9  UNL     1      27.415   1.191  52.703  1.00  0.00    -0.019 A 
HETATM   26  C10 UNL     1      28.184   1.848  53.669  1.00  0.00     0.010 A 
HETATM   27  C11 UNL     1      29.129   1.226  54.451  1.00  0.00     0.002 A 
HETATM   28  C12 UNL     1      29.341  -0.116  54.286  1.00  0.00     0.024 A 
HETATM   29  C13 UNL     1      28.644  -0.863  53.367  1.00  0.00     0.034 A 
HETATM   30 CL1  UNL     1      28.870  -2.580  53.111  1.00  0.00    -0.084 Cl
HETATM   31  C14 UNL     1      27.714  -0.173  52.620  1.00  0.00     0.033 A 
ENDBRANCH  21  25
ENDBRANCH   7  21
BRANCH  19  32
HETATM   32  O2  UNL     1      20.615   4.818  47.673  1.00  0.00    -0.291 OA
HETATM   33  H30 UNL     1      20.086   4.338  46.984  1.00  0.00     0.244 HD
ENDBRANCH  19  32
TORSDOF 4
ENDMDL
MODEL 3
REMARK VINA RESULT:      -8.4      3.381      5.673
REMARK  4 active torsions:
REMARK  status: ('A' for Active; 'I' for Inactive)
REMARK    1  A    between atoms: C7_7  and  C8_8 
REMARK    2  A    between atoms: C8_8  and  N1_9 
REMARK    3  A    between atoms: C8_8  and  C9_10 
REMARK    4  A    between atoms: N3_28  and  O2_29 
ROOT
HETATM    1  C1  UNL     1      22.873   5.024  52.732  1.00  0.00     0.034 C 
HETATM    2  C2  UNL     1      22.008   4.398  51.628  1.00  0.00     0.106 C 
HETATM    3  C3  UNL     1      21.904   2.915  51.796  1.00  0.00     0.046 C 
HETATM    4  C4  UNL     1      22.879   2.127  51.002  1.00  0.00     0.048 C 
HETATM    5  C5  UNL     1      22.346   0.687  50.946  1.00  0.00     0.047 C 
HETATM    6  C6  UNL     1      21.726   0.256  52.206  1.00  0.00    -0.016 C 
HETATM    7  C7  UNL     1      21.952  -0.355  53.386  1.00  0.00    -0.025 C 
HETATM    8  C15 UNL     1      23.088  -0.813  54.223  1.00  0.00     0.009 C 
HETATM    9  C16 UNL     1      24.395  -0.874  54.352  1.00  0.00     0.002 C 
HETATM   10  C17 UNL     1      25.707  -0.551  53.817  1.00  0.00     0.017 C 
HETATM   11  C18 UNL     1      25.930   0.146  52.681  1.00  0.00     0.091 C 
HETATM   12  N2  UNL     1      24.727   0.578  52.002  1.00  0.00    -0.337 N 
HETATM   13  C19 UNL     1      24.200   1.919  51.745  1.00  0.00     0.230 C 
HETATM   14  O1  UNL     1      25.277   2.094  52.361  1.00  0.00    -0.272 OA
HETATM   15  C20 UNL     1      23.052   2.613  49.628  1.00  0.00     0.052 C 
HETATM   16  C21 UNL     1      23.050   4.091  49.437  1.00  0.00     0.048 C 
HETATM   17  C22 UNL     1      24.477   4.645  49.309  1.00  0.00     0.040 C 
HETATM   18  C23 UNL     1      22.449   4.355  48.061  1.00  0.00     0.040 C 
HETATM   19  N3  UNL     1      22.341   4.882  50.350  1.00  0.00    -0.283 N 
HETATM   20  H21 UNL     1      24.467  -0.411  51.799  1.00  0.00     0.168 HD
ENDROOT
BRANCH   7  21
HETATM   21  C8  UNL     1      20.718  -0.472  54.261  1.00  0.00     0.283 C 
BRANCH  21  22
HETATM   22  N1  UNL     1      20.629   0.660  55.144  1.00  0.00     0.091 N 
HETATM   23  H11 UNL     1      20.960   1.547  54.708  1.00  0.00     0.314 HD
HETATM   24  H12 UNL     1      19.732   0.769  55.633  1.00  0.00     0.314 HD
ENDBRANCH  21  22
BRANCH  21  25
HETATM   25  C9  UNL     1      19.500  -0.773  53.541  1.00  0.00    -0.019 A 
HETATM   26  C10 UNL     1      18.885  -0.003  52.548  1.00  0.00     0.010 A 
HETATM   27  C11 UNL     1      17.722  -0.362  51.908  1.00  0.00     0.002 A 
HETATM   28  C12 UNL     1      17.117  -1.541  52.252  1.00  0.00     0.024 A 
HETATM   29  C13 UNL     1      17.631  -2.377  53.213  1.00  0.00     0.034 A 
HETATM   30 CL1  UNL     1      16.905  -3.896  53.695  1.00  0.00    -0.084 Cl
HETATM   31  C14 UNL     1      18.798  -1.953  53.811  1.00  0.00     0.033 A 
ENDBRANCH  21  25
ENDBRANCH   7  21
BRANCH  19  32
HETATM   32  O2  UNL     1      21.578   5.860  49.860  1.00  0.00    -0.291 OA
HETATM   33  H30 UNL     1      22.130   6.386  49.225  1.00  0.00     0.244 HD
ENDBRANCH  19  32
TORSDOF 4
ENDMDL
MODEL 4
REMARK VINA RESULT:      -8.2      2.293      3.068
REMARK  4 active torsions:
REMARK  status: ('A' for Active; 'I' for Inactive)
REMARK    1  A    between atoms: C7_7  and  C8_8 
REMARK    2  A    between atoms: C8_8  and  N1_9 
REMARK    3  A    between atoms: C8_8  and  C9_10 
REMARK    4  A    between atoms: N3_28  and  O2_29 
ROOT
HETATM    1  C1  UNL     1      22.133   4.779  47.109  1.00  0.00     0.034 C 
HETATM    2  C2  UNL     1      22.876   5.857  47.912  1.00  0.00     0.106 C 
HETATM    3  C3  UNL     1      23.430   5.299  49.185  1.00  0.00     0.046 C 
HETATM    4  C4  UNL     1      22.570   5.492  50.377  1.00  0.00     0.048 C 
HETATM    5  C5  UNL     1      23.464   5.279  51.610  1.00  0.00     0.047 C 
HETATM    6  C6  UNL     1      24.440   4.198  51.429  1.00  0.00    -0.016 C 
HETATM    7  C7  UNL     1      24.661   2.879  51.604  1.00  0.00    -0.025 C 
HETATM    8  C15 UNL     1      23.915   1.642  51.939  1.00  0.00     0.009 C 
HETATM    9  C16 UNL     1      22.739   1.112  52.199  1.00  0.00     0.002 C 
HETATM   10  C17 UNL     1      21.305   1.295  52.350  1.00  0.00     0.017 C 
HETATM   11  C18 UNL     1      20.651   2.463  52.166  1.00  0.00     0.091 C 
HETATM   12  N2  UNL     1      21.503   3.570  51.786  1.00  0.00    -0.337 N 
HETATM   13  C19 UNL     1      21.559   4.358  50.554  1.00  0.00     0.230 C 
HETATM   14  O1  UNL     1      20.638   3.526  50.379  1.00  0.00    -0.272 OA
HETATM   15  C20 UNL     1      21.969   6.828  50.463  1.00  0.00     0.052 C 
HETATM   16  C21 UNL     1      21.511   7.438  49.183  1.00  0.00     0.048 C 
HETATM   17  C22 UNL     1      19.994   7.286  48.999  1.00  0.00     0.040 C 
HETATM   18  C23 UNL     1      21.695   8.944  49.324  1.00  0.00     0.040 C 
HETATM   19  N3  UNL     1      22.148   7.058  47.995  1.00  0.00    -0.283 N 
HETATM   20  H21 UNL     1      21.981   3.541  52.712  1.00  0.00     0.168 HD
ENDROOT
BRANCH   7  21
HETATM   21  C8  UNL     1      26.038   2.424  51.157  1.00  0.00     0.283 C 
BRANCH  21  22
HETATM   22  N1  UNL     1      26.798   3.546  50.677  1.00  0.00     0.091 N 
HETATM   23  H11 UNL     1      26.310   4.081  49.927  1.00  0.00     0.314 HD
HETATM   24  H12 UNL     1      27.195   4.154  51.403  1.00  0.00     0.314 HD
ENDBRANCH  21  22
BRANCH  21  25
HETATM   25  C9  UNL     1      26.732   1.590  52.115  1.00  0.00    -0.019 A 
HETATM   26  C10 UNL     1      27.479   2.006  53.222  1.00  0.00     0.010 A 
HETATM   27  C11 UNL     1      28.111   1.145  54.089  1.00  0.00     0.002 A 
HETATM   28  C12 UNL     1      28.014  -0.202  53.868  1.00  0.00     0.024 A 
HETATM   29  C13 UNL     1      27.307  -0.725  52.812  1.00  0.00     0.034 A 
HETATM   30 CL1  UNL     1      27.146  -2.435  52.478  1.00  0.00    -0.084 Cl
HETATM   31  C14 UNL     1      26.700   0.198  51.986  1.00  0.00     0.033 A 
ENDBRANCH  21  25
ENDBRANCH   7  21
BRANCH  19  32
HETATM   32  O2  UNL     1      22.476   8.020  47.133  1.00  0.00    -0.291 OA
HETATM   33  H30 UNL     1      23.146   7.648  46.502  1.00  0.00     0.244 HD
ENDBRANCH  19  32
TORSDOF 4
ENDMDL
MODEL 5
REMARK VINA RESULT:      -8.0      3.170      5.417
REMARK  4 active torsions:
REMARK  status: ('A' for Active; 'I' for Inactive)
REMARK    1  A    between atoms: C7_7  and  C8_8 
REMARK    2  A    between atoms: C8_8  and  N1_9 
REMARK    3  A    between atoms: C8_8  and  C9_10 
REMARK    4  A    between atoms: N3_28  and  O2_29 
ROOT
HETATM    1  C1  UNL     1      23.395   5.297  53.224  1.00  0.00     0.034 C 
HETATM    2  C2  UNL     1      22.673   4.930  51.919  1.00  0.00     0.106 C 
HETATM    3  C3  UNL     1      22.459   3.453  51.814  1.00  0.00     0.046 C 
HETATM    4  C4  UNL     1      23.496   2.726  51.042  1.00  0.00     0.048 C 
HETATM    5  C5  UNL     1      22.895   1.362  50.666  1.00  0.00     0.047 C 
HETATM    6  C6  UNL     1      22.067   0.787  51.735  1.00  0.00    -0.016 C 
HETATM    7  C7  UNL     1      22.076  -0.023  52.813  1.00  0.00    -0.025 C 
HETATM    8  C15 UNL     1      23.042  -0.701  53.710  1.00  0.00     0.009 C 
HETATM    9  C16 UNL     1      24.309  -0.889  54.009  1.00  0.00     0.002 C 
HETATM   10  C17 UNL     1      25.704  -0.594  53.726  1.00  0.00     0.017 C 
HETATM   11  C18 UNL     1      26.136   0.255  52.769  1.00  0.00     0.091 C 
HETATM   12  N2  UNL     1      25.077   0.888  52.011  1.00  0.00    -0.337 N 
HETATM   13  C19 UNL     1      24.674   2.292  51.916  1.00  0.00     0.230 C 
HETATM   14  O1  UNL     1      25.654   2.277  52.698  1.00  0.00    -0.272 OA
HETATM   15  C20 UNL     1      23.904   3.410  49.809  1.00  0.00     0.052 C 
HETATM   16  C21 UNL     1      24.016   4.894  49.875  1.00  0.00     0.048 C 
HETATM   17  C22 UNL     1      25.475   5.342  50.045  1.00  0.00     0.040 C 
HETATM   18  C23 UNL     1      23.648   5.424  48.495  1.00  0.00     0.040 C 
HETATM   19  N3  UNL     1      23.223   5.584  50.802  1.00  0.00    -0.283 N 
HETATM   20  H21 UNL     1      24.795  -0.030  51.608  1.00  0.00     0.168 HD
ENDROOT
BRANCH   7  21
HETATM   21  C8  UNL     1      20.718  -0.176  53.474  1.00  0.00     0.283 C 
BRANCH  21  22
HETATM   22  N1  UNL     1      20.753   0.364  54.806  1.00  0.00     0.091 N 
HETATM   23  H11 UNL     1      19.914   0.938  55.038  1.00  0.00     0.314 HD
HETATM   24  H12 UNL     1      20.993  -0.305  55.547  1.00  0.00     0.314 HD
ENDBRANCH  21  22
BRANCH  21  25
HETATM   25  C9  UNL     1      19.605   0.278  52.667  1.00  0.00    -0.019 A 
HETATM   26  C10 UNL     1      18.568  -0.496  52.135  1.00  0.00     0.010 A 
HETATM   27  C11 UNL     1      17.542   0.015  51.375  1.00  0.00     0.002 A 
HETATM   28  C12 UNL     1      17.520   1.358  51.115  1.00  0.00     0.024 A 
HETATM   29  C13 UNL     1      18.486   2.214  51.585  1.00  0.00     0.034 A 
HETATM   30 CL1  UNL     1      18.512   3.939  51.286  1.00  0.00    -0.084 Cl
HETATM   31  C14 UNL     1      19.483   1.632  52.339  1.00  0.00     0.033 A 
ENDBRANCH  21  25
ENDBRANCH   7  21
BRANCH  19  32
HETATM   32  O2  UNL     1      22.602   6.687  50.385  1.00  0.00    -0.291 OA
HETATM   33  H30 UNL     1      22.901   7.440  50.958  1.00  0.00     0.244 HD
ENDBRANCH  19  32
TORSDOF 4
ENDMDL
MODEL 6
REMARK VINA RESULT:      -8.0      3.290      6.604
REMARK  4 active torsions:
REMARK  status: ('A' for Active; 'I' for Inactive)
REMARK    1  A    between atoms: C7_7  and  C8_8 
REMARK    2  A    between atoms: C8_8  and  N1_9 
REMARK    3  A    between atoms: C8_8  and  C9_10 
REMARK    4  A    between atoms: N3_28  and  O2_29 
ROOT
HETATM    1  C1  UNL     1      23.404   2.920  52.958  1.00  0.00     0.034 C 
HETATM    2  C2  UNL     1      23.347   1.566  52.236  1.00  0.00     0.106 C 
HETATM    3  C3  UNL     1      22.438   1.621  51.050  1.00  0.00     0.046 C 
HETATM    4  C4  UNL     1      21.053   1.156  51.303  1.00  0.00     0.048 C 
HETATM    5  C5  UNL     1      20.425   0.861  49.931  1.00  0.00     0.047 C 
HETATM    6  C6  UNL     1      20.825   1.826  48.900  1.00  0.00    -0.016 C 
HETATM    7  C7  UNL     1      20.495   2.985  48.296  1.00  0.00    -0.025 C 
HETATM    8  C15 UNL     1      19.564   4.127  48.470  1.00  0.00     0.009 C 
HETATM    9  C16 UNL     1      18.638   4.675  49.227  1.00  0.00     0.002 C 
HETATM   10  C17 UNL     1      17.832   4.616  50.435  1.00  0.00     0.017 C 
HETATM   11  C18 UNL     1      17.917   3.649  51.376  1.00  0.00     0.091 C 
HETATM   12  N2  UNL     1      18.911   2.633  51.097  1.00  0.00    -0.337 N 
HETATM   13  C19 UNL     1      20.144   2.280  51.802  1.00  0.00     0.230 C 
HETATM   14  O1  UNL     1      19.641   3.223  52.457  1.00  0.00    -0.272 OA
HETATM   15  C20 UNL     1      20.978  -0.062  52.120  1.00  0.00     0.052 C 
HETATM   16  C21 UNL     1      21.953  -0.175  53.241  1.00  0.00     0.048 C 
HETATM   17  C22 UNL     1      21.311   0.199  54.586  1.00  0.00     0.040 C 
HETATM   18  C23 UNL     1      22.265  -1.657  53.404  1.00  0.00     0.040 C 
HETATM   19  N3  UNL     1      23.180   0.492  53.129  1.00  0.00    -0.283 N 
HETATM   20  H21 UNL     1      18.371   2.311  50.266  1.00  0.00     0.168 HD
ENDROOT
BRANCH   7  21
HETATM   21  C8  UNL     1      21.458   3.401  47.199  1.00  0.00     0.283 C 
BRANCH  21  22
HETATM   22  N1  UNL     1      20.735   3.708  45.995  1.00  0.00     0.091 N 
HETATM   23  H11 UNL     1      20.446   2.859  45.463  1.00  0.00     0.314 HD
HETATM   24  H12 UNL     1      19.973   4.389  46.099  1.00  0.00     0.314 HD
ENDBRANCH  21  22
BRANCH  21  25
HETATM   25  C9  UNL     1      22.421   4.406  47.598  1.00  0.00    -0.019 A 
HETATM   26  C10 UNL     1      22.538   5.712  47.112  1.00  0.00     0.010 A 
HETATM   27  C11 UNL     1      23.485   6.610  47.546  1.00  0.00     0.002 A 
HETATM   28  C12 UNL     1      24.373   6.218  48.511  1.00  0.00     0.024 A 
HETATM   29  C13 UNL     1      24.352   4.959  49.060  1.00  0.00     0.034 A 
HETATM   30 CL1  UNL     1      25.459   4.399  50.296  1.00  0.00    -0.084 Cl
HETATM   31  C14 UNL     1      23.376   4.113  48.577  1.00  0.00     0.033 A 
ENDBRANCH  21  25
ENDBRANCH   7  21
BRANCH  19  32
HETATM   32  O2  UNL     1      24.280  -0.176  53.480  1.00  0.00    -0.291 OA
HETATM   33  H30 UNL     1      24.430  -0.890  52.807  1.00  0.00     0.244 HD
ENDBRANCH  19  32
TORSDOF 4
ENDMDL
MODEL 7
REMARK VINA RESULT:      -7.8      5.492      8.700
REMARK  4 active torsions:
REMARK  status: ('A' for Active; 'I' for Inactive)
REMARK    1  A    between atoms: C7_7  and  C8_8 
REMARK    2  A    between atoms: C8_8  and  N1_9 
REMARK    3  A    between atoms: C8_8  and  C9_10 
REMARK    4  A    between atoms: N3_28  and  O2_29 
ROOT
HETATM    1  C1  UNL     1      25.489   7.338  50.452  1.00  0.00     0.034 C 
HETATM    2  C2  UNL     1      25.556   6.717  49.049  1.00  0.00     0.106 C 
HETATM    3  C3  UNL     1      26.862   7.016  48.385  1.00  0.00     0.046 C 
HETATM    4  C4  UNL     1      26.851   8.196  47.487  1.00  0.00     0.048 C 
HETATM    5  C5  UNL     1      28.088   8.080  46.582  1.00  0.00     0.047 C 
HETATM    6  C6  UNL     1      29.265   7.556  47.287  1.00  0.00    -0.016 C 
HETATM    7  C7  UNL     1      30.368   7.898  47.983  1.00  0.00    -0.025 C 
HETATM    8  C15 UNL     1      30.968   9.084  48.642  1.00  0.00     0.009 C 
HETATM    9  C16 UNL     1      30.817  10.353  48.954  1.00  0.00     0.002 C 
HETATM   10  C17 UNL     1      29.987  11.545  48.919  1.00  0.00     0.017 C 
HETATM   11  C18 UNL     1      28.747  11.610  48.386  1.00  0.00     0.091 C 
HETATM   12  N2  UNL     1      28.271  10.360  47.832  1.00  0.00    -0.337 N 
HETATM   13  C19 UNL     1      27.159   9.496  48.232  1.00  0.00     0.230 C 
HETATM   14  O1  UNL     1      27.138  10.462  49.031  1.00  0.00    -0.272 OA
HETATM   15  C20 UNL     1      25.658   8.280  46.636  1.00  0.00     0.052 C 
HETATM   16  C21 UNL     1      24.364   7.881  47.258  1.00  0.00     0.048 C 
HETATM   17  C22 UNL     1      23.552   9.106  47.704  1.00  0.00     0.040 C 
HETATM   18  C23 UNL     1      23.510   7.282  46.148  1.00  0.00     0.040 C 
HETATM   19  N3  UNL     1      24.385   6.951  48.306  1.00  0.00    -0.283 N 
HETATM   20  H21 UNL     1      29.006  10.388  47.094  1.00  0.00     0.168 HD
ENDROOT
BRANCH   7  21
HETATM   21  C8  UNL     1      31.206   6.711  48.424  1.00  0.00     0.283 C 
BRANCH  21  22
HETATM   22  N1  UNL     1      30.479   5.920  49.380  1.00  0.00     0.091 N 
HETATM   23  H11 UNL     1      30.745   6.124  50.367  1.00  0.00     0.314 HD
HETATM   24  H12 UNL     1      29.462   5.886  49.243  1.00  0.00     0.314 HD
ENDBRANCH  21  22
BRANCH  21  25
HETATM   25  C9  UNL     1      31.792   5.956  47.337  1.00  0.00    -0.019 A 
HETATM   26  C10 UNL     1      32.420   6.460  46.193  1.00  0.00     0.010 A 
HETATM   27  C11 UNL     1      32.955   5.671  45.202  1.00  0.00     0.002 A 
HETATM   28  C12 UNL     1      32.875   4.310  45.327  1.00  0.00     0.024 A 
HETATM   29  C13 UNL     1      32.280   3.705  46.407  1.00  0.00     0.034 A 
HETATM   30 CL1  UNL     1      32.148   1.973  46.624  1.00  0.00    -0.084 Cl
HETATM   31  C14 UNL     1      31.767   4.558  47.361  1.00  0.00     0.033 A 
ENDBRANCH  21  25
ENDBRANCH   7  21
BRANCH  19  32
HETATM   32  O2  UNL     1      23.484   5.968  48.278  1.00  0.00    -0.291 OA
HETATM   33  H30 UNL     1      23.244   5.749  49.216  1.00  0.00     0.244 HD
ENDBRANCH  19  32
TORSDOF 4
ENDMDL
MODEL 8
REMARK VINA RESULT:      -7.7      6.190      9.718
REMARK  4 active torsions:
REMARK  status: ('A' for Active; 'I' for Inactive)
REMARK    1  A    between atoms: C7_7  and  C8_8 
REMARK    2  A    between atoms: C8_8  and  N1_9 
REMARK    3  A    between atoms: C8_8  and  C9_10 
REMARK    4  A    between atoms: N3_28  and  O2_29 
ROOT
HETATM    1  C1  UNL     1      32.385   8.597  44.852  1.00  0.00     0.034 C 
HETATM    2  C2  UNL     1      32.405   7.483  45.909  1.00  0.00     0.106 C 
HETATM    3  C3  UNL     1      31.348   7.698  46.944  1.00  0.00     0.046 C 
HETATM    4  C4  UNL     1      31.807   8.396  48.169  1.00  0.00     0.048 C 
HETATM    5  C5  UNL     1      30.753   8.128  49.255  1.00  0.00     0.047 C 
HETATM    6  C6  UNL     1      29.380   8.134  48.734  1.00  0.00    -0.016 C 
HETATM    7  C7  UNL     1      28.295   8.904  48.511  1.00  0.00    -0.025 C 
HETATM    8  C15 UNL     1      27.908  10.335  48.495  1.00  0.00     0.009 C 
HETATM    9  C16 UNL     1      28.315  11.579  48.629  1.00  0.00     0.002 C 
HETATM   10  C17 UNL     1      29.410  12.502  48.876  1.00  0.00     0.017 C 
HETATM   11  C18 UNL     1      30.699  12.142  49.063  1.00  0.00     0.091 C 
HETATM   12  N2  UNL     1      30.935  10.715  48.993  1.00  0.00    -0.337 N 
HETATM   13  C19 UNL     1      31.711   9.918  48.042  1.00  0.00     0.230 C 
HETATM   14  O1  UNL     1      31.836  11.106  47.663  1.00  0.00    -0.272 OA
HETATM   15  C20 UNL     1      33.110   7.932  48.661  1.00  0.00     0.052 C 
HETATM   16  C21 UNL     1      34.137   7.613  47.630  1.00  0.00     0.048 C 
HETATM   17  C22 UNL     1      35.142   8.762  47.461  1.00  0.00     0.040 C 
HETATM   18  C23 UNL     1      34.991   6.485  48.197  1.00  0.00     0.040 C 
HETATM   19  N3  UNL     1      33.707   7.202  46.362  1.00  0.00    -0.283 N 
HETATM   20  H21 UNL     1      30.367  10.563  49.853  1.00  0.00     0.168 HD
ENDROOT
BRANCH   7  21
HETATM   21  C8  UNL     1      27.125   8.151  47.904  1.00  0.00     0.283 C 
BRANCH  21  22
HETATM   22  N1  UNL     1      27.233   8.141  46.470  1.00  0.00     0.091 N 
HETATM   23  H11 UNL     1      27.038   7.207  46.051  1.00  0.00     0.314 HD
HETATM   24  H12 UNL     1      26.745   8.904  45.985  1.00  0.00     0.314 HD
ENDBRANCH  21  22
BRANCH  21  25
HETATM   25  C9  UNL     1      26.873   6.856  48.499  1.00  0.00    -0.019 A 
HETATM   26  C10 UNL     1      27.605   5.678  48.316  1.00  0.00     0.010 A 
HETATM   27  C11 UNL     1      27.298   4.482  48.922  1.00  0.00     0.002 A 
HETATM   28  C12 UNL     1      26.216   4.425  49.758  1.00  0.00     0.024 A 
HETATM   29  C13 UNL     1      25.425   5.519  50.012  1.00  0.00     0.034 A 
HETATM   30 CL1  UNL     1      24.029   5.509  51.069  1.00  0.00    -0.084 Cl
HETATM   31  C14 UNL     1      25.792   6.683  49.370  1.00  0.00     0.033 A 
ENDBRANCH  21  25
ENDBRANCH   7  21
BRANCH  19  32
HETATM   32  O2  UNL     1      34.325   6.159  45.807  1.00  0.00    -0.291 OA
HETATM   33  H30 UNL     1      34.188   5.374  46.400  1.00  0.00     0.244 HD
ENDBRANCH  19  32
TORSDOF 4
ENDMDL
MODEL 9
REMARK VINA RESULT:      -7.6      6.663      9.591
REMARK  4 active torsions:
REMARK  status: ('A' for Active; 'I' for Inactive)
REMARK    1  A    between atoms: C7_7  and  C8_8 
REMARK    2  A    between atoms: C8_8  and  N1_9 
REMARK    3  A    between atoms: C8_8  and  C9_10 
REMARK    4  A    between atoms: N3_28  and  O2_29 
ROOT
HETATM    1  C1  UNL     1      30.056  10.452  44.631  1.00  0.00     0.034 C 
HETATM    2  C2  UNL     1      30.635  11.156  45.866  1.00  0.00     0.106 C 
HETATM    3  C3  UNL     1      30.797  10.203  47.008  1.00  0.00     0.046 C 
HETATM    4  C4  UNL     1      29.670  10.185  47.972  1.00  0.00     0.048 C 
HETATM    5  C5  UNL     1      30.194   9.524  49.256  1.00  0.00     0.047 C 
HETATM    6  C6  UNL     1      31.108   8.406  48.992  1.00  0.00    -0.016 C 
HETATM    7  C7  UNL     1      31.185   7.071  48.815  1.00  0.00    -0.025 C 
HETATM    8  C15 UNL     1      30.295   5.907  48.585  1.00  0.00     0.009 C 
HETATM    9  C16 UNL     1      29.059   5.498  48.397  1.00  0.00     0.002 C 
HETATM   10  C17 UNL     1      27.652   5.833  48.261  1.00  0.00     0.017 C 
HETATM   11  C18 UNL     1      27.149   7.087  48.287  1.00  0.00     0.091 C 
HETATM   12  N2  UNL     1      28.144   8.124  48.460  1.00  0.00    -0.337 N 
HETATM   13  C19 UNL     1      28.573   9.200  47.565  1.00  0.00     0.230 C 
HETATM   14  O1  UNL     1      27.676   8.584  46.943  1.00  0.00    -0.272 OA
HETATM   15  C20 UNL     1      29.160  11.520  48.310  1.00  0.00     0.052 C 
HETATM   16  C21 UNL     1      29.095  12.511  47.199  1.00  0.00     0.048 C 
HETATM   17  C22 UNL     1      27.672  12.629  46.633  1.00  0.00     0.040 C 
HETATM   18  C23 UNL     1      29.338  13.882  47.819  1.00  0.00     0.040 C 
HETATM   19  N3  UNL     1      29.994  12.380  46.132  1.00  0.00    -0.283 N 
HETATM   20  H21 UNL     1      28.361   7.779  49.419  1.00  0.00     0.168 HD
ENDROOT
BRANCH   7  21
HETATM   21  C8  UNL     1      32.597   6.565  48.583  1.00  0.00     0.283 C 
BRANCH  21  22
HETATM   22  N1  UNL     1      32.878   5.464  49.463  1.00  0.00     0.091 N 
HETATM   23  H11 UNL     1      32.845   5.726  50.472  1.00  0.00     0.314 HD
HETATM   24  H12 UNL     1      32.367   4.596  49.262  1.00  0.00     0.314 HD
ENDBRANCH  21  22
BRANCH  21  25
HETATM   25  C9  UNL     1      32.926   6.327  47.194  1.00  0.00    -0.019 A 
HETATM   26  C10 UNL     1      32.504   7.061  46.081  1.00  0.00     0.010 A 
HETATM   27  C11 UNL     1      32.864   6.768  44.786  1.00  0.00     0.002 A 
HETATM   28  C12 UNL     1      33.684   5.697  44.556  1.00  0.00     0.024 A 
HETATM   29  C13 UNL     1      34.160   4.904  45.573  1.00  0.00     0.034 A 
HETATM   30 CL1  UNL     1      35.211   3.523  45.343  1.00  0.00    -0.084 Cl
HETATM   31  C14 UNL     1      33.758   5.258  46.843  1.00  0.00     0.033 A 
ENDBRANCH  21  25
ENDBRANCH   7  21
BRANCH  19  32
HETATM   32  O2  UNL     1      30.600  13.484  45.695  1.00  0.00    -0.291 OA
HETATM   33  H30 UNL     1      31.203  13.805  46.415  1.00  0.00     0.244 HD
ENDBRANCH  19  32
TORSDOF 4
ENDMDL
