MODEL 1
REMARK VINA RESULT:      -8.5      0.000      0.000
REMARK  0 active torsions:
REMARK  status: ('A' for Active; 'I' for Inactive)
ROOT
HETATM    1  O1  UNL     1      26.591   1.775  51.401  1.00  0.00    -0.266 OA
HETATM    2  C1  UNL     1      25.390   2.112  51.433  1.00  0.00     0.268 C 
HETATM    3  N1  UNL     1      24.252   1.836  52.297  1.00  0.00    -0.354 N 
HETATM    4  C2  UNL     1      23.736   3.185  52.690  1.00  0.00     0.150 C 
HETATM    5  C3  UNL     1      23.459   4.102  51.552  1.00  0.00     0.126 C 
HETATM    6  C4  UNL     1      23.986   5.466  51.566  1.00  0.00     0.152 C 
HETATM    7  N2  UNL     1      24.333   6.209  50.341  1.00  0.00    -0.357 N 
HETATM    8  C5  UNL     1      23.807   7.271  49.536  1.00  0.00     0.293 C 
HETATM    9  O2  UNL     1      22.539   7.092  49.204  1.00  0.00    -0.368 OA
HETATM   10  C6  UNL     1      21.849   6.417  48.314  1.00  0.00     0.208 C 
HETATM   11  C7  UNL     1      21.926   4.966  48.165  1.00  0.00    -0.032 A 
HETATM   12  C8  UNL     1      21.909   4.297  46.959  1.00  0.00     0.009 A 
HETATM   13  C9  UNL     1      22.309   2.952  47.012  1.00  0.00     0.003 A 
HETATM   14  C10 UNL     1      22.705   2.352  48.229  1.00  0.00     0.029 A 
HETATM   15  C11 UNL     1      22.553   3.373  49.080  1.00  0.00     0.036 A 
HETATM   16  C12 UNL     1      22.234   4.635  49.436  1.00  0.00     0.039 A 
HETATM   17  N3  UNL     1      23.458   3.486  50.241  1.00  0.00    -0.334 N 
HETATM   18  C13 UNL     1      24.833   3.029  50.364  1.00  0.00     0.104 C 
HETATM   19  C14 UNL     1      26.066   3.404  49.783  1.00  0.00     0.049 C 
HETATM   20  C15 UNL     1      26.409   4.840  49.350  1.00  0.00    -0.007 A 
HETATM   21  C16 UNL     1      27.566   4.715  48.693  1.00  0.00     0.014 A 
HETATM   22  C17 UNL     1      27.972   5.943  48.232  1.00  0.00     0.001 A 
HETATM   23  C18 UNL     1      27.277   7.119  48.429  1.00  0.00     0.002 A 
HETATM   24  C19 UNL     1      26.092   7.175  49.116  1.00  0.00     0.030 A 
HETATM   25  C20 UNL     1      25.601   5.997  49.616  1.00  0.00     0.042 A 
HETATM   26  H1  UNL     1      24.106   0.808  52.429  1.00  0.00     0.162 HD
ENDROOT
TORSDOF 0
ENDMDL
MODEL 2
REMARK VINA RESULT:      -8.3      2.238      5.588
REMARK  0 active torsions:
REMARK  status: ('A' for Active; 'I' for Inactive)
ROOT
HETATM    1  O1  UNL     1      24.516   5.927  48.774  1.00  0.00    -0.266 OA
HETATM    2  C1  UNL     1      24.683   5.644  49.978  1.00  0.00     0.268 C 
HETATM    3  N1  UNL     1      25.029   6.380  51.184  1.00  0.00    -0.354 N 
HETATM    4  C2  UNL     1      23.944   6.046  52.159  1.00  0.00     0.150 C 
HETATM    5  C3  UNL     1      23.706   4.590  52.352  1.00  0.00     0.126 C 
HETATM    6  C4  UNL     1      22.348   4.053  52.270  1.00  0.00     0.152 C 
HETATM    7  N2  UNL     1      22.049   2.682  51.818  1.00  0.00    -0.357 N 
HETATM    8  C5  UNL     1      21.659   1.422  52.375  1.00  0.00     0.293 C 
HETATM    9  O2  UNL     1      22.424   1.042  53.387  1.00  0.00    -0.368 OA
HETATM   10  C6  UNL     1      23.593   0.473  53.566  1.00  0.00     0.208 C 
HETATM   11  C7  UNL     1      24.842   1.010  53.032  1.00  0.00    -0.032 A 
HETATM   12  C8  UNL     1      25.865   0.249  52.509  1.00  0.00     0.009 A 
HETATM   13  C9  UNL     1      26.825   0.959  51.769  1.00  0.00     0.003 A 
HETATM   14  C10 UNL     1      26.720   2.355  51.582  1.00  0.00     0.029 A 
HETATM   15  C11 UNL     1      25.599   2.622  52.260  1.00  0.00     0.036 A 
HETATM   16  C12 UNL     1      24.525   2.322  53.019  1.00  0.00     0.039 A 
HETATM   17  N3  UNL     1      24.718   3.714  51.799  1.00  0.00    -0.334 N 
HETATM   18  C13 UNL     1      24.527   4.212  50.446  1.00  0.00     0.104 C 
HETATM   19  C14 UNL     1      23.954   3.693  49.262  1.00  0.00     0.049 C 
HETATM   20  C15 UNL     1      22.774   2.705  49.241  1.00  0.00    -0.007 A 
HETATM   21  C16 UNL     1      22.681   2.335  47.960  1.00  0.00     0.014 A 
HETATM   22  C17 UNL     1      21.663   1.426  47.814  1.00  0.00     0.001 A 
HETATM   23  C18 UNL     1      20.866   0.974  48.847  1.00  0.00     0.002 A 
HETATM   24  C19 UNL     1      21.017   1.397  50.142  1.00  0.00     0.030 A 
HETATM   25  C20 UNL     1      22.011   2.308  50.391  1.00  0.00     0.042 A 
HETATM   26  H1  UNL     1      25.903   6.943  51.057  1.00  0.00     0.162 HD
ENDROOT
TORSDOF 0
ENDMDL
MODEL 3
REMARK VINA RESULT:      -8.1      7.145      9.723
REMARK  0 active torsions:
REMARK  status: ('A' for Active; 'I' for Inactive)
ROOT
HETATM    1  O1  UNL     1      35.247   3.210  47.174  1.00  0.00    -0.266 OA
HETATM    2  C1  UNL     1      34.830   4.149  47.883  1.00  0.00     0.268 C 
HETATM    3  N1  UNL     1      35.153   4.689  49.194  1.00  0.00    -0.354 N 
HETATM    4  C2  UNL     1      35.413   6.144  48.955  1.00  0.00     0.150 C 
HETATM    5  C3  UNL     1      34.331   6.858  48.224  1.00  0.00     0.126 C 
HETATM    6  C4  UNL     1      34.656   7.691  47.067  1.00  0.00     0.152 C 
HETATM    7  N2  UNL     1      33.727   7.907  45.943  1.00  0.00    -0.357 N 
HETATM    8  C5  UNL     1      32.864   8.931  45.436  1.00  0.00     0.293 C 
HETATM    9  O2  UNL     1      32.047   9.423  46.354  1.00  0.00    -0.368 OA
HETATM   10  C6  UNL     1      30.910   9.100  46.921  1.00  0.00     0.208 C 
HETATM   11  C7  UNL     1      30.692   7.842  47.633  1.00  0.00    -0.032 A 
HETATM   12  C8  UNL     1      29.529   7.103  47.585  1.00  0.00     0.009 A 
HETATM   13  C9  UNL     1      29.632   5.789  48.071  1.00  0.00     0.003 A 
HETATM   14  C10 UNL     1      30.856   5.283  48.562  1.00  0.00     0.029 A 
HETATM   15  C11 UNL     1      31.655   6.345  48.406  1.00  0.00     0.036 A 
HETATM   16  C12 UNL     1      31.952   7.613  48.056  1.00  0.00     0.039 A 
HETATM   17  N3  UNL     1      33.083   6.135  48.096  1.00  0.00    -0.334 N 
HETATM   18  C13 UNL     1      33.701   5.029  47.384  1.00  0.00     0.104 C 
HETATM   19  C14 UNL     1      33.683   4.564  46.049  1.00  0.00     0.049 C 
HETATM   20  C15 UNL     1      33.531   5.482  44.824  1.00  0.00    -0.007 A 
HETATM   21  C16 UNL     1      33.374   4.638  43.800  1.00  0.00     0.014 A 
HETATM   22  C17 UNL     1      33.206   5.346  42.636  1.00  0.00     0.001 A 
HETATM   23  C18 UNL     1      33.203   6.724  42.555  1.00  0.00     0.002 A 
HETATM   24  C19 UNL     1      33.370   7.533  43.650  1.00  0.00     0.030 A 
HETATM   25  C20 UNL     1      33.546   6.918  44.862  1.00  0.00     0.042 A 
HETATM   26  H1  UNL     1      35.137   3.948  49.933  1.00  0.00     0.162 HD
ENDROOT
TORSDOF 0
ENDMDL
MODEL 4
REMARK VINA RESULT:      -8.1      6.214      9.494
REMARK  0 active torsions:
REMARK  status: ('A' for Active; 'I' for Inactive)
ROOT
HETATM    1  O1  UNL     1      28.947   5.129  48.409  1.00  0.00    -0.266 OA
HETATM    2  C1  UNL     1      29.339   6.299  48.216  1.00  0.00     0.268 C 
HETATM    3  N1  UNL     1      28.842   7.630  48.529  1.00  0.00    -0.354 N 
HETATM    4  C2  UNL     1      29.972   8.300  49.248  1.00  0.00     0.150 C 
HETATM    5  C3  UNL     1      31.276   8.262  48.532  1.00  0.00     0.126 C 
HETATM    6  C4  UNL     1      32.482   7.824  49.232  1.00  0.00     0.152 C 
HETATM    7  N2  UNL     1      33.610   7.158  48.555  1.00  0.00    -0.357 N 
HETATM    8  C5  UNL     1      34.938   7.464  48.114  1.00  0.00     0.293 C 
HETATM    9  O2  UNL     1      35.002   8.565  47.382  1.00  0.00    -0.368 OA
HETATM   10  C6  UNL     1      34.779   8.925  46.140  1.00  0.00     0.208 C 
HETATM   11  C7  UNL     1      33.496   8.743  45.465  1.00  0.00    -0.032 A 
HETATM   12  C8  UNL     1      33.348   8.367  44.147  1.00  0.00     0.009 A 
HETATM   13  C9  UNL     1      32.059   7.943  43.785  1.00  0.00     0.003 A 
HETATM   14  C10 UNL     1      31.007   7.905  44.728  1.00  0.00     0.029 A 
HETATM   15  C11 UNL     1      31.629   8.350  45.825  1.00  0.00     0.036 A 
HETATM   16  C12 UNL     1      32.677   8.817  46.535  1.00  0.00     0.039 A 
HETATM   17  N3  UNL     1      31.215   7.842  47.147  1.00  0.00    -0.334 N 
HETATM   18  C13 UNL     1      30.639   6.549  47.479  1.00  0.00     0.104 C 
HETATM   19  C14 UNL     1      31.109   5.216  47.480  1.00  0.00     0.049 C 
HETATM   20  C15 UNL     1      32.570   4.822  47.764  1.00  0.00    -0.007 A 
HETATM   21  C16 UNL     1      32.617   3.517  47.481  1.00  0.00     0.014 A 
HETATM   22  C17 UNL     1      33.891   3.045  47.678  1.00  0.00     0.001 A 
HETATM   23  C18 UNL     1      34.952   3.819  48.106  1.00  0.00     0.002 A 
HETATM   24  C19 UNL     1      34.832   5.157  48.380  1.00  0.00     0.030 A 
HETATM   25  C20 UNL     1      33.594   5.723  48.212  1.00  0.00     0.042 A 
HETATM   26  H1  UNL     1      27.858   7.764  48.199  1.00  0.00     0.162 HD
ENDROOT
TORSDOF 0
ENDMDL
MODEL 5
REMARK VINA RESULT:      -7.5      2.194      4.969
REMARK  0 active torsions:
REMARK  status: ('A' for Active; 'I' for Inactive)
ROOT
HETATM    1  O1  UNL     1      25.244   5.891  48.381  1.00  0.00    -0.266 OA
HETATM    2  C1  UNL     1      24.935   5.754  49.583  1.00  0.00     0.268 C 
HETATM    3  N1  UNL     1      25.292   6.408  50.833  1.00  0.00    -0.354 N 
HETATM    4  C2  UNL     1      23.984   6.799  51.446  1.00  0.00     0.150 C 
HETATM    5  C3  UNL     1      22.998   5.691  51.570  1.00  0.00     0.126 C 
HETATM    6  C4  UNL     1      21.628   5.875  51.094  1.00  0.00     0.152 C 
HETATM    7  N2  UNL     1      20.797   4.770  50.583  1.00  0.00    -0.357 N 
HETATM    8  C5  UNL     1      19.695   3.960  51.008  1.00  0.00     0.293 C 
HETATM    9  O2  UNL     1      19.877   3.421  52.203  1.00  0.00    -0.368 OA
HETATM   10  C6  UNL     1      20.504   2.393  52.723  1.00  0.00     0.208 C 
HETATM   11  C7  UNL     1      21.940   2.166  52.578  1.00  0.00    -0.032 A 
HETATM   12  C8  UNL     1      22.526   0.933  52.386  1.00  0.00     0.009 A 
HETATM   13  C9  UNL     1      23.863   0.963  51.957  1.00  0.00     0.003 A 
HETATM   14  C10 UNL     1      24.535   2.187  51.738  1.00  0.00     0.029 A 
HETATM   15  C11 UNL     1      23.578   3.066  52.054  1.00  0.00     0.036 A 
HETATM   16  C12 UNL     1      22.350   3.446  52.463  1.00  0.00     0.039 A 
HETATM   17  N3  UNL     1      23.524   4.361  51.345  1.00  0.00    -0.334 N 
HETATM   18  C13 UNL     1      23.960   4.671  49.993  1.00  0.00     0.104 C 
HETATM   19  C14 UNL     1      23.521   4.317  48.697  1.00  0.00     0.049 C 
HETATM   20  C15 UNL     1      22.052   4.036  48.335  1.00  0.00    -0.007 A 
HETATM   21  C16 UNL     1      22.109   3.563  47.086  1.00  0.00     0.014 A 
HETATM   22  C17 UNL     1      20.844   3.252  46.651  1.00  0.00     0.001 A 
HETATM   23  C18 UNL     1      19.698   3.410  47.405  1.00  0.00     0.002 A 
HETATM   24  C19 UNL     1      19.714   3.903  48.685  1.00  0.00     0.030 A 
HETATM   25  C20 UNL     1      20.933   4.243  49.211  1.00  0.00     0.042 A 
HETATM   26  H1  UNL     1      26.330   6.450  50.966  1.00  0.00     0.162 HD
ENDROOT
TORSDOF 0
ENDMDL
MODEL 6
REMARK VINA RESULT:      -7.4      6.377      8.859
REMARK  0 active torsions:
REMARK  status: ('A' for Active; 'I' for Inactive)
ROOT
HETATM    1  O1  UNL     1      33.824   4.207  45.626  1.00  0.00    -0.266 OA
HETATM    2  C1  UNL     1      33.488   4.614  46.757  1.00  0.00     0.268 C 
HETATM    3  N1  UNL     1      33.838   4.286  48.131  1.00  0.00    -0.354 N 
HETATM    4  C2  UNL     1      34.245   5.591  48.743  1.00  0.00     0.150 C 
HETATM    5  C3  UNL     1      33.253   6.688  48.587  1.00  0.00     0.126 C 
HETATM    6  C4  UNL     1      33.680   7.995  48.089  1.00  0.00     0.152 C 
HETATM    7  N2  UNL     1      32.798   8.893  47.320  1.00  0.00    -0.357 N 
HETATM    8  C5  UNL     1      32.050  10.098  47.515  1.00  0.00     0.293 C 
HETATM    9  O2  UNL     1      31.268  10.059  48.582  1.00  0.00    -0.368 OA
HETATM   10  C6  UNL     1      30.094   9.577  48.914  1.00  0.00     0.208 C 
HETATM   11  C7  UNL     1      29.740   8.164  48.800  1.00  0.00    -0.032 A 
HETATM   12  C8  UNL     1      28.511   7.692  48.391  1.00  0.00     0.009 A 
HETATM   13  C9  UNL     1      28.475   6.330  48.047  1.00  0.00     0.003 A 
HETATM   14  C10 UNL     1      29.634   5.525  48.117  1.00  0.00     0.029 A 
HETATM   15  C11 UNL     1      30.536   6.410  48.555  1.00  0.00     0.036 A 
HETATM   16  C12 UNL     1      30.963   7.621  48.970  1.00  0.00     0.039 A 
HETATM   17  N3  UNL     1      31.942   6.283  48.124  1.00  0.00    -0.334 N 
HETATM   18  C13 UNL     1      32.462   5.721  46.888  1.00  0.00     0.104 C 
HETATM   19  C14 UNL     1      32.422   6.096  45.525  1.00  0.00     0.049 C 
HETATM   20  C15 UNL     1      32.385   7.555  45.038  1.00  0.00    -0.007 A 
HETATM   21  C16 UNL     1      32.164   7.455  43.724  1.00  0.00     0.014 A 
HETATM   22  C17 UNL     1      32.088   8.709  43.170  1.00  0.00     0.001 A 
HETATM   23  C18 UNL     1      32.223   9.886  43.880  1.00  0.00     0.002 A 
HETATM   24  C19 UNL     1      32.449   9.915  45.232  1.00  0.00     0.030 A 
HETATM   25  C20 UNL     1      32.540   8.709  45.879  1.00  0.00     0.042 A 
HETATM   26  H1  UNL     1      33.736   3.262  48.323  1.00  0.00     0.162 HD
ENDROOT
TORSDOF 0
ENDMDL
MODEL 7
REMARK VINA RESULT:      -7.4      2.914      4.551
REMARK  0 active torsions:
REMARK  status: ('A' for Active; 'I' for Inactive)
ROOT
HETATM    1  O1  UNL     1      25.452   3.123  50.506  1.00  0.00    -0.266 OA
HETATM    2  C1  UNL     1      24.580   3.255  51.390  1.00  0.00     0.268 C 
HETATM    3  N1  UNL     1      24.562   3.674  52.782  1.00  0.00    -0.354 N 
HETATM    4  C2  UNL     1      23.537   4.764  52.839  1.00  0.00     0.150 C 
HETATM    5  C3  UNL     1      22.211   4.403  52.269  1.00  0.00     0.126 C 
HETATM    6  C4  UNL     1      21.565   5.289  51.303  1.00  0.00     0.152 C 
HETATM    7  N2  UNL     1      20.657   4.805  50.246  1.00  0.00    -0.357 N 
HETATM    8  C5  UNL     1      19.255   4.773  49.957  1.00  0.00     0.293 C 
HETATM    9  O2  UNL     1      18.528   4.298  50.956  1.00  0.00    -0.368 OA
HETATM   10  C6  UNL     1      18.194   3.129  51.449  1.00  0.00     0.208 C 
HETATM   11  C7  UNL     1      19.166   2.133  51.893  1.00  0.00    -0.032 A 
HETATM   12  C8  UNL     1      19.043   0.774  51.700  1.00  0.00     0.009 A 
HETATM   13  C9  UNL     1      20.214   0.028  51.913  1.00  0.00     0.003 A 
HETATM   14  C10 UNL     1      21.424   0.654  52.290  1.00  0.00     0.029 A 
HETATM   15  C11 UNL     1      21.043   1.935  52.349  1.00  0.00     0.036 A 
HETATM   16  C12 UNL     1      20.168   2.959  52.260  1.00  0.00     0.039 A 
HETATM   17  N3  UNL     1      22.011   2.994  52.001  1.00  0.00    -0.334 N 
HETATM   18  C13 UNL     1      23.134   2.925  51.080  1.00  0.00     0.104 C 
HETATM   19  C14 UNL     1      23.271   2.797  49.679  1.00  0.00     0.049 C 
HETATM   20  C15 UNL     1      22.261   3.359  48.663  1.00  0.00    -0.007 A 
HETATM   21  C16 UNL     1      22.665   2.860  47.491  1.00  0.00     0.014 A 
HETATM   22  C17 UNL     1      21.819   3.278  46.493  1.00  0.00     0.001 A 
HETATM   23  C18 UNL     1      20.722   4.094  46.691  1.00  0.00     0.002 A 
HETATM   24  C19 UNL     1      20.365   4.572  47.925  1.00  0.00     0.030 A 
HETATM   25  C20 UNL     1      21.149   4.208  48.989  1.00  0.00     0.042 A 
HETATM   26  H1  UNL     1      25.254   3.140  53.357  1.00  0.00     0.162 HD
ENDROOT
TORSDOF 0
ENDMDL
MODEL 8
REMARK VINA RESULT:      -7.3      6.606     10.246
REMARK  0 active torsions:
REMARK  status: ('A' for Active; 'I' for Inactive)
ROOT
HETATM    1  O1  UNL     1      32.256  10.785  46.845  1.00  0.00    -0.266 OA
HETATM    2  C1  UNL     1      33.153   9.927  46.712  1.00  0.00     0.268 C 
HETATM    3  N1  UNL     1      34.601   9.903  46.849  1.00  0.00    -0.354 N 
HETATM    4  C2  UNL     1      34.876   8.775  47.795  1.00  0.00     0.150 C 
HETATM    5  C3  UNL     1      34.253   7.478  47.416  1.00  0.00     0.126 C 
HETATM    6  C4  UNL     1      33.482   6.722  48.401  1.00  0.00     0.152 C 
HETATM    7  N2  UNL     1      32.355   5.841  48.040  1.00  0.00    -0.357 N 
HETATM    8  C5  UNL     1      32.073   4.442  47.921  1.00  0.00     0.293 C 
HETATM    9  O2  UNL     1      32.963   3.793  47.189  1.00  0.00    -0.368 OA
HETATM   10  C6  UNL     1      33.219   3.590  45.918  1.00  0.00     0.208 C 
HETATM   11  C7  UNL     1      33.455   4.668  44.960  1.00  0.00    -0.032 A 
HETATM   12  C8  UNL     1      32.999   4.677  43.659  1.00  0.00     0.009 A 
HETATM   13  C9  UNL     1      33.056   5.922  43.012  1.00  0.00     0.003 A 
HETATM   14  C10 UNL     1      33.542   7.072  43.674  1.00  0.00     0.029 A 
HETATM   15  C11 UNL     1      33.853   6.566  44.873  1.00  0.00     0.036 A 
HETATM   16  C12 UNL     1      33.971   5.591  45.798  1.00  0.00     0.039 A 
HETATM   17  N3  UNL     1      33.714   7.414  46.073  1.00  0.00    -0.334 N 
HETATM   18  C13 UNL     1      32.792   8.515  46.301  1.00  0.00     0.104 C 
HETATM   19  C14 UNL     1      31.392   8.628  46.463  1.00  0.00     0.049 C 
HETATM   20  C15 UNL     1      30.511   7.541  47.104  1.00  0.00    -0.007 A 
HETATM   21  C16 UNL     1      29.262   7.963  46.886  1.00  0.00     0.014 A 
HETATM   22  C17 UNL     1      28.370   7.055  47.401  1.00  0.00     0.001 A 
HETATM   23  C18 UNL     1      28.729   5.887  48.045  1.00  0.00     0.002 A 
HETATM   24  C19 UNL     1      30.035   5.516  48.235  1.00  0.00     0.030 A 
HETATM   25  C20 UNL     1      31.004   6.359  47.754  1.00  0.00     0.042 A 
HETATM   26  H1  UNL     1      35.056  10.659  46.287  1.00  0.00     0.162 HD
ENDROOT
TORSDOF 0
ENDMDL
MODEL 9
REMARK VINA RESULT:      -7.1      4.019      6.637
REMARK  0 active torsions:
REMARK  status: ('A' for Active; 'I' for Inactive)
ROOT
HETATM    1  O1  UNL     1      26.418   5.285  49.361  1.00  0.00    -0.266 OA
HETATM    2  C1  UNL     1      26.260   6.502  49.128  1.00  0.00     0.268 C 
HETATM    3  N1  UNL     1      25.303   7.524  49.523  1.00  0.00    -0.354 N 
HETATM    4  C2  UNL     1      26.139   8.633  50.083  1.00  0.00     0.150 C 
HETATM    5  C3  UNL     1      27.233   9.101  49.190  1.00  0.00     0.126 C 
HETATM    6  C4  UNL     1      28.594   9.233  49.708  1.00  0.00     0.152 C 
HETATM    7  N2  UNL     1      29.795   9.059  48.871  1.00  0.00    -0.357 N 
HETATM    8  C5  UNL     1      30.805   9.862  48.250  1.00  0.00     0.293 C 
HETATM    9  O2  UNL     1      30.309  10.855  47.529  1.00  0.00    -0.368 OA
HETATM   10  C6  UNL     1      29.793  11.032  46.336  1.00  0.00     0.208 C 
HETATM   11  C7  UNL     1      28.624  10.305  45.846  1.00  0.00    -0.032 A 
HETATM   12  C8  UNL     1      28.470   9.839  44.558  1.00  0.00     0.009 A 
HETATM   13  C9  UNL     1      27.437   8.905  44.376  1.00  0.00     0.003 A 
HETATM   14  C10 UNL     1      26.632   8.483  45.458  1.00  0.00     0.029 A 
HETATM   15  C11 UNL     1      27.153   9.197  46.461  1.00  0.00     0.036 A 
HETATM   16  C12 UNL     1      27.999  10.086  47.022  1.00  0.00     0.039 A 
HETATM   17  N3  UNL     1      27.167   8.626  47.823  1.00  0.00    -0.334 N 
HETATM   18  C13 UNL     1      27.229   7.229  48.218  1.00  0.00     0.104 C 
HETATM   19  C14 UNL     1      28.205   6.210  48.137  1.00  0.00     0.049 C 
HETATM   20  C15 UNL     1      29.721   6.466  48.207  1.00  0.00    -0.007 A 
HETATM   21  C16 UNL     1      30.266   5.284  47.905  1.00  0.00     0.014 A 
HETATM   22  C17 UNL     1      31.635   5.389  47.915  1.00  0.00     0.001 A 
HETATM   23  C18 UNL     1      32.326   6.551  48.197  1.00  0.00     0.002 A 
HETATM   24  C19 UNL     1      31.701   7.732  48.501  1.00  0.00     0.030 A 
HETATM   25  C20 UNL     1      30.329   7.729  48.516  1.00  0.00     0.042 A 
HETATM   26  H1  UNL     1      24.318   7.224  49.338  1.00  0.00     0.162 HD
ENDROOT
TORSDOF 0
ENDMDL
