MODEL 1
REMARK VINA RESULT:      -8.8      0.000      0.000
REMARK  2 active torsions:
REMARK  status: ('A' for Active; 'I' for Inactive)
REMARK    1  A    between atoms: C2_2  and  C3_3 
REMARK    2  A    between atoms: C8_9  and  S1_10 
ROOT
HETATM    1  C3  UNL     1      27.458   0.543  53.917  1.00  0.00    -0.080 C 
HETATM    2  C4  UNL     1      27.574   1.405  52.907  1.00  0.00    -0.001 C 
HETATM    3  C5  UNL     1      26.819   2.310  52.007  1.00  0.00    -0.017 C 
HETATM    4  C6  UNL     1      25.670   2.864  51.591  1.00  0.00     0.074 C 
HETATM    5  C7  UNL     1      24.210   3.138  51.569  1.00  0.00     0.170 A 
HETATM    6  N1  UNL     1      23.882   4.191  50.674  1.00  0.00    -0.265 NA
HETATM    7  C8  UNL     1      23.627   4.344  51.991  1.00  0.00     0.181 A 
HETATM    8  N2  UNL     1      23.360   1.949  51.344  1.00  0.00    -0.358 N 
HETATM    9  C11 UNL     1      23.156   1.009  52.398  1.00  0.00     0.052 A 
HETATM   10  C12 UNL     1      24.063   0.214  53.058  1.00  0.00     0.038 A 
HETATM   11  C13 UNL     1      24.006  -0.679  54.152  1.00  0.00    -0.056 A 
HETATM   12  C14 UNL     1      22.763  -0.776  54.655  1.00  0.00     0.009 A 
HETATM   13  C15 UNL     1      21.740  -0.050  54.102  1.00  0.00     0.026 A 
HETATM   14  C16 UNL     1      21.952   0.790  53.032  1.00  0.00     0.060 A 
HETATM   15 CL1  UNL     1      20.629   1.686  52.339  1.00  0.00    -0.082 Cl
HETATM   16  C17 UNL     1      25.495  -1.017  54.213  1.00  0.00     0.043 C 
HETATM   17  C18 UNL     1      26.120   0.383  54.402  1.00  0.00     0.038 C 
HETATM   18  H12 UNL     1      22.746   1.425  50.652  1.00  0.00     0.162 HD
ENDROOT
BRANCH   7  19
HETATM   19  S1  UNL     1      23.028   5.929  51.378  1.00  0.00    -0.151 SA
HETATM   20  C9  UNL     1      24.500   6.860  50.953  1.00  0.00     0.027 A 
HETATM   21  C10 UNL     1      23.563   7.755  50.669  1.00  0.00     0.089 A 
HETATM   22  O1  UNL     1      22.376   7.092  50.979  1.00  0.00     0.000 OA
HETATM   23  H11 UNL     1      21.557   7.102  50.375  1.00  0.00     0.000 HD
ENDBRANCH   7  19
BRANCH   1  24
HETATM   24  C2  UNL     1      28.633  -0.123  54.459  1.00  0.00     0.029 C 
HETATM   25  C1  UNL     1      29.429  -0.873  53.407  1.00  0.00     0.010 C 
ENDBRANCH   1  24
TORSDOF 2
ENDMDL
MODEL 2
REMARK VINA RESULT:      -8.6      3.787      6.344
REMARK  2 active torsions:
REMARK  status: ('A' for Active; 'I' for Inactive)
REMARK    1  A    between atoms: C2_2  and  C3_3 
REMARK    2  A    between atoms: C8_9  and  S1_10 
ROOT
HETATM    1  C3  UNL     1      24.371   3.877  49.528  1.00  0.00    -0.080 C 
HETATM    2  C4  UNL     1      25.604   3.637  49.975  1.00  0.00    -0.001 C 
HETATM    3  C5  UNL     1      26.412   2.761  50.858  1.00  0.00    -0.017 C 
HETATM    4  C6  UNL     1      26.522   1.734  51.713  1.00  0.00     0.074 C 
HETATM    5  C7  UNL     1      26.070   0.585  52.541  1.00  0.00     0.170 A 
HETATM    6  N1  UNL     1      27.162  -0.114  53.120  1.00  0.00    -0.265 NA
HETATM    7  C8  UNL     1      26.357  -0.758  52.250  1.00  0.00     0.181 A 
HETATM    8  N2  UNL     1      25.041   0.916  53.550  1.00  0.00    -0.358 N 
HETATM    9  C11 UNL     1      23.690   1.140  53.144  1.00  0.00     0.052 A 
HETATM   10  C12 UNL     1      23.167   2.107  52.318  1.00  0.00     0.038 A 
HETATM   11  C13 UNL     1      21.889   2.384  51.781  1.00  0.00    -0.056 A 
HETATM   12  C14 UNL     1      20.972   1.489  52.186  1.00  0.00     0.009 A 
HETATM   13  C15 UNL     1      21.333   0.464  53.020  1.00  0.00     0.026 A 
HETATM   14  C16 UNL     1      22.629   0.320  53.460  1.00  0.00     0.060 A 
HETATM   15 CL1  UNL     1      23.055  -0.984  54.536  1.00  0.00    -0.082 Cl
HETATM   16  C17 UNL     1      22.289   3.585  50.924  1.00  0.00     0.043 C 
HETATM   17  C18 UNL     1      23.380   2.969  50.022  1.00  0.00     0.038 C 
HETATM   18  H12 UNL     1      24.838   1.070  54.582  1.00  0.00     0.162 HD
ENDROOT
BRANCH   7  19
HETATM   19  S1  UNL     1      27.512  -2.086  52.637  1.00  0.00    -0.151 SA
HETATM   20  C9  UNL     1      28.948  -1.275  53.338  1.00  0.00     0.027 A 
HETATM   21  C10 UNL     1      29.354  -2.537  53.362  1.00  0.00     0.089 A 
HETATM   22  O1  UNL     1      28.273  -3.235  52.823  1.00  0.00     0.000 OA
HETATM   23  H11 UNL     1      27.908  -4.096  53.226  1.00  0.00     0.000 HD
ENDBRANCH   7  19
BRANCH   1  24
HETATM   24  C2  UNL     1      24.123   4.964  48.593  1.00  0.00     0.029 C 
HETATM   25  C1  UNL     1      24.941   6.207  48.896  1.00  0.00     0.010 C 
ENDBRANCH   1  24
TORSDOF 2
ENDMDL
MODEL 3
REMARK VINA RESULT:      -8.6      2.909      5.166
REMARK  2 active torsions:
REMARK  status: ('A' for Active; 'I' for Inactive)
REMARK    1  A    between atoms: C2_2  and  C3_3 
REMARK    2  A    between atoms: C8_9  and  S1_10 
ROOT
HETATM    1  C3  UNL     1      26.691  -0.313  52.929  1.00  0.00    -0.080 C 
HETATM    2  C4  UNL     1      25.625  -0.565  53.688  1.00  0.00    -0.001 C 
HETATM    3  C5  UNL     1      24.173  -0.307  53.844  1.00  0.00    -0.017 C 
HETATM    4  C6  UNL     1      23.028   0.257  53.430  1.00  0.00     0.074 C 
HETATM    5  C7  UNL     1      22.134   1.061  52.558  1.00  0.00     0.170 A 
HETATM    6  N1  UNL     1      20.771   0.938  52.939  1.00  0.00    -0.265 NA
HETATM    7  C8  UNL     1      21.152   0.513  51.716  1.00  0.00     0.181 A 
HETATM    8  N2  UNL     1      22.529   2.478  52.403  1.00  0.00    -0.358 N 
HETATM    9  C11 UNL     1      23.634   2.823  51.568  1.00  0.00     0.052 A 
HETATM   10  C12 UNL     1      24.962   2.482  51.677  1.00  0.00     0.038 A 
HETATM   11  C13 UNL     1      26.118   2.684  50.890  1.00  0.00    -0.056 A 
HETATM   12  C14 UNL     1      25.848   3.384  49.775  1.00  0.00     0.009 A 
HETATM   13  C15 UNL     1      24.569   3.805  49.521  1.00  0.00     0.026 A 
HETATM   14  C16 UNL     1      23.536   3.526  50.387  1.00  0.00     0.060 A 
HETATM   15 CL1  UNL     1      21.923   4.090  50.046  1.00  0.00    -0.082 Cl
HETATM   16  C17 UNL     1      27.092   1.887  51.758  1.00  0.00     0.043 C 
HETATM   17  C18 UNL     1      26.416   0.499  51.781  1.00  0.00     0.038 C 
HETATM   18  H12 UNL     1      22.315   3.485  52.668  1.00  0.00     0.162 HD
ENDROOT
BRANCH   7  19
HETATM   19  S1  UNL     1      19.395   0.121  51.641  1.00  0.00    -0.151 SA
HETATM   20  C9  UNL     1      19.037  -0.742  53.170  1.00  0.00     0.027 A 
HETATM   21  C10 UNL     1      17.844  -0.783  52.590  1.00  0.00     0.089 A 
HETATM   22  O1  UNL     1      18.051  -0.121  51.380  1.00  0.00     0.000 OA
HETATM   23  H11 UNL     1      17.411   0.580  51.011  1.00  0.00     0.000 HD
ENDBRANCH   7  19
BRANCH   1  24
HETATM   24  C2  UNL     1      27.991  -0.870  53.272  1.00  0.00     0.029 C 
HETATM   25  C1  UNL     1      28.670  -0.135  54.414  1.00  0.00     0.010 C 
ENDBRANCH   1  24
TORSDOF 2
ENDMDL
MODEL 4
REMARK VINA RESULT:      -8.3      2.425      4.810
REMARK  2 active torsions:
REMARK  status: ('A' for Active; 'I' for Inactive)
REMARK    1  A    between atoms: C2_2  and  C3_3 
REMARK    2  A    between atoms: C8_9  and  S1_10 
ROOT
HETATM    1  C3  UNL     1      20.625   0.296  52.912  1.00  0.00    -0.080 C 
HETATM    2  C4  UNL     1      20.433   1.602  52.726  1.00  0.00    -0.001 C 
HETATM    3  C5  UNL     1      21.098   2.870  52.338  1.00  0.00    -0.017 C 
HETATM    4  C6  UNL     1      22.181   3.558  51.947  1.00  0.00     0.074 C 
HETATM    5  C7  UNL     1      23.596   3.777  51.549  1.00  0.00     0.170 A 
HETATM    6  N1  UNL     1      23.818   5.101  51.086  1.00  0.00    -0.265 NA
HETATM    7  C8  UNL     1      24.011   4.068  50.239  1.00  0.00     0.181 A 
HETATM    8  N2  UNL     1      24.594   3.382  52.566  1.00  0.00    -0.358 N 
HETATM    9  C11 UNL     1      24.880   2.001  52.786  1.00  0.00     0.052 A 
HETATM   10  C12 UNL     1      24.059   0.989  53.224  1.00  0.00     0.038 A 
HETATM   11  C13 UNL     1      24.194  -0.407  53.400  1.00  0.00    -0.056 A 
HETATM   12  C14 UNL     1      25.423  -0.837  53.067  1.00  0.00     0.009 A 
HETATM   13  C15 UNL     1      26.363   0.051  52.618  1.00  0.00     0.026 A 
HETATM   14  C16 UNL     1      26.082   1.393  52.493  1.00  0.00     0.060 A 
HETATM   15 CL1  UNL     1      27.304   2.502  51.935  1.00  0.00    -0.082 Cl
HETATM   16  C17 UNL     1      22.756  -0.692  53.835  1.00  0.00     0.043 C 
HETATM   17  C18 UNL     1      21.957  -0.148  52.631  1.00  0.00     0.038 C 
HETATM   18  H12 UNL     1      25.289   3.722  53.294  1.00  0.00     0.162 HD
ENDROOT
BRANCH   7  19
HETATM   19  S1  UNL     1      24.427   5.439  49.147  1.00  0.00    -0.151 SA
HETATM   20  C9  UNL     1      26.209   5.596  49.242  1.00  0.00     0.027 A 
HETATM   21  C10 UNL     1      25.927   6.598  48.419  1.00  0.00     0.089 A 
HETATM   22  O1  UNL     1      24.539   6.536  48.298  1.00  0.00     0.000 OA
HETATM   23  H11 UNL     1      24.052   6.614  47.408  1.00  0.00     0.000 HD
ENDBRANCH   7  19
BRANCH   1  24
HETATM   24  C2  UNL     1      19.526  -0.558  53.336  1.00  0.00     0.029 C 
HETATM   25  C1  UNL     1      18.349  -0.532  52.378  1.00  0.00     0.010 C 
ENDBRANCH   1  24
TORSDOF 2
ENDMDL
MODEL 5
REMARK VINA RESULT:      -8.2      1.398      1.702
REMARK  2 active torsions:
REMARK  status: ('A' for Active; 'I' for Inactive)
REMARK    1  A    between atoms: C2_2  and  C3_3 
REMARK    2  A    between atoms: C8_9  and  S1_10 
ROOT
HETATM    1  C3  UNL     1      26.163   0.133  52.811  1.00  0.00    -0.080 C 
HETATM    2  C4  UNL     1      26.571   0.973  51.860  1.00  0.00    -0.001 C 
HETATM    3  C5  UNL     1      26.183   2.157  51.056  1.00  0.00    -0.017 C 
HETATM    4  C6  UNL     1      25.308   3.118  50.725  1.00  0.00     0.074 C 
HETATM    5  C7  UNL     1      24.044   3.898  50.778  1.00  0.00     0.170 A 
HETATM    6  N1  UNL     1      24.108   5.066  49.973  1.00  0.00    -0.265 NA
HETATM    7  C8  UNL     1      23.940   5.196  51.306  1.00  0.00     0.181 A 
HETATM    8  N2  UNL     1      22.820   3.115  50.504  1.00  0.00    -0.358 N 
HETATM    9  C11 UNL     1      22.302   2.230  51.497  1.00  0.00     0.052 A 
HETATM   10  C12 UNL     1      22.869   1.113  52.064  1.00  0.00     0.038 A 
HETATM   11  C13 UNL     1      22.505   0.217  53.094  1.00  0.00    -0.056 A 
HETATM   12  C14 UNL     1      21.317   0.533  53.637  1.00  0.00     0.009 A 
HETATM   13  C15 UNL     1      20.619   1.618  53.177  1.00  0.00     0.026 A 
HETATM   14  C16 UNL     1      21.108   2.408  52.161  1.00  0.00     0.060 A 
HETATM   15 CL1  UNL     1      20.189   3.772  51.585  1.00  0.00    -0.082 Cl
HETATM   16  C17 UNL     1      23.773  -0.637  53.073  1.00  0.00     0.043 C 
HETATM   17  C18 UNL     1      24.863   0.426  53.335  1.00  0.00     0.038 C 
HETATM   18  H12 UNL     1      22.050   2.903  49.802  1.00  0.00     0.162 HD
ENDROOT
BRANCH   7  19
HETATM   19  S1  UNL     1      23.947   6.933  50.830  1.00  0.00    -0.151 SA
HETATM   20  C9  UNL     1      25.619   7.268  50.280  1.00  0.00     0.027 A 
HETATM   21  C10 UNL     1      25.079   8.471  50.140  1.00  0.00     0.089 A 
HETATM   22  O1  UNL     1      23.761   8.284  50.554  1.00  0.00     0.000 OA
HETATM   23  H11 UNL     1      22.959   8.652  50.047  1.00  0.00     0.000 HD
ENDBRANCH   7  19
BRANCH   1  24
HETATM   24  C2  UNL     1      27.024  -0.951  53.259  1.00  0.00     0.029 C 
HETATM   25  C1  UNL     1      28.493  -0.569  53.293  1.00  0.00     0.010 C 
ENDBRANCH   1  24
TORSDOF 2
ENDMDL
MODEL 6
REMARK VINA RESULT:      -8.0      3.000      4.004
REMARK  2 active torsions:
REMARK  status: ('A' for Active; 'I' for Inactive)
REMARK    1  A    between atoms: C2_2  and  C3_3 
REMARK    2  A    between atoms: C8_9  and  S1_10 
ROOT
HETATM    1  C3  UNL     1      25.423   1.942  52.000  1.00  0.00    -0.080 C 
HETATM    2  C4  UNL     1      24.739   2.463  50.982  1.00  0.00    -0.001 C 
HETATM    3  C5  UNL     1      23.378   2.658  50.424  1.00  0.00    -0.017 C 
HETATM    4  C6  UNL     1      22.047   2.505  50.490  1.00  0.00     0.074 C 
HETATM    5  C7  UNL     1      20.744   2.076  51.061  1.00  0.00     0.170 A 
HETATM    6  N1  UNL     1      19.646   2.591  50.321  1.00  0.00    -0.265 NA
HETATM    7  C8  UNL     1      19.797   2.955  51.612  1.00  0.00     0.181 A 
HETATM    8  N2  UNL     1      20.614   0.620  51.284  1.00  0.00    -0.358 N 
HETATM    9  C11 UNL     1      21.285   0.004  52.383  1.00  0.00     0.052 A 
HETATM   10  C12 UNL     1      22.629  -0.092  52.654  1.00  0.00     0.038 A 
HETATM   11  C13 UNL     1      23.404  -0.591  53.725  1.00  0.00    -0.056 A 
HETATM   12  C14 UNL     1      22.636  -1.099  54.704  1.00  0.00     0.009 A 
HETATM   13  C15 UNL     1      21.272  -1.085  54.583  1.00  0.00     0.026 A 
HETATM   14  C16 UNL     1      20.654  -0.556  53.473  1.00  0.00     0.060 A 
HETATM   15 CL1  UNL     1      18.917  -0.569  53.340  1.00  0.00    -0.082 Cl
HETATM   16  C17 UNL     1      24.777  -0.193  53.181  1.00  0.00     0.043 C 
HETATM   17  C18 UNL     1      24.607   1.332  53.006  1.00  0.00     0.038 C 
HETATM   18  H12 UNL     1      20.173  -0.286  50.944  1.00  0.00     0.162 HD
ENDROOT
BRANCH   7  19
HETATM   19  S1  UNL     1      18.302   3.876  51.208  1.00  0.00    -0.151 SA
HETATM   20  C9  UNL     1      16.948   2.749  51.536  1.00  0.00     0.027 A 
HETATM   21  C10 UNL     1      16.276   3.802  51.088  1.00  0.00     0.089 A 
HETATM   22  O1  UNL     1      17.279   4.731  50.810  1.00  0.00     0.000 OA
HETATM   23  H11 UNL     1      17.223   5.710  51.080  1.00  0.00     0.000 HD
ENDBRANCH   7  19
BRANCH   1  24
HETATM   24  C2  UNL     1      26.875   2.045  52.043  1.00  0.00     0.029 C 
HETATM   25  C1  UNL     1      27.424   2.108  53.457  1.00  0.00     0.010 C 
ENDBRANCH   1  24
TORSDOF 2
ENDMDL
MODEL 7
REMARK VINA RESULT:      -8.0      3.662      6.142
REMARK  2 active torsions:
REMARK  status: ('A' for Active; 'I' for Inactive)
REMARK    1  A    between atoms: C2_2  and  C3_3 
REMARK    2  A    between atoms: C8_9  and  S1_10 
ROOT
HETATM    1  C3  UNL     1      22.966   3.073  49.118  1.00  0.00    -0.080 C 
HETATM    2  C4  UNL     1      24.063   3.677  49.575  1.00  0.00    -0.001 C 
HETATM    3  C5  UNL     1      25.162   3.582  50.567  1.00  0.00    -0.017 C 
HETATM    4  C6  UNL     1      25.791   2.948  51.567  1.00  0.00     0.074 C 
HETATM    5  C7  UNL     1      26.042   1.880  52.570  1.00  0.00     0.170 A 
HETATM    6  N1  UNL     1      27.288   2.054  53.229  1.00  0.00    -0.265 NA
HETATM    7  C8  UNL     1      27.089   0.947  52.483  1.00  0.00     0.181 A 
HETATM    8  N2  UNL     1      24.942   1.664  53.534  1.00  0.00    -0.358 N 
HETATM    9  C11 UNL     1      23.757   0.984  53.124  1.00  0.00     0.052 A 
HETATM   10  C12 UNL     1      22.828   1.328  52.169  1.00  0.00     0.038 A 
HETATM   11  C13 UNL     1      21.681   0.714  51.619  1.00  0.00    -0.056 A 
HETATM   12  C14 UNL     1      21.440  -0.486  52.173  1.00  0.00     0.009 A 
HETATM   13  C15 UNL     1      22.271  -0.971  53.148  1.00  0.00     0.026 A 
HETATM   14  C16 UNL     1      23.364  -0.255  53.581  1.00  0.00     0.060 A 
HETATM   15 CL1  UNL     1      24.393  -0.891  54.836  1.00  0.00    -0.082 Cl
HETATM   16  C17 UNL     1      21.358   1.789  50.581  1.00  0.00     0.043 C 
HETATM   17  C18 UNL     1      22.668   1.830  49.764  1.00  0.00     0.038 C 
HETATM   18  H12 UNL     1      24.609   1.804  54.534  1.00  0.00     0.162 HD
ENDROOT
BRANCH   7  19
HETATM   19  S1  UNL     1      28.771   0.635  53.048  1.00  0.00    -0.151 SA
HETATM   20  C9  UNL     1      28.814  -1.107  53.466  1.00  0.00     0.027 A 
HETATM   21  C10 UNL     1      30.052  -0.756  53.788  1.00  0.00     0.089 A 
HETATM   22  O1  UNL     1      30.091   0.605  53.485  1.00  0.00     0.000 OA
HETATM   23  H11 UNL     1      30.862   1.044  52.985  1.00  0.00     0.000 HD
ENDBRANCH   7  19
BRANCH   1  24
HETATM   24  C2  UNL     1      22.197   3.662  48.032  1.00  0.00     0.029 C 
HETATM   25  C1  UNL     1      22.295   2.874  46.739  1.00  0.00     0.010 C 
ENDBRANCH   1  24
TORSDOF 2
ENDMDL
MODEL 8
REMARK VINA RESULT:      -7.6      2.649      4.270
REMARK  2 active torsions:
REMARK  status: ('A' for Active; 'I' for Inactive)
REMARK    1  A    between atoms: C2_2  and  C3_3 
REMARK    2  A    between atoms: C8_9  and  S1_10 
ROOT
HETATM    1  C3  UNL     1      23.073   0.351  53.157  1.00  0.00    -0.080 C 
HETATM    2  C4  UNL     1      24.272   0.926  53.056  1.00  0.00    -0.001 C 
HETATM    3  C5  UNL     1      25.043   1.979  52.352  1.00  0.00    -0.017 C 
HETATM    4  C6  UNL     1      25.127   2.977  51.459  1.00  0.00     0.074 C 
HETATM    5  C7  UNL     1      24.657   3.929  50.420  1.00  0.00     0.170 A 
HETATM    6  N1  UNL     1      25.644   4.900  50.105  1.00  0.00    -0.265 NA
HETATM    7  C8  UNL     1      24.471   5.304  50.636  1.00  0.00     0.181 A 
HETATM    8  N2  UNL     1      24.111   3.295  49.201  1.00  0.00    -0.358 N 
HETATM    9  C11 UNL     1      22.813   2.700  49.226  1.00  0.00     0.052 A 
HETATM   10  C12 UNL     1      22.343   1.641  49.967  1.00  0.00     0.038 A 
HETATM   11  C13 UNL     1      21.087   1.019  50.145  1.00  0.00    -0.056 A 
HETATM   12  C14 UNL     1      20.130   1.603  49.402  1.00  0.00     0.009 A 
HETATM   13  C15 UNL     1      20.439   2.671  48.601  1.00  0.00     0.026 A 
HETATM   14  C16 UNL     1      21.719   3.173  48.536  1.00  0.00     0.060 A 
HETATM   15 CL1  UNL     1      22.084   4.522  47.494  1.00  0.00    -0.082 Cl
HETATM   16  C17 UNL     1      21.514   0.002  51.202  1.00  0.00     0.043 C 
HETATM   17  C18 UNL     1      22.073   0.925  52.307  1.00  0.00     0.038 C 
HETATM   18  H12 UNL     1      24.279   3.068  48.176  1.00  0.00     0.162 HD
ENDROOT
BRANCH   7  19
HETATM   19  S1  UNL     1      25.288   6.899  50.455  1.00  0.00    -0.151 SA
HETATM   20  C9  UNL     1      23.986   8.052  50.025  1.00  0.00     0.027 A 
HETATM   21  C10 UNL     1      25.037   8.861  49.995  1.00  0.00     0.089 A 
HETATM   22  O1  UNL     1      26.100   8.021  50.325  1.00  0.00     0.000 OA
HETATM   23  H11 UNL     1      26.826   8.274  50.992  1.00  0.00     0.000 HD
ENDBRANCH   7  19
BRANCH   1  24
HETATM   24  C2  UNL     1      22.855  -0.742  54.092  1.00  0.00     0.029 C 
HETATM   25  C1  UNL     1      21.519  -0.654  54.807  1.00  0.00     0.010 C 
ENDBRANCH   1  24
TORSDOF 2
ENDMDL
MODEL 9
REMARK VINA RESULT:      -7.6      2.583      3.428
REMARK  2 active torsions:
REMARK  status: ('A' for Active; 'I' for Inactive)
REMARK    1  A    between atoms: C2_2  and  C3_3 
REMARK    2  A    between atoms: C8_9  and  S1_10 
ROOT
HETATM    1  C3  UNL     1      25.609   0.734  52.649  1.00  0.00    -0.080 C 
HETATM    2  C4  UNL     1      26.418   1.240  51.718  1.00  0.00    -0.001 C 
HETATM    3  C5  UNL     1      26.569   2.328  50.721  1.00  0.00    -0.017 C 
HETATM    4  C6  UNL     1      26.115   3.429  50.105  1.00  0.00     0.074 C 
HETATM    5  C7  UNL     1      25.177   4.541  49.800  1.00  0.00     0.170 A 
HETATM    6  N1  UNL     1      25.745   5.482  48.900  1.00  0.00    -0.265 NA
HETATM    7  C8  UNL     1      25.407   5.884  50.144  1.00  0.00     0.181 A 
HETATM    8  N2  UNL     1      23.831   4.113  49.361  1.00  0.00    -0.358 N 
HETATM    9  C11 UNL     1      22.899   3.604  50.314  1.00  0.00     0.052 A 
HETATM   10  C12 UNL     1      22.975   2.486  51.111  1.00  0.00     0.038 A 
HETATM   11  C13 UNL     1      22.177   1.927  52.135  1.00  0.00    -0.056 A 
HETATM   12  C14 UNL     1      21.079   2.664  52.372  1.00  0.00     0.009 A 
HETATM   13  C15 UNL     1      20.852   3.809  51.655  1.00  0.00     0.026 A 
HETATM   14  C16 UNL     1      21.731   4.234  50.684  1.00  0.00     0.060 A 
HETATM   15 CL1  UNL     1      21.406   5.685  49.775  1.00  0.00    -0.082 Cl
HETATM   16  C17 UNL     1      23.090   0.751  52.481  1.00  0.00     0.043 C 
HETATM   17  C18 UNL     1      24.402   1.479  52.847  1.00  0.00     0.038 C 
HETATM   18  H12 UNL     1      23.163   4.016  48.540  1.00  0.00     0.162 HD
ENDROOT
BRANCH   7  19
HETATM   19  S1  UNL     1      26.047   7.434  49.487  1.00  0.00    -0.151 SA
HETATM   20  C9  UNL     1      27.545   6.992  48.608  1.00  0.00     0.027 A 
HETATM   21  C10 UNL     1      27.550   8.308  48.437  1.00  0.00     0.089 A 
HETATM   22  O1  UNL     1      26.398   8.724  49.104  1.00  0.00     0.000 OA
HETATM   23  H11 UNL     1      25.740   9.397  48.714  1.00  0.00     0.000 HD
ENDBRANCH   7  19
BRANCH   1  24
HETATM   24  C2  UNL     1      25.991  -0.460  53.389  1.00  0.00     0.029 C 
HETATM   25  C1  UNL     1      26.753  -1.465  52.545  1.00  0.00     0.010 C 
ENDBRANCH   1  24
TORSDOF 2
ENDMDL
