MODEL 1
REMARK VINA RESULT:      -9.2      0.000      0.000
REMARK  5 active torsions:
REMARK  status: ('A' for Active; 'I' for Inactive)
REMARK    1  A    between atoms: C2_2  and  C3_3 
REMARK    2  A    between atoms: C3_3  and  C4_4 
REMARK    3  A    between atoms: C15_17  and  C16_18 
REMARK    4  A    between atoms: C16_18  and  C17_19 
REMARK    5  A    between atoms: C17_19  and  O3_21 
ROOT
HETATM    1  C4  UNL     1      23.600  -0.051  53.249  1.00  0.00    -0.008 C 
HETATM    2  C5  UNL     1      22.393  -0.470  53.593  1.00  0.00     0.041 A 
HETATM    3  C6  UNL     1      22.007  -1.238  54.793  1.00  0.00     0.256 A 
HETATM    4  O1  UNL     1      22.773  -1.631  55.697  1.00  0.00    -0.267 OA
HETATM    5  N1  UNL     1      20.613  -1.392  54.637  1.00  0.00    -0.322 N 
HETATM    6  C7  UNL     1      20.083  -0.799  53.463  1.00  0.00     0.046 A 
HETATM    7  C8  UNL     1      18.776  -0.774  53.029  1.00  0.00     0.030 A 
HETATM    8  C9  UNL     1      18.527  -0.114  51.829  1.00  0.00     0.002 A 
HETATM    9  C10 UNL     1      19.561   0.484  51.115  1.00  0.00     0.001 A 
HETATM   10  C11 UNL     1      20.830   0.396  51.646  1.00  0.00     0.014 A 
HETATM   11  C12 UNL     1      21.177  -0.230  52.818  1.00  0.00     0.006 A 
HETATM   12  H7  UNL     1      20.094  -1.909  55.369  1.00  0.00     0.169 HD
ENDROOT
BRANCH   1  13
HETATM   13  C3  UNL     1      24.479   0.644  52.329  1.00  0.00     0.037 C 
BRANCH  13  14
HETATM   14  C2  UNL     1      25.894   0.833  52.789  1.00  0.00    -0.037 C 
HETATM   15  C1  UNL     1      26.713   1.572  51.758  1.00  0.00     0.016 C 
HETATM   16  C13 UNL     1      26.129   1.439  54.143  1.00  0.00     0.010 C 
HETATM   17  C14 UNL     1      27.311   0.457  54.245  1.00  0.00     0.007 C 
HETATM   18  C15 UNL     1      26.518  -0.428  53.343  1.00  0.00     0.004 C 
BRANCH  18  19
HETATM   19  C16 UNL     1      27.239  -1.277  52.347  1.00  0.00     0.115 C 
BRANCH  19  20
HETATM   20  C17 UNL     1      27.907  -2.441  52.919  1.00  0.00     0.139 C 
HETATM   21  O2  UNL     1      29.118  -2.221  53.269  1.00  0.00    -0.650 OA
BRANCH  20  22
HETATM   22  O3  UNL     1      28.480  -3.584  53.453  1.00  0.00    -0.776 OA
HETATM   23  H19 UNL     1      27.904  -4.321  53.882  1.00  0.00     0.167 HD
ENDBRANCH  20  22
ENDBRANCH  19  20
ENDBRANCH  18  19
ENDBRANCH  13  14
ENDBRANCH   1  13
TORSDOF 5
ENDMDL
MODEL 2
REMARK VINA RESULT:      -8.9      2.140      3.024
REMARK  5 active torsions:
REMARK  status: ('A' for Active; 'I' for Inactive)
REMARK    1  A    between atoms: C2_2  and  C3_3 
REMARK    2  A    between atoms: C3_3  and  C4_4 
REMARK    3  A    between atoms: C15_17  and  C16_18 
REMARK    4  A    between atoms: C16_18  and  C17_19 
REMARK    5  A    between atoms: C17_19  and  O3_21 
ROOT
HETATM    1  C4  UNL     1      24.948   1.583  51.734  1.00  0.00    -0.008 C 
HETATM    2  C5  UNL     1      23.681   1.599  52.115  1.00  0.00     0.041 A 
HETATM    3  C6  UNL     1      22.630   2.563  51.735  1.00  0.00     0.256 A 
HETATM    4  O1  UNL     1      22.768   3.546  50.980  1.00  0.00    -0.267 OA
HETATM    5  N1  UNL     1      21.496   2.086  52.427  1.00  0.00    -0.322 N 
HETATM    6  C7  UNL     1      21.726   0.921  53.202  1.00  0.00     0.046 A 
HETATM    7  C8  UNL     1      20.833   0.219  53.982  1.00  0.00     0.030 A 
HETATM    8  C9  UNL     1      21.326  -0.903  54.642  1.00  0.00     0.002 A 
HETATM    9  C10 UNL     1      22.659  -1.281  54.510  1.00  0.00     0.001 A 
HETATM   10  C11 UNL     1      23.460  -0.503  53.703  1.00  0.00     0.014 A 
HETATM   11  C12 UNL     1      23.070   0.618  53.012  1.00  0.00     0.006 A 
HETATM   12  H7  UNL     1      20.606   2.605  52.321  1.00  0.00     0.169 HD
ENDROOT
BRANCH   1  13
HETATM   13  C3  UNL     1      26.267   0.983  51.764  1.00  0.00     0.037 C 
BRANCH  13  14
HETATM   14  C2  UNL     1      27.021   1.118  53.054  1.00  0.00    -0.037 C 
HETATM   15  C1  UNL     1      28.181   2.074  52.915  1.00  0.00     0.016 C 
HETATM   16  C13 UNL     1      26.249   1.445  54.301  1.00  0.00     0.010 C 
HETATM   17  C14 UNL     1      27.233   0.498  55.014  1.00  0.00     0.007 C 
HETATM   18  C15 UNL     1      27.338  -0.210  53.705  1.00  0.00     0.004 C 
BRANCH  18  19
HETATM   19  C16 UNL     1      28.646  -0.818  53.315  1.00  0.00     0.115 C 
BRANCH  19  20
HETATM   20  C17 UNL     1      28.618  -2.271  53.178  1.00  0.00     0.139 C 
HETATM   21  O2  UNL     1      27.464  -2.738  52.880  1.00  0.00    -0.650 OA
BRANCH  20  22
HETATM   22  O3  UNL     1      28.662  -3.650  53.063  1.00  0.00    -0.776 OA
HETATM   23  H19 UNL     1      28.741  -4.108  52.145  1.00  0.00     0.167 HD
ENDBRANCH  20  22
ENDBRANCH  19  20
ENDBRANCH  18  19
ENDBRANCH  13  14
ENDBRANCH   1  13
TORSDOF 5
ENDMDL
MODEL 3
REMARK VINA RESULT:      -8.6      2.767      3.646
REMARK  5 active torsions:
REMARK  status: ('A' for Active; 'I' for Inactive)
REMARK    1  A    between atoms: C2_2  and  C3_3 
REMARK    2  A    between atoms: C3_3  and  C4_4 
REMARK    3  A    between atoms: C15_17  and  C16_18 
REMARK    4  A    between atoms: C16_18  and  C17_19 
REMARK    5  A    between atoms: C17_19  and  O3_21 
ROOT
HETATM    1  C4  UNL     1      24.494   1.600  52.294  1.00  0.00    -0.008 C 
HETATM    2  C5  UNL     1      23.265   1.381  51.855  1.00  0.00     0.041 A 
HETATM    3  C6  UNL     1      22.682   1.770  50.556  1.00  0.00     0.256 A 
HETATM    4  O1  UNL     1      23.262   2.387  49.641  1.00  0.00    -0.267 OA
HETATM    5  N1  UNL     1      21.362   1.276  50.640  1.00  0.00    -0.322 N 
HETATM    6  C7  UNL     1      21.057   0.616  51.857  1.00  0.00     0.046 A 
HETATM    7  C8  UNL     1      19.870   0.030  52.242  1.00  0.00     0.030 A 
HETATM    8  C9  UNL     1      19.842  -0.556  53.504  1.00  0.00     0.002 A 
HETATM    9  C10 UNL     1      20.967  -0.541  54.324  1.00  0.00     0.001 A 
HETATM   10  C11 UNL     1      22.098   0.074  53.834  1.00  0.00     0.014 A 
HETATM   11  C12 UNL     1      22.226   0.679  52.608  1.00  0.00     0.006 A 
HETATM   12  H7  UNL     1      20.733   1.426  49.831  1.00  0.00     0.169 HD
ENDROOT
BRANCH   1  13
HETATM   13  C3  UNL     1      25.506   1.479  53.325  1.00  0.00     0.037 C 
BRANCH  13  14
HETATM   14  C2  UNL     1      26.099   0.113  53.505  1.00  0.00    -0.037 C 
HETATM   15  C1  UNL     1      25.515  -0.585  54.709  1.00  0.00     0.016 C 
HETATM   16  C13 UNL     1      26.098  -0.826  52.332  1.00  0.00     0.010 C 
HETATM   17  C14 UNL     1      27.476  -1.282  52.849  1.00  0.00     0.007 C 
HETATM   18  C15 UNL     1      27.609   0.097  53.402  1.00  0.00     0.004 C 
BRANCH  18  19
HETATM   19  C16 UNL     1      28.339   0.290  54.692  1.00  0.00     0.115 C 
BRANCH  19  20
HETATM   20  C17 UNL     1      29.196   1.471  54.727  1.00  0.00     0.139 C 
HETATM   21  O2  UNL     1      28.618   2.540  54.324  1.00  0.00    -0.650 OA
BRANCH  20  22
HETATM   22  O3  UNL     1      30.062   2.550  54.786  1.00  0.00    -0.776 OA
HETATM   23  H19 UNL     1      30.216   3.064  55.664  1.00  0.00     0.167 HD
ENDBRANCH  20  22
ENDBRANCH  19  20
ENDBRANCH  18  19
ENDBRANCH  13  14
ENDBRANCH   1  13
TORSDOF 5
ENDMDL
MODEL 4
REMARK VINA RESULT:      -8.6      2.797      6.399
REMARK  5 active torsions:
REMARK  status: ('A' for Active; 'I' for Inactive)
REMARK    1  A    between atoms: C2_2  and  C3_3 
REMARK    2  A    between atoms: C3_3  and  C4_4 
REMARK    3  A    between atoms: C15_17  and  C16_18 
REMARK    4  A    between atoms: C16_18  and  C17_19 
REMARK    5  A    between atoms: C17_19  and  O3_21 
ROOT
HETATM    1  C4  UNL     1      22.566   1.493  51.246  1.00  0.00    -0.008 C 
HETATM    2  C5  UNL     1      23.720   1.951  51.705  1.00  0.00     0.041 A 
HETATM    3  C6  UNL     1      24.327   3.276  51.475  1.00  0.00     0.256 A 
HETATM    4  O1  UNL     1      23.845   4.201  50.791  1.00  0.00    -0.267 OA
HETATM    5  N1  UNL     1      25.534   3.203  52.203  1.00  0.00    -0.322 N 
HETATM    6  C7  UNL     1      25.748   1.969  52.867  1.00  0.00     0.046 A 
HETATM    7  C8  UNL     1      26.816   1.589  53.651  1.00  0.00     0.030 A 
HETATM    8  C9  UNL     1      26.772   0.307  54.190  1.00  0.00     0.002 A 
HETATM    9  C10 UNL     1      25.694  -0.538  53.938  1.00  0.00     0.001 A 
HETATM   10  C11 UNL     1      24.682  -0.050  53.140  1.00  0.00     0.014 A 
HETATM   11  C12 UNL     1      24.632   1.195  52.562  1.00  0.00     0.006 A 
HETATM   12  H7  UNL     1      26.157   4.031  52.200  1.00  0.00     0.169 HD
ENDROOT
BRANCH   1  13
HETATM   13  C3  UNL     1      21.580   0.436  51.143  1.00  0.00     0.037 C 
BRANCH  13  14
HETATM   14  C2  UNL     1      20.421   0.524  52.091  1.00  0.00    -0.037 C 
HETATM   15  C1  UNL     1      20.133   1.955  52.474  1.00  0.00     0.016 C 
HETATM   16  C13 UNL     1      19.138  -0.161  51.715  1.00  0.00     0.010 C 
HETATM   17  C14 UNL     1      19.016  -0.492  53.215  1.00  0.00     0.007 C 
HETATM   18  C15 UNL     1      20.507  -0.459  53.237  1.00  0.00     0.004 C 
BRANCH  18  19
HETATM   19  C16 UNL     1      21.201   0.044  54.461  1.00  0.00     0.115 C 
BRANCH  19  20
HETATM   20  C17 UNL     1      22.043  -0.944  55.126  1.00  0.00     0.139 C 
HETATM   21  O2  UNL     1      21.623  -2.147  55.001  1.00  0.00    -0.650 OA
BRANCH  20  22
HETATM   22  O3  UNL     1      22.886  -1.829  55.777  1.00  0.00    -0.776 OA
HETATM   23  H19 UNL     1      22.830  -2.843  55.611  1.00  0.00     0.167 HD
ENDBRANCH  20  22
ENDBRANCH  19  20
ENDBRANCH  18  19
ENDBRANCH  13  14
ENDBRANCH   1  13
TORSDOF 5
ENDMDL
MODEL 5
REMARK VINA RESULT:      -8.5      1.495      1.921
REMARK  5 active torsions:
REMARK  status: ('A' for Active; 'I' for Inactive)
REMARK    1  A    between atoms: C2_2  and  C3_3 
REMARK    2  A    between atoms: C3_3  and  C4_4 
REMARK    3  A    between atoms: C15_17  and  C16_18 
REMARK    4  A    between atoms: C16_18  and  C17_19 
REMARK    5  A    between atoms: C17_19  and  O3_21 
ROOT
HETATM    1  C4  UNL     1      23.878  -0.480  53.266  1.00  0.00    -0.008 C 
HETATM    2  C5  UNL     1      22.616  -0.707  53.593  1.00  0.00     0.041 A 
HETATM    3  C6  UNL     1      22.097  -1.363  54.809  1.00  0.00     0.256 A 
HETATM    4  O1  UNL     1      22.777  -1.826  55.746  1.00  0.00    -0.267 OA
HETATM    5  N1  UNL     1      20.699  -1.320  54.620  1.00  0.00    -0.322 N 
HETATM    6  C7  UNL     1      20.286  -0.705  53.412  1.00  0.00     0.046 A 
HETATM    7  C8  UNL     1      19.006  -0.508  52.942  1.00  0.00     0.030 A 
HETATM    8  C9  UNL     1      18.881   0.132  51.712  1.00  0.00     0.002 A 
HETATM    9  C10 UNL     1      20.007   0.547  51.006  1.00  0.00     0.001 A 
HETATM   10  C11 UNL     1      21.237   0.297  51.574  1.00  0.00     0.014 A 
HETATM   11  C12 UNL     1      21.465  -0.326  52.777  1.00  0.00     0.006 A 
HETATM   12  H7  UNL     1      20.095  -1.728  55.356  1.00  0.00     0.169 HD
ENDROOT
BRANCH   1  13
HETATM   13  C3  UNL     1      24.869   0.043  52.345  1.00  0.00     0.037 C 
BRANCH  13  14
HETATM   14  C2  UNL     1      25.169   1.507  52.467  1.00  0.00    -0.037 C 
HETATM   15  C1  UNL     1      25.826   2.038  51.216  1.00  0.00     0.016 C 
HETATM   16  C13 UNL     1      24.061   2.431  52.882  1.00  0.00     0.010 C 
HETATM   17  C14 UNL     1      25.148   3.190  53.665  1.00  0.00     0.007 C 
HETATM   18  C15 UNL     1      25.844   1.875  53.770  1.00  0.00     0.004 C 
BRANCH  18  19
HETATM   19  C16 UNL     1      27.338   1.843  53.749  1.00  0.00     0.115 C 
BRANCH  19  20
HETATM   20  C17 UNL     1      27.924   0.671  54.390  1.00  0.00     0.139 C 
HETATM   21  O2  UNL     1      27.085  -0.026  55.058  1.00  0.00    -0.650 OA
BRANCH  20  22
HETATM   22  O3  UNL     1      28.545  -0.423  54.968  1.00  0.00    -0.776 OA
HETATM   23  H19 UNL     1      28.504  -1.354  54.533  1.00  0.00     0.167 HD
ENDBRANCH  20  22
ENDBRANCH  19  20
ENDBRANCH  18  19
ENDBRANCH  13  14
ENDBRANCH   1  13
TORSDOF 5
ENDMDL
MODEL 6
REMARK VINA RESULT:      -8.3      2.622      6.548
REMARK  5 active torsions:
REMARK  status: ('A' for Active; 'I' for Inactive)
REMARK    1  A    between atoms: C2_2  and  C3_3 
REMARK    2  A    between atoms: C3_3  and  C4_4 
REMARK    3  A    between atoms: C15_17  and  C16_18 
REMARK    4  A    between atoms: C16_18  and  C17_19 
REMARK    5  A    between atoms: C17_19  and  O3_21 
ROOT
HETATM    1  C4  UNL     1      24.087   1.234  52.989  1.00  0.00    -0.008 C 
HETATM    2  C5  UNL     1      25.057   0.653  53.677  1.00  0.00     0.041 A 
HETATM    3  C6  UNL     1      24.979  -0.569  54.501  1.00  0.00     0.256 A 
HETATM    4  O1  UNL     1      23.963  -1.267  54.693  1.00  0.00    -0.267 OA
HETATM    5  N1  UNL     1      26.299  -0.713  54.981  1.00  0.00    -0.322 N 
HETATM    6  C7  UNL     1      27.197   0.293  54.543  1.00  0.00     0.046 A 
HETATM    7  C8  UNL     1      28.538   0.431  54.831  1.00  0.00     0.030 A 
HETATM    8  C9  UNL     1      29.191   1.520  54.262  1.00  0.00     0.002 A 
HETATM    9  C10 UNL     1      28.508   2.416  53.444  1.00  0.00     0.001 A 
HETATM   10  C11 UNL     1      27.169   2.177  53.226  1.00  0.00     0.014 A 
HETATM   11  C12 UNL     1      26.436   1.135  53.740  1.00  0.00     0.006 A 
HETATM   12  H7  UNL     1      26.508  -1.517  55.599  1.00  0.00     0.169 HD
ENDROOT
BRANCH   1  13
HETATM   13  C3  UNL     1      23.618   2.293  52.117  1.00  0.00     0.037 C 
BRANCH  13  14
HETATM   14  C2  UNL     1      22.311   2.044  51.425  1.00  0.00    -0.037 C 
HETATM   15  C1  UNL     1      21.433   3.272  51.453  1.00  0.00     0.016 C 
HETATM   16  C13 UNL     1      22.336   1.477  50.035  1.00  0.00     0.010 C 
HETATM   17  C14 UNL     1      21.086   0.685  50.465  1.00  0.00     0.007 C 
HETATM   18  C15 UNL     1      21.647   0.751  51.845  1.00  0.00     0.004 C 
BRANCH  18  19
HETATM   19  C16 UNL     1      20.708   0.860  53.002  1.00  0.00     0.115 C 
BRANCH  19  20
HETATM   20  C17 UNL     1      20.814  -0.228  53.969  1.00  0.00     0.139 C 
HETATM   21  O2  UNL     1      21.089   0.163  55.156  1.00  0.00    -0.650 OA
BRANCH  20  22
HETATM   22  O3  UNL     1      20.899  -1.306  54.833  1.00  0.00    -0.776 OA
HETATM   23  H19 UNL     1      21.794  -1.585  55.255  1.00  0.00     0.167 HD
ENDBRANCH  20  22
ENDBRANCH  19  20
ENDBRANCH  18  19
ENDBRANCH  13  14
ENDBRANCH   1  13
TORSDOF 5
ENDMDL
MODEL 7
REMARK VINA RESULT:      -8.3      3.579      6.534
REMARK  5 active torsions:
REMARK  status: ('A' for Active; 'I' for Inactive)
REMARK    1  A    between atoms: C2_2  and  C3_3 
REMARK    2  A    between atoms: C3_3  and  C4_4 
REMARK    3  A    between atoms: C15_17  and  C16_18 
REMARK    4  A    between atoms: C16_18  and  C17_19 
REMARK    5  A    between atoms: C17_19  and  O3_21 
ROOT
HETATM    1  C4  UNL     1      24.257   1.964  53.027  1.00  0.00    -0.008 C 
HETATM    2  C5  UNL     1      25.101   1.051  53.481  1.00  0.00     0.041 A 
HETATM    3  C6  UNL     1      24.807  -0.340  53.876  1.00  0.00     0.256 A 
HETATM    4  O1  UNL     1      23.689  -0.895  53.852  1.00  0.00    -0.267 OA
HETATM    5  N1  UNL     1      26.070  -0.834  54.265  1.00  0.00    -0.322 N 
HETATM    6  C7  UNL     1      27.128   0.104  54.154  1.00  0.00     0.046 A 
HETATM    7  C8  UNL     1      28.463  -0.068  54.451  1.00  0.00     0.030 A 
HETATM    8  C9  UNL     1      29.296   1.028  54.246  1.00  0.00     0.002 A 
HETATM    9  C10 UNL     1      28.788   2.231  53.765  1.00  0.00     0.001 A 
HETATM   10  C11 UNL     1      27.437   2.287  53.503  1.00  0.00     0.014 A 
HETATM   11  C12 UNL     1      26.534   1.266  53.671  1.00  0.00     0.006 A 
HETATM   12  H7  UNL     1      26.132  -1.815  54.592  1.00  0.00     0.169 HD
ENDROOT
BRANCH   1  13
HETATM   13  C3  UNL     1      23.988   3.304  52.543  1.00  0.00     0.037 C 
BRANCH  13  14
HETATM   14  C2  UNL     1      23.300   3.397  51.214  1.00  0.00    -0.037 C 
HETATM   15  C1  UNL     1      22.904   2.032  50.705  1.00  0.00     0.016 C 
HETATM   16  C13 UNL     1      22.140   4.340  51.075  1.00  0.00     0.010 C 
HETATM   17  C14 UNL     1      22.684   4.610  49.659  1.00  0.00     0.007 C 
HETATM   18  C15 UNL     1      24.025   4.283  50.225  1.00  0.00     0.004 C 
BRANCH  18  19
HETATM   19  C16 UNL     1      25.025   3.590  49.357  1.00  0.00     0.115 C 
BRANCH  19  20
HETATM   20  C17 UNL     1      26.395   4.064  49.521  1.00  0.00     0.139 C 
HETATM   21  O2  UNL     1      27.079   3.386  50.364  1.00  0.00    -0.650 OA
BRANCH  20  22
HETATM   22  O3  UNL     1      27.682   4.566  49.627  1.00  0.00    -0.776 OA
HETATM   23  H19 UNL     1      27.869   5.576  49.573  1.00  0.00     0.167 HD
ENDBRANCH  20  22
ENDBRANCH  19  20
ENDBRANCH  18  19
ENDBRANCH  13  14
ENDBRANCH   1  13
TORSDOF 5
ENDMDL
MODEL 8
REMARK VINA RESULT:      -8.2      3.913      6.128
REMARK  5 active torsions:
REMARK  status: ('A' for Active; 'I' for Inactive)
REMARK    1  A    between atoms: C2_2  and  C3_3 
REMARK    2  A    between atoms: C3_3  and  C4_4 
REMARK    3  A    between atoms: C15_17  and  C16_18 
REMARK    4  A    between atoms: C16_18  and  C17_19 
REMARK    5  A    between atoms: C17_19  and  O3_21 
ROOT
HETATM    1  C4  UNL     1      24.425   2.691  51.467  1.00  0.00    -0.008 C 
HETATM    2  C5  UNL     1      24.515   3.926  50.999  1.00  0.00     0.041 A 
HETATM    3  C6  UNL     1      23.605   5.061  51.250  1.00  0.00     0.256 A 
HETATM    4  O1  UNL     1      22.576   5.041  51.955  1.00  0.00    -0.267 OA
HETATM    5  N1  UNL     1      24.194   6.109  50.511  1.00  0.00    -0.322 N 
HETATM    6  C7  UNL     1      25.380   5.750  49.822  1.00  0.00     0.046 A 
HETATM    7  C8  UNL     1      26.182   6.538  49.025  1.00  0.00     0.030 A 
HETATM    8  C9  UNL     1      27.301   5.928  48.465  1.00  0.00     0.002 A 
HETATM    9  C10 UNL     1      27.581   4.587  48.710  1.00  0.00     0.001 A 
HETATM   10  C11 UNL     1      26.708   3.898  49.524  1.00  0.00     0.014 A 
HETATM   11  C12 UNL     1      25.581   4.406  50.121  1.00  0.00     0.006 A 
HETATM   12  H7  UNL     1      23.731   7.036  50.526  1.00  0.00     0.169 HD
ENDROOT
BRANCH   1  13
HETATM   13  C3  UNL     1      24.935   1.338  51.562  1.00  0.00     0.037 C 
BRANCH  13  14
HETATM   14  C2  UNL     1      25.183   0.825  52.949  1.00  0.00    -0.037 C 
HETATM   15  C1  UNL     1      25.923   1.840  53.786  1.00  0.00     0.016 C 
HETATM   16  C13 UNL     1      24.018   0.286  53.729  1.00  0.00     0.010 C 
HETATM   17  C14 UNL     1      25.017  -0.754  54.271  1.00  0.00     0.007 C 
HETATM   18  C15 UNL     1      25.739  -0.582  52.978  1.00  0.00     0.004 C 
BRANCH  18  19
HETATM   19  C16 UNL     1      27.230  -0.681  52.964  1.00  0.00     0.115 C 
BRANCH  19  20
HETATM   20  C17 UNL     1      27.742  -2.044  52.873  1.00  0.00     0.139 C 
HETATM   21  O2  UNL     1      27.050  -2.805  52.110  1.00  0.00    -0.650 OA
BRANCH  20  22
HETATM   22  O3  UNL     1      28.281  -3.319  52.830  1.00  0.00    -0.776 OA
HETATM   23  H19 UNL     1      29.111  -3.567  53.386  1.00  0.00     0.167 HD
ENDBRANCH  20  22
ENDBRANCH  19  20
ENDBRANCH  18  19
ENDBRANCH  13  14
ENDBRANCH   1  13
TORSDOF 5
ENDMDL
MODEL 9
REMARK VINA RESULT:      -8.1      4.496      7.280
REMARK  5 active torsions:
REMARK  status: ('A' for Active; 'I' for Inactive)
REMARK    1  A    between atoms: C2_2  and  C3_3 
REMARK    2  A    between atoms: C3_3  and  C4_4 
REMARK    3  A    between atoms: C15_17  and  C16_18 
REMARK    4  A    between atoms: C16_18  and  C17_19 
REMARK    5  A    between atoms: C17_19  and  O3_21 
ROOT
HETATM    1  C4  UNL     1      24.405   1.955  52.863  1.00  0.00    -0.008 C 
HETATM    2  C5  UNL     1      25.212   1.083  53.447  1.00  0.00     0.041 A 
HETATM    3  C6  UNL     1      24.880  -0.261  53.956  1.00  0.00     0.256 A 
HETATM    4  O1  UNL     1      23.758  -0.807  53.924  1.00  0.00    -0.267 OA
HETATM    5  N1  UNL     1      26.114  -0.725  54.460  1.00  0.00    -0.322 N 
HETATM    6  C7  UNL     1      27.188   0.191  54.318  1.00  0.00     0.046 A 
HETATM    7  C8  UNL     1      28.502   0.038  54.703  1.00  0.00     0.030 A 
HETATM    8  C9  UNL     1      29.359   1.103  54.442  1.00  0.00     0.002 A 
HETATM    9  C10 UNL     1      28.893   2.259  53.821  1.00  0.00     0.001 A 
HETATM   10  C11 UNL     1      27.559   2.299  53.480  1.00  0.00     0.014 A 
HETATM   11  C12 UNL     1      26.635   1.305  53.695  1.00  0.00     0.006 A 
HETATM   12  H7  UNL     1      26.145  -1.670  54.881  1.00  0.00     0.169 HD
ENDROOT
BRANCH   1  13
HETATM   13  C3  UNL     1      24.180   3.245  52.240  1.00  0.00     0.037 C 
BRANCH  13  14
HETATM   14  C2  UNL     1      24.361   3.295  50.752  1.00  0.00    -0.037 C 
HETATM   15  C1  UNL     1      25.758   2.886  50.354  1.00  0.00     0.016 C 
HETATM   16  C13 UNL     1      23.363   2.579  49.887  1.00  0.00     0.010 C 
HETATM   17  C14 UNL     1      23.533   3.764  48.918  1.00  0.00     0.007 C 
HETATM   18  C15 UNL     1      23.848   4.575  50.129  1.00  0.00     0.004 C 
BRANCH  18  19
HETATM   19  C16 UNL     1      24.849   5.679  50.019  1.00  0.00     0.115 C 
BRANCH  19  20
HETATM   20  C17 UNL     1      24.524   6.866  50.802  1.00  0.00     0.139 C 
HETATM   21  O2  UNL     1      24.976   7.954  50.301  1.00  0.00    -0.650 OA
BRANCH  20  22
HETATM   22  O3  UNL     1      24.181   7.951  51.592  1.00  0.00    -0.776 OA
HETATM   23  H19 UNL     1      23.202   8.253  51.691  1.00  0.00     0.167 HD
ENDBRANCH  20  22
ENDBRANCH  19  20
ENDBRANCH  18  19
ENDBRANCH  13  14
ENDBRANCH   1  13
TORSDOF 5
ENDMDL
