MODEL 1
REMARK VINA RESULT:      -7.8      0.000      0.000
REMARK  5 active torsions:
REMARK  status: ('A' for Active; 'I' for Inactive)
REMARK       I    between atoms: C1_2  and  N1_3 
REMARK    1  A    between atoms: C1_2  and  C8_10 
REMARK    2  A    between atoms: N1_3  and  C2_4 
REMARK    3  A    between atoms: C9_12  and  C10_13 
REMARK    4  A    between atoms: C13_16  and  O2_17 
REMARK    5  A    between atoms: C14_18  and  O3_19 
ROOT
HETATM    1  C8  UNL     1      24.828   2.789  50.798  1.00  0.00     0.102 C 
HETATM    2 CL1  UNL     1      24.444   3.674  49.339  1.00  0.00    -0.078 Cl
HETATM    3  C9  UNL     1      26.055   2.322  50.908  1.00  0.00     0.041 C 
ENDROOT
BRANCH   1   4
HETATM    4  C1  UNL     1      23.788   2.621  51.797  1.00  0.00     0.263 C 
HETATM    5  O1  UNL     1      23.117   3.347  52.577  1.00  0.00    -0.267 OA
HETATM    6  N1  UNL     1      23.294   1.312  52.075  1.00  0.00    -0.352 N 
HETATM    7  H1  UNL     1      23.640   0.424  51.594  1.00  0.00     0.163 HD
BRANCH   6   8
HETATM    8  C2  UNL     1      22.271   0.952  53.029  1.00  0.00     0.084 C 
HETATM    9  C3  UNL     1      22.765  -0.193  53.897  1.00  0.00     0.025 C 
HETATM   10  C4  UNL     1      21.626  -0.593  54.808  1.00  0.00     0.002 C 
HETATM   11  C5  UNL     1      20.581  -1.227  53.903  1.00  0.00     0.000 C 
HETATM   12  C6  UNL     1      20.023  -0.206  52.957  1.00  0.00     0.002 C 
HETATM   13  C7  UNL     1      21.026   0.647  52.269  1.00  0.00     0.025 C 
ENDBRANCH   6   8
ENDBRANCH   1   4
BRANCH   3  14
HETATM   14  C10 UNL     1      26.827   1.564  51.876  1.00  0.00    -0.032 A 
HETATM   15  C11 UNL     1      26.800   0.178  52.071  1.00  0.00     0.014 A 
HETATM   16  C12 UNL     1      27.607  -0.406  53.020  1.00  0.00     0.040 A 
HETATM   17  C13 UNL     1      28.464   0.337  53.806  1.00  0.00     0.098 A 
HETATM   18  C14 UNL     1      28.496   1.722  53.618  1.00  0.00     0.099 A 
HETATM   19  C15 UNL     1      27.683   2.315  52.661  1.00  0.00     0.051 A 
BRANCH  17  20
HETATM   20  O2  UNL     1      29.241  -0.337  54.740  1.00  0.00    -0.358 OA
HETATM   21  H16 UNL     1      30.056   0.097  55.152  1.00  0.00     0.217 HD
ENDBRANCH  17  20
BRANCH  18  22
HETATM   22  O3  UNL     1      29.394   2.356  54.465  1.00  0.00    -0.358 OA
HETATM   23  H17 UNL     1      29.979   3.116  54.092  1.00  0.00     0.217 HD
ENDBRANCH  18  22
ENDBRANCH   3  14
TORSDOF 5
ENDMDL
MODEL 2
REMARK VINA RESULT:      -7.4      2.375      4.533
REMARK  5 active torsions:
REMARK  status: ('A' for Active; 'I' for Inactive)
REMARK       I    between atoms: C1_2  and  N1_3 
REMARK    1  A    between atoms: C1_2  and  C8_10 
REMARK    2  A    between atoms: N1_3  and  C2_4 
REMARK    3  A    between atoms: C9_12  and  C10_13 
REMARK    4  A    between atoms: C13_16  and  O2_17 
REMARK    5  A    between atoms: C14_18  and  O3_19 
ROOT
HETATM    1  C8  UNL     1      23.234   0.381  53.294  1.00  0.00     0.102 C 
HETATM    2 CL1  UNL     1      21.648   0.315  54.029  1.00  0.00    -0.078 Cl
HETATM    3  C9  UNL     1      24.218  -0.211  53.939  1.00  0.00     0.041 C 
ENDROOT
BRANCH   1   4
HETATM    4  C1  UNL     1      23.378   1.074  52.025  1.00  0.00     0.263 C 
HETATM    5  O1  UNL     1      22.837   1.063  50.889  1.00  0.00    -0.267 OA
HETATM    6  N1  UNL     1      24.382   2.079  51.891  1.00  0.00    -0.352 N 
HETATM    7  H1  UNL     1      25.053   2.367  52.670  1.00  0.00     0.163 HD
BRANCH   6   8
HETATM    8  C2  UNL     1      24.672   2.867  50.716  1.00  0.00     0.084 C 
HETATM    9  C3  UNL     1      26.173   2.902  50.485  1.00  0.00     0.025 C 
HETATM   10  C4  UNL     1      26.428   3.816  49.307  1.00  0.00     0.002 C 
HETATM   11  C5  UNL     1      26.087   5.215  49.793  1.00  0.00     0.000 C 
HETATM   12  C6  UNL     1      24.622   5.319  50.095  1.00  0.00     0.002 C 
HETATM   13  C7  UNL     1      24.053   4.210  50.904  1.00  0.00     0.025 C 
ENDBRANCH   6   8
ENDBRANCH   1   4
BRANCH   3  14
HETATM   14  C10 UNL     1      25.641  -0.426  53.752  1.00  0.00    -0.032 A 
HETATM   15  C11 UNL     1      26.244  -1.323  52.862  1.00  0.00     0.014 A 
HETATM   16  C12 UNL     1      27.616  -1.404  52.780  1.00  0.00     0.040 A 
HETATM   17  C13 UNL     1      28.441  -0.617  53.557  1.00  0.00     0.098 A 
HETATM   18  C14 UNL     1      27.846   0.282  54.448  1.00  0.00     0.099 A 
HETATM   19  C15 UNL     1      26.463   0.366  54.533  1.00  0.00     0.051 A 
BRANCH  17  20
HETATM   20  O2  UNL     1      29.813  -0.766  53.408  1.00  0.00    -0.358 OA
HETATM   21  H16 UNL     1      30.441   0.018  53.525  1.00  0.00     0.217 HD
ENDBRANCH  17  20
BRANCH  18  22
HETATM   22  O3  UNL     1      28.778   1.014  55.170  1.00  0.00    -0.358 OA
HETATM   23  H17 UNL     1      29.584   1.419  54.675  1.00  0.00     0.217 HD
ENDBRANCH  18  22
ENDBRANCH   3  14
TORSDOF 5
ENDMDL
MODEL 3
REMARK VINA RESULT:      -7.4      2.684      4.155
REMARK  5 active torsions:
REMARK  status: ('A' for Active; 'I' for Inactive)
REMARK       I    between atoms: C1_2  and  N1_3 
REMARK    1  A    between atoms: C1_2  and  C8_10 
REMARK    2  A    between atoms: N1_3  and  C2_4 
REMARK    3  A    between atoms: C9_12  and  C10_13 
REMARK    4  A    between atoms: C13_16  and  O2_17 
REMARK    5  A    between atoms: C14_18  and  O3_19 
ROOT
HETATM    1  C8  UNL     1      22.970  -0.384  53.456  1.00  0.00     0.102 C 
HETATM    2 CL1  UNL     1      21.904  -1.618  54.087  1.00  0.00    -0.078 Cl
HETATM    3  C9  UNL     1      24.254  -0.509  53.723  1.00  0.00     0.041 C 
ENDROOT
BRANCH   1   4
HETATM    4  C1  UNL     1      22.390   0.698  52.680  1.00  0.00     0.263 C 
HETATM    5  O1  UNL     1      21.706   1.733  52.888  1.00  0.00    -0.267 OA
HETATM    6  N1  UNL     1      22.570   0.714  51.264  1.00  0.00    -0.352 N 
HETATM    7  H1  UNL     1      23.111  -0.027  50.718  1.00  0.00     0.163 HD
BRANCH   6   8
HETATM    8  C2  UNL     1      22.070   1.700  50.335  1.00  0.00     0.084 C 
HETATM    9  C3  UNL     1      21.363   1.003  49.185  1.00  0.00     0.025 C 
HETATM   10  C4  UNL     1      20.947   2.069  48.197  1.00  0.00     0.002 C 
HETATM   11  C5  UNL     1      22.238   2.589  47.587  1.00  0.00     0.000 C 
HETATM   12  C6  UNL     1      23.064   3.283  48.630  1.00  0.00     0.002 C 
HETATM   13  C7  UNL     1      23.217   2.555  49.916  1.00  0.00     0.025 C 
ENDBRANCH   6   8
ENDBRANCH   1   4
BRANCH   3  14
HETATM   14  C10 UNL     1      25.480   0.214  53.438  1.00  0.00    -0.032 A 
HETATM   15  C11 UNL     1      25.768   0.955  52.284  1.00  0.00     0.014 A 
HETATM   16  C12 UNL     1      26.973   1.608  52.162  1.00  0.00     0.040 A 
HETATM   17  C13 UNL     1      27.932   1.563  53.153  1.00  0.00     0.098 A 
HETATM   18  C14 UNL     1      27.651   0.826  54.308  1.00  0.00     0.099 A 
HETATM   19  C15 UNL     1      26.436   0.166  54.435  1.00  0.00     0.051 A 
BRANCH  17  20
HETATM   20  O2  UNL     1      29.119   2.252  52.943  1.00  0.00    -0.358 OA
HETATM   21  H16 UNL     1      29.120   3.241  52.731  1.00  0.00     0.217 HD
ENDBRANCH  17  20
BRANCH  18  22
HETATM   22  O3  UNL     1      28.690   0.857  55.227  1.00  0.00    -0.358 OA
HETATM   23  H17 UNL     1      28.732   1.632  55.904  1.00  0.00     0.217 HD
ENDBRANCH  18  22
ENDBRANCH   3  14
TORSDOF 5
ENDMDL
MODEL 4
REMARK VINA RESULT:      -7.3      3.418      6.026
REMARK  5 active torsions:
REMARK  status: ('A' for Active; 'I' for Inactive)
REMARK       I    between atoms: C1_2  and  N1_3 
REMARK    1  A    between atoms: C1_2  and  C8_10 
REMARK    2  A    between atoms: N1_3  and  C2_4 
REMARK    3  A    between atoms: C9_12  and  C10_13 
REMARK    4  A    between atoms: C13_16  and  O2_17 
REMARK    5  A    between atoms: C14_18  and  O3_19 
ROOT
HETATM    1  C8  UNL     1      25.308   2.147  52.087  1.00  0.00     0.102 C 
HETATM    2 CL1  UNL     1      26.869   2.328  51.318  1.00  0.00    -0.078 Cl
HETATM    3  C9  UNL     1      24.898   0.918  52.325  1.00  0.00     0.041 C 
ENDROOT
BRANCH   1   4
HETATM    4  C1  UNL     1      24.560   3.347  52.419  1.00  0.00     0.263 C 
HETATM    5  O1  UNL     1      23.977   3.835  53.422  1.00  0.00    -0.267 OA
HETATM    6  N1  UNL     1      24.348   4.336  51.413  1.00  0.00    -0.352 N 
HETATM    7  H1  UNL     1      24.706   4.261  50.410  1.00  0.00     0.163 HD
BRANCH   6   8
HETATM    8  C2  UNL     1      23.633   5.583  51.557  1.00  0.00     0.084 C 
HETATM    9  C3  UNL     1      22.326   5.511  50.785  1.00  0.00     0.025 C 
HETATM   10  C4  UNL     1      21.666   6.867  50.887  1.00  0.00     0.002 C 
HETATM   11  C5  UNL     1      22.535   7.809  50.069  1.00  0.00     0.000 C 
HETATM   12  C6  UNL     1      23.887   7.951  50.704  1.00  0.00     0.002 C 
HETATM   13  C7  UNL     1      24.539   6.681  51.118  1.00  0.00     0.025 C 
ENDBRANCH   6   8
ENDBRANCH   1   4
BRANCH   3  14
HETATM   14  C10 UNL     1      23.738   0.275  52.914  1.00  0.00    -0.032 A 
HETATM   15  C11 UNL     1      22.427   0.296  52.423  1.00  0.00     0.014 A 
HETATM   16  C12 UNL     1      21.427  -0.382  53.083  1.00  0.00     0.040 A 
HETATM   17  C13 UNL     1      21.670  -1.099  54.236  1.00  0.00     0.098 A 
HETATM   18  C14 UNL     1      22.977  -1.124  54.733  1.00  0.00     0.099 A 
HETATM   19  C15 UNL     1      23.988  -0.442  54.070  1.00  0.00     0.051 A 
BRANCH  17  20
HETATM   20  O2  UNL     1      20.600  -1.751  54.836  1.00  0.00    -0.358 OA
HETATM   21  H16 UNL     1      20.737  -2.357  55.633  1.00  0.00     0.217 HD
ENDBRANCH  17  20
BRANCH  18  22
HETATM   22  O3  UNL     1      23.092  -1.876  55.893  1.00  0.00    -0.358 OA
HETATM   23  H17 UNL     1      23.937  -2.446  56.035  1.00  0.00     0.217 HD
ENDBRANCH  18  22
ENDBRANCH   3  14
TORSDOF 5
ENDMDL
MODEL 5
REMARK VINA RESULT:      -7.0      2.316      6.634
REMARK  5 active torsions:
REMARK  status: ('A' for Active; 'I' for Inactive)
REMARK       I    between atoms: C1_2  and  N1_3 
REMARK    1  A    between atoms: C1_2  and  C8_10 
REMARK    2  A    between atoms: N1_3  and  C2_4 
REMARK    3  A    between atoms: C9_12  and  C10_13 
REMARK    4  A    between atoms: C13_16  and  O2_17 
REMARK    5  A    between atoms: C14_18  and  O3_19 
ROOT
HETATM    1  C8  UNL     1      24.150   2.108  51.274  1.00  0.00     0.102 C 
HETATM    2 CL1  UNL     1      24.706   3.115  49.957  1.00  0.00    -0.078 Cl
HETATM    3  C9  UNL     1      22.927   1.625  51.183  1.00  0.00     0.041 C 
ENDROOT
BRANCH   1   4
HETATM    4  C1  UNL     1      25.055   1.859  52.382  1.00  0.00     0.263 C 
HETATM    5  O1  UNL     1      25.209   2.253  53.567  1.00  0.00    -0.267 OA
HETATM    6  N1  UNL     1      26.120   0.924  52.215  1.00  0.00    -0.352 N 
HETATM    7  H1  UNL     1      26.307   0.380  51.316  1.00  0.00     0.163 HD
BRANCH   6   8
HETATM    8  C2  UNL     1      27.112   0.551  53.197  1.00  0.00     0.084 C 
HETATM    9  C3  UNL     1      28.236   1.573  53.197  1.00  0.00     0.025 C 
HETATM   10  C4  UNL     1      29.289   1.086  54.167  1.00  0.00     0.002 C 
HETATM   11  C5  UNL     1      29.900  -0.147  53.523  1.00  0.00     0.000 C 
HETATM   12  C6  UNL     1      28.880  -1.243  53.426  1.00  0.00     0.002 C 
HETATM   13  C7  UNL     1      27.553  -0.839  52.893  1.00  0.00     0.025 C 
ENDBRANCH   6   8
ENDBRANCH   1   4
BRANCH   3  14
HETATM   14  C10 UNL     1      22.051   0.780  51.974  1.00  0.00    -0.032 A 
HETATM   15  C11 UNL     1      22.426  -0.068  53.023  1.00  0.00     0.014 A 
HETATM   16  C12 UNL     1      21.475  -0.799  53.698  1.00  0.00     0.040 A 
HETATM   17  C13 UNL     1      20.136  -0.727  53.377  1.00  0.00     0.098 A 
HETATM   18  C14 UNL     1      19.753   0.118  52.331  1.00  0.00     0.099 A 
HETATM   19  C15 UNL     1      20.710   0.857  51.647  1.00  0.00     0.051 A 
BRANCH  17  20
HETATM   20  O2  UNL     1      19.247  -1.501  54.113  1.00  0.00    -0.358 OA
HETATM   21  H16 UNL     1      19.086  -2.473  53.883  1.00  0.00     0.217 HD
ENDBRANCH  17  20
BRANCH  18  22
HETATM   22  O3  UNL     1      18.385   0.102  52.105  1.00  0.00    -0.358 OA
HETATM   23  H17 UNL     1      17.903  -0.804  52.024  1.00  0.00     0.217 HD
ENDBRANCH  18  22
ENDBRANCH   3  14
TORSDOF 5
ENDMDL
MODEL 6
REMARK VINA RESULT:      -7.0      2.644      4.250
REMARK  5 active torsions:
REMARK  status: ('A' for Active; 'I' for Inactive)
REMARK       I    between atoms: C1_2  and  N1_3 
REMARK    1  A    between atoms: C1_2  and  C8_10 
REMARK    2  A    between atoms: N1_3  and  C2_4 
REMARK    3  A    between atoms: C9_12  and  C10_13 
REMARK    4  A    between atoms: C13_16  and  O2_17 
REMARK    5  A    between atoms: C14_18  and  O3_19 
ROOT
HETATM    1  C8  UNL     1      23.667   0.871  52.745  1.00  0.00     0.102 C 
HETATM    2 CL1  UNL     1      21.982   0.899  53.213  1.00  0.00    -0.078 Cl
HETATM    3  C9  UNL     1      24.482   0.150  53.488  1.00  0.00     0.041 C 
ENDROOT
BRANCH   1   4
HETATM    4  C1  UNL     1      24.072   1.633  51.577  1.00  0.00     0.263 C 
HETATM    5  O1  UNL     1      25.134   2.101  51.091  1.00  0.00    -0.267 OA
HETATM    6  N1  UNL     1      23.083   2.033  50.630  1.00  0.00    -0.352 N 
HETATM    7  H1  UNL     1      22.042   1.810  50.716  1.00  0.00     0.163 HD
BRANCH   6   8
HETATM    8  C2  UNL     1      23.295   2.790  49.418  1.00  0.00     0.084 C 
HETATM    9  C3  UNL     1      22.955   4.250  49.665  1.00  0.00     0.025 C 
HETATM   10  C4  UNL     1      23.100   4.977  48.347  1.00  0.00     0.002 C 
HETATM   11  C5  UNL     1      21.966   4.468  47.472  1.00  0.00     0.000 C 
HETATM   12  C6  UNL     1      22.155   3.011  47.171  1.00  0.00     0.002 C 
HETATM   13  C7  UNL     1      22.493   2.153  48.336  1.00  0.00     0.025 C 
ENDBRANCH   6   8
ENDBRANCH   1   4
BRANCH   3  14
HETATM   14  C10 UNL     1      25.895  -0.180  53.512  1.00  0.00    -0.032 A 
HETATM   15  C11 UNL     1      26.531  -1.200  52.793  1.00  0.00     0.014 A 
HETATM   16  C12 UNL     1      27.891  -1.382  52.901  1.00  0.00     0.040 A 
HETATM   17  C13 UNL     1      28.673  -0.581  53.708  1.00  0.00     0.098 A 
HETATM   18  C14 UNL     1      28.045   0.440  54.429  1.00  0.00     0.099 A 
HETATM   19  C15 UNL     1      26.673   0.627  54.322  1.00  0.00     0.051 A 
BRANCH  17  20
HETATM   20  O2  UNL     1      30.036  -0.839  53.757  1.00  0.00    -0.358 OA
HETATM   21  H16 UNL     1      30.418  -1.517  54.402  1.00  0.00     0.217 HD
ENDBRANCH  17  20
BRANCH  18  22
HETATM   22  O3  UNL     1      28.935   1.173  55.200  1.00  0.00    -0.358 OA
HETATM   23  H17 UNL     1      28.625   2.070  55.600  1.00  0.00     0.217 HD
ENDBRANCH  18  22
ENDBRANCH   3  14
TORSDOF 5
ENDMDL
MODEL 7
REMARK VINA RESULT:      -7.0      3.020      5.702
REMARK  5 active torsions:
REMARK  status: ('A' for Active; 'I' for Inactive)
REMARK       I    between atoms: C1_2  and  N1_3 
REMARK    1  A    between atoms: C1_2  and  C8_10 
REMARK    2  A    between atoms: N1_3  and  C2_4 
REMARK    3  A    between atoms: C9_12  and  C10_13 
REMARK    4  A    between atoms: C13_16  and  O2_17 
REMARK    5  A    between atoms: C14_18  and  O3_19 
ROOT
HETATM    1  C8  UNL     1      23.871   3.512  52.160  1.00  0.00     0.102 C 
HETATM    2 CL1  UNL     1      22.580   4.606  52.600  1.00  0.00    -0.078 Cl
HETATM    3  C9  UNL     1      24.236   2.624  53.063  1.00  0.00     0.041 C 
ENDROOT
BRANCH   1   4
HETATM    4  C1  UNL     1      24.464   3.638  50.840  1.00  0.00     0.263 C 
HETATM    5  O1  UNL     1      24.445   3.016  49.746  1.00  0.00    -0.267 OA
HETATM    6  N1  UNL     1      25.337   4.733  50.570  1.00  0.00    -0.352 N 
HETATM    7  H1  UNL     1      25.596   5.485  51.282  1.00  0.00     0.163 HD
BRANCH   6   8
HETATM    8  C2  UNL     1      26.014   5.020  49.327  1.00  0.00     0.084 C 
HETATM    9  C3  UNL     1      27.489   4.677  49.461  1.00  0.00     0.025 C 
HETATM   10  C4  UNL     1      28.166   5.086  48.172  1.00  0.00     0.002 C 
HETATM   11  C5  UNL     1      28.130   6.605  48.153  1.00  0.00     0.000 C 
HETATM   12  C6  UNL     1      26.715   7.092  48.056  1.00  0.00     0.002 C 
HETATM   13  C7  UNL     1      25.749   6.444  48.982  1.00  0.00     0.025 C 
ENDBRANCH   6   8
ENDBRANCH   1   4
BRANCH   3  14
HETATM   14  C10 UNL     1      25.206   1.550  53.174  1.00  0.00    -0.032 A 
HETATM   15  C11 UNL     1      25.173   0.317  52.510  1.00  0.00     0.014 A 
HETATM   16  C12 UNL     1      26.180  -0.601  52.699  1.00  0.00     0.040 A 
HETATM   17  C13 UNL     1      27.247  -0.351  53.536  1.00  0.00     0.098 A 
HETATM   18  C14 UNL     1      27.288   0.878  54.203  1.00  0.00     0.099 A 
HETATM   19  C15 UNL     1      26.274   1.807  54.014  1.00  0.00     0.051 A 
BRANCH  17  20
HETATM   20  O2  UNL     1      28.217  -1.336  53.668  1.00  0.00    -0.358 OA
HETATM   21  H16 UNL     1      28.745  -1.440  54.525  1.00  0.00     0.217 HD
ENDBRANCH  17  20
BRANCH  18  22
HETATM   22  O3  UNL     1      28.407   1.010  55.013  1.00  0.00    -0.358 OA
HETATM   23  H17 UNL     1      28.969   1.870  54.949  1.00  0.00     0.217 HD
ENDBRANCH  18  22
ENDBRANCH   3  14
TORSDOF 5
ENDMDL
MODEL 8
REMARK VINA RESULT:      -6.9      1.702      2.130
REMARK  5 active torsions:
REMARK  status: ('A' for Active; 'I' for Inactive)
REMARK       I    between atoms: C1_2  and  N1_3 
REMARK    1  A    between atoms: C1_2  and  C8_10 
REMARK    2  A    between atoms: N1_3  and  C2_4 
REMARK    3  A    between atoms: C9_12  and  C10_13 
REMARK    4  A    between atoms: C13_16  and  O2_17 
REMARK    5  A    between atoms: C14_18  and  O3_19 
ROOT
HETATM    1  C8  UNL     1      24.301   2.761  52.918  1.00  0.00     0.102 C 
HETATM    2 CL1  UNL     1      23.785   4.418  53.137  1.00  0.00    -0.078 Cl
HETATM    3  C9  UNL     1      25.515   2.455  53.326  1.00  0.00     0.041 C 
ENDROOT
BRANCH   1   4
HETATM    4  C1  UNL     1      23.374   1.825  52.307  1.00  0.00     0.263 C 
HETATM    5  O1  UNL     1      23.134   1.363  51.162  1.00  0.00    -0.267 OA
HETATM    6  N1  UNL     1      22.404   1.172  53.125  1.00  0.00    -0.352 N 
HETATM    7  H1  UNL     1      22.304   1.324  54.177  1.00  0.00     0.163 HD
BRANCH   6   8
HETATM    8  C2  UNL     1      21.407   0.218  52.698  1.00  0.00     0.084 C 
HETATM    9  C3  UNL     1      20.089   0.934  52.455  1.00  0.00     0.025 C 
HETATM   10  C4  UNL     1      19.061  -0.118  52.107  1.00  0.00     0.002 C 
HETATM   11  C5  UNL     1      18.832  -0.907  53.386  1.00  0.00     0.000 C 
HETATM   12  C6  UNL     1      20.078  -1.649  53.769  1.00  0.00     0.002 C 
HETATM   13  C7  UNL     1      21.335  -0.857  53.727  1.00  0.00     0.025 C 
ENDBRANCH   6   8
ENDBRANCH   1   4
BRANCH   3  14
HETATM   14  C10 UNL     1      26.363   1.277  53.366  1.00  0.00    -0.032 A 
HETATM   15  C11 UNL     1      25.946  -0.059  53.321  1.00  0.00     0.014 A 
HETATM   16  C12 UNL     1      26.872  -1.077  53.347  1.00  0.00     0.040 A 
HETATM   17  C13 UNL     1      28.227  -0.829  53.416  1.00  0.00     0.098 A 
HETATM   18  C14 UNL     1      28.652   0.503  53.461  1.00  0.00     0.099 A 
HETATM   19  C15 UNL     1      27.720   1.532  53.434  1.00  0.00     0.051 A 
BRANCH  17  20
HETATM   20  O2  UNL     1      29.088  -1.918  53.439  1.00  0.00    -0.358 OA
HETATM   21  H16 UNL     1      28.748  -2.858  53.287  1.00  0.00     0.217 HD
ENDBRANCH  17  20
BRANCH  18  22
HETATM   22  O3  UNL     1      30.032   0.621  53.529  1.00  0.00    -0.358 OA
HETATM   23  H17 UNL     1      30.524   0.248  54.353  1.00  0.00     0.217 HD
ENDBRANCH  18  22
ENDBRANCH   3  14
TORSDOF 5
ENDMDL
MODEL 9
REMARK VINA RESULT:      -6.9      3.187      5.687
REMARK  5 active torsions:
REMARK  status: ('A' for Active; 'I' for Inactive)
REMARK       I    between atoms: C1_2  and  N1_3 
REMARK    1  A    between atoms: C1_2  and  C8_10 
REMARK    2  A    between atoms: N1_3  and  C2_4 
REMARK    3  A    between atoms: C9_12  and  C10_13 
REMARK    4  A    between atoms: C13_16  and  O2_17 
REMARK    5  A    between atoms: C14_18  and  O3_19 
ROOT
HETATM    1  C8  UNL     1      23.218   2.207  50.278  1.00  0.00     0.102 C 
HETATM    2 CL1  UNL     1      21.938   1.117  49.794  1.00  0.00    -0.078 Cl
HETATM    3  C9  UNL     1      23.493   3.205  49.465  1.00  0.00     0.041 C 
ENDROOT
BRANCH   1   4
HETATM    4  C1  UNL     1      23.899   1.955  51.536  1.00  0.00     0.263 C 
HETATM    5  O1  UNL     1      23.654   2.059  52.766  1.00  0.00    -0.267 OA
HETATM    6  N1  UNL     1      25.232   1.446  51.517  1.00  0.00    -0.352 N 
HETATM    7  H1  UNL     1      25.781   1.231  50.627  1.00  0.00     0.163 HD
BRANCH   6   8
HETATM    8  C2  UNL     1      26.061   1.137  52.659  1.00  0.00     0.084 C 
HETATM    9  C3  UNL     1      27.274   2.053  52.668  1.00  0.00     0.025 C 
HETATM   10  C4  UNL     1      28.154   1.626  53.821  1.00  0.00     0.002 C 
HETATM   11  C5  UNL     1      28.710   0.267  53.430  1.00  0.00     0.000 C 
HETATM   12  C6  UNL     1      27.605  -0.744  53.349  1.00  0.00     0.002 C 
HETATM   13  C7  UNL     1      26.395  -0.313  52.601  1.00  0.00     0.025 C 
ENDBRANCH   6   8
ENDBRANCH   1   4
BRANCH   3  14
HETATM   14  C10 UNL     1      24.418   4.324  49.421  1.00  0.00    -0.032 A 
HETATM   15  C11 UNL     1      24.091   5.685  49.480  1.00  0.00     0.014 A 
HETATM   16  C12 UNL     1      25.083   6.638  49.448  1.00  0.00     0.040 A 
HETATM   17  C13 UNL     1      26.418   6.301  49.358  1.00  0.00     0.098 A 
HETATM   18  C14 UNL     1      26.751   4.944  49.299  1.00  0.00     0.099 A 
HETATM   19  C15 UNL     1      25.753   3.979  49.332  1.00  0.00     0.051 A 
BRANCH  17  20
HETATM   20  O2  UNL     1      27.350   7.330  49.331  1.00  0.00    -0.358 OA
HETATM   21  H16 UNL     1      28.082   7.391  50.026  1.00  0.00     0.217 HD
ENDBRANCH  17  20
BRANCH  18  22
HETATM   22  O3  UNL     1      28.120   4.734  49.212  1.00  0.00    -0.358 OA
HETATM   23  H17 UNL     1      28.515   4.388  48.326  1.00  0.00     0.217 HD
ENDBRANCH  18  22
ENDBRANCH   3  14
TORSDOF 5
ENDMDL
