MODEL 1
REMARK VINA RESULT:      -8.7      0.000      0.000
REMARK  4 active torsions:
REMARK  status: ('A' for Active; 'I' for Inactive)
REMARK    1  A    between atoms: O1_1  and  C1_2 
REMARK    2  A    between atoms: C3_5  and  N1_6 
REMARK    3  A    between atoms: C4_8  and  C5_9 
REMARK    4  A    between atoms: C11_16  and  C12_17 
ROOT
HETATM    1  N1  UNL     1      23.034   1.516  52.276  1.00  0.00    -0.237 N 
HETATM    2  N2  UNL     1      23.075   1.856  50.915  1.00  0.00    -0.178 NA
HETATM    3  C4  UNL     1      23.780   2.944  50.747  1.00  0.00     0.046 C 
HETATM    4  C10 UNL     1      24.287   3.425  52.084  1.00  0.00     0.089 C 
HETATM    5  C11 UNL     1      24.086   2.221  52.981  1.00  0.00     0.151 C 
ENDROOT
BRANCH   1   6
HETATM    6  C3  UNL     1      22.111   0.612  52.941  1.00  0.00     0.192 A 
HETATM    7  S1  UNL     1      20.337   0.790  52.280  1.00  0.00    -0.058 SA
HETATM    8  C2  UNL     1      19.719  -0.496  53.417  1.00  0.00     0.111 A 
HETATM    9  C1  UNL     1      20.947  -0.854  54.113  1.00  0.00     0.171 A 
HETATM   10  N3  UNL     1      22.030  -0.198  53.741  1.00  0.00    -0.198 NA
BRANCH   9  11
HETATM   11  O1  UNL     1      21.134  -1.813  55.135  1.00  0.00    -0.344 OA
HETATM   12  H1  UNL     1      21.804  -1.649  55.886  1.00  0.00     0.219 HD
ENDBRANCH   9  11
ENDBRANCH   1   6
BRANCH   5  13
HETATM   13  C12 UNL     1      25.353   1.476  53.068  1.00  0.00    -0.033 A 
HETATM   14  C13 UNL     1      25.513   0.193  52.593  1.00  0.00     0.011 A 
HETATM   15  C14 UNL     1      26.743  -0.457  52.707  1.00  0.00     0.019 A 
HETATM   16  C15 UNL     1      27.828   0.174  53.299  1.00  0.00     0.011 A 
HETATM   17 BR1  UNL     1      29.542  -0.637  53.495  1.00  0.00    -0.051 Br
HETATM   18  C16 UNL     1      27.683   1.458  53.779  1.00  0.00     0.019 A 
HETATM   19  C17 UNL     1      26.456   2.078  53.654  1.00  0.00     0.011 A 
ENDBRANCH   5  13
BRANCH   3  20
HETATM   20  C5  UNL     1      24.114   3.697  49.510  1.00  0.00     0.082 A 
HETATM   21  C6  UNL     1      23.967   5.153  49.631  1.00  0.00    -0.011 A 
HETATM   22  C7  UNL     1      25.113   5.786  49.443  1.00  0.00     0.020 A 
HETATM   23  C8  UNL     1      26.152   4.774  49.171  1.00  0.00     0.031 A 
HETATM   24 CL1  UNL     1      27.872   4.781  48.827  1.00  0.00    -0.085 Cl
HETATM   25  C9  UNL     1      25.584   3.569  49.208  1.00  0.00     0.011 A 
ENDBRANCH   3  20
TORSDOF 4
ENDMDL
MODEL 2
REMARK VINA RESULT:      -8.1      4.128      6.494
REMARK  4 active torsions:
REMARK  status: ('A' for Active; 'I' for Inactive)
REMARK    1  A    between atoms: O1_1  and  C1_2 
REMARK    2  A    between atoms: C3_5  and  N1_6 
REMARK    3  A    between atoms: C4_8  and  C5_9 
REMARK    4  A    between atoms: C11_16  and  C12_17 
ROOT
HETATM    1  N1  UNL     1      25.523   1.118  53.209  1.00  0.00    -0.237 N 
HETATM    2  N2  UNL     1      24.792   0.030  52.708  1.00  0.00    -0.178 NA
HETATM    3  C4  UNL     1      23.509   0.261  52.826  1.00  0.00     0.046 C 
HETATM    4  C10 UNL     1      23.300   1.615  53.458  1.00  0.00     0.089 C 
HETATM    5  C11 UNL     1      24.656   2.275  53.315  1.00  0.00     0.151 C 
ENDROOT
BRANCH   1   6
HETATM    6  C3  UNL     1      26.926   1.149  53.585  1.00  0.00     0.192 A 
HETATM    7  S1  UNL     1      27.812  -0.483  53.176  1.00  0.00    -0.058 SA
HETATM    8  C2  UNL     1      29.395   0.142  53.833  1.00  0.00     0.111 A 
HETATM    9  C1  UNL     1      29.005   1.479  54.255  1.00  0.00     0.171 A 
HETATM   10  N3  UNL     1      27.741   1.799  54.051  1.00  0.00    -0.198 NA
BRANCH   9  11
HETATM   11  O1  UNL     1      29.800   2.482  54.854  1.00  0.00    -0.344 OA
HETATM   12  H1  UNL     1      29.531   2.895  55.747  1.00  0.00     0.219 HD
ENDBRANCH   9  11
ENDBRANCH   1   6
BRANCH   5  13
HETATM   13  C12 UNL     1      24.646   3.128  52.114  1.00  0.00    -0.033 A 
HETATM   14  C13 UNL     1      25.452   2.907  51.019  1.00  0.00     0.011 A 
HETATM   15  C14 UNL     1      25.392   3.755  49.913  1.00  0.00     0.019 A 
HETATM   16  C15 UNL     1      24.521   4.836  49.892  1.00  0.00     0.011 A 
HETATM   17 BR1  UNL     1      24.373   6.043  48.424  1.00  0.00    -0.051 Br
HETATM   18  C16 UNL     1      23.708   5.069  50.981  1.00  0.00     0.019 A 
HETATM   19  C17 UNL     1      23.788   4.216  52.063  1.00  0.00     0.011 A 
ENDBRANCH   5  13
BRANCH   3  20
HETATM   20  C5  UNL     1      22.339  -0.573  52.447  1.00  0.00     0.082 A 
HETATM   21  C6  UNL     1      21.486  -0.964  53.577  1.00  0.00    -0.011 A 
HETATM   22  C7  UNL     1      20.256  -0.493  53.457  1.00  0.00     0.020 A 
HETATM   23  C8  UNL     1      20.183   0.274  52.200  1.00  0.00     0.031 A 
HETATM   24 CL1  UNL     1      18.957   1.183  51.336  1.00  0.00    -0.085 Cl
HETATM   25  C9  UNL     1      21.379   0.233  51.612  1.00  0.00     0.011 A 
ENDBRANCH   3  20
TORSDOF 4
ENDMDL
MODEL 3
REMARK VINA RESULT:      -8.0      3.410      5.432
REMARK  4 active torsions:
REMARK  status: ('A' for Active; 'I' for Inactive)
REMARK    1  A    between atoms: O1_1  and  C1_2 
REMARK    2  A    between atoms: C3_5  and  N1_6 
REMARK    3  A    between atoms: C4_8  and  C5_9 
REMARK    4  A    between atoms: C11_16  and  C12_17 
ROOT
HETATM    1  N1  UNL     1      23.911   2.491  51.836  1.00  0.00    -0.237 N 
HETATM    2  N2  UNL     1      24.568   2.589  53.073  1.00  0.00    -0.178 NA
HETATM    3  C4  UNL     1      25.767   2.075  52.984  1.00  0.00     0.046 C 
HETATM    4  C10 UNL     1      25.993   1.570  51.580  1.00  0.00     0.089 C 
HETATM    5  C11 UNL     1      24.883   2.234  50.792  1.00  0.00     0.151 C 
ENDROOT
BRANCH   1   6
HETATM    6  C3  UNL     1      22.487   2.613  51.572  1.00  0.00     0.192 A 
HETATM    7  S1  UNL     1      21.975   1.703  49.984  1.00  0.00    -0.058 SA
HETATM    8  C2  UNL     1      20.230   2.195  50.192  1.00  0.00     0.111 A 
HETATM    9  C1  UNL     1      20.312   2.966  51.425  1.00  0.00     0.171 A 
HETATM   10  N3  UNL     1      21.513   3.063  51.963  1.00  0.00    -0.198 NA
BRANCH   9  11
HETATM   11  O1  UNL     1      19.275   3.625  52.123  1.00  0.00    -0.344 OA
HETATM   12  H1  UNL     1      19.488   4.349  52.809  1.00  0.00     0.219 HD
ENDBRANCH   9  11
ENDBRANCH   1   6
BRANCH   5  13
HETATM   13  C12 UNL     1      25.414   3.451  50.155  1.00  0.00    -0.033 A 
HETATM   14  C13 UNL     1      24.736   4.650  50.125  1.00  0.00     0.011 A 
HETATM   15  C14 UNL     1      25.297   5.766  49.504  1.00  0.00     0.019 A 
HETATM   16  C15 UNL     1      26.547   5.693  48.905  1.00  0.00     0.011 A 
HETATM   17 BR1  UNL     1      27.388   7.166  48.037  1.00  0.00    -0.051 Br
HETATM   18  C16 UNL     1      27.238   4.500  48.928  1.00  0.00     0.019 A 
HETATM   19  C17 UNL     1      26.660   3.411  49.548  1.00  0.00     0.011 A 
ENDBRANCH   5  13
BRANCH   3  20
HETATM   20  C5  UNL     1      26.839   1.942  54.005  1.00  0.00     0.082 A 
HETATM   21  C6  UNL     1      26.645   0.825  54.939  1.00  0.00    -0.011 A 
HETATM   22  C7  UNL     1      27.625  -0.060  54.864  1.00  0.00     0.020 A 
HETATM   23  C8  UNL     1      28.583   0.407  53.845  1.00  0.00     0.031 A 
HETATM   24 CL1  UNL     1      30.096  -0.166  53.168  1.00  0.00    -0.085 Cl
HETATM   25  C9  UNL     1      28.137   1.559  53.346  1.00  0.00     0.011 A 
ENDBRANCH   3  20
TORSDOF 4
ENDMDL
MODEL 4
REMARK VINA RESULT:      -7.8      3.939      6.269
REMARK  4 active torsions:
REMARK  status: ('A' for Active; 'I' for Inactive)
REMARK    1  A    between atoms: O1_1  and  C1_2 
REMARK    2  A    between atoms: C3_5  and  N1_6 
REMARK    3  A    between atoms: C4_8  and  C5_9 
REMARK    4  A    between atoms: C11_16  and  C12_17 
ROOT
HETATM    1  N1  UNL     1      22.564   4.528  50.679  1.00  0.00    -0.237 N 
HETATM    2  N2  UNL     1      22.900   4.126  51.981  1.00  0.00    -0.178 NA
HETATM    3  C4  UNL     1      23.507   2.967  51.948  1.00  0.00     0.046 C 
HETATM    4  C10 UNL     1      23.618   2.500  50.518  1.00  0.00     0.089 C 
HETATM    5  C11 UNL     1      23.331   3.756  49.722  1.00  0.00     0.151 C 
ENDROOT
BRANCH   1   6
HETATM    6  C3  UNL     1      21.606   5.546  50.281  1.00  0.00     0.192 A 
HETATM    7  S1  UNL     1      22.210   7.298  50.706  1.00  0.00    -0.058 SA
HETATM    8  C2  UNL     1      20.698   8.052  50.017  1.00  0.00     0.111 A 
HETATM    9  C1  UNL     1      19.980   6.863  49.578  1.00  0.00     0.171 A 
HETATM   10  N3  UNL     1      20.588   5.712  49.793  1.00  0.00    -0.198 NA
BRANCH   9  11
HETATM   11  O1  UNL     1      18.716   6.779  48.950  1.00  0.00    -0.344 OA
HETATM   12  H1  UNL     1      18.545   7.246  48.060  1.00  0.00     0.219 HD
ENDBRANCH   9  11
ENDBRANCH   1   6
BRANCH   5  13
HETATM   13  C12 UNL     1      24.611   4.378  49.339  1.00  0.00    -0.033 A 
HETATM   14  C13 UNL     1      24.711   5.651  48.823  1.00  0.00     0.011 A 
HETATM   15  C14 UNL     1      25.956   6.181  48.481  1.00  0.00     0.019 A 
HETATM   16  C15 UNL     1      27.116   5.438  48.651  1.00  0.00     0.011 A 
HETATM   17 BR1  UNL     1      28.855   6.082  48.212  1.00  0.00    -0.051 Br
HETATM   18  C16 UNL     1      27.031   4.162  49.167  1.00  0.00     0.019 A 
HETATM   19  C17 UNL     1      25.787   3.662  49.497  1.00  0.00     0.011 A 
ENDBRANCH   5  13
BRANCH   3  20
HETATM   20  C5  UNL     1      24.052   2.132  53.050  1.00  0.00     0.082 A 
HETATM   21  C6  UNL     1      23.318   0.879  53.276  1.00  0.00    -0.011 A 
HETATM   22  C7  UNL     1      24.081  -0.184  53.083  1.00  0.00     0.020 A 
HETATM   23  C8  UNL     1      25.427   0.284  52.702  1.00  0.00     0.031 A 
HETATM   24 CL1  UNL     1      26.961  -0.460  52.290  1.00  0.00    -0.085 Cl
HETATM   25  C9  UNL     1      25.418   1.616  52.680  1.00  0.00     0.011 A 
ENDBRANCH   3  20
TORSDOF 4
ENDMDL
MODEL 5
REMARK VINA RESULT:      -7.8      3.895      6.066
REMARK  4 active torsions:
REMARK  status: ('A' for Active; 'I' for Inactive)
REMARK    1  A    between atoms: O1_1  and  C1_2 
REMARK    2  A    between atoms: C3_5  and  N1_6 
REMARK    3  A    between atoms: C4_8  and  C5_9 
REMARK    4  A    between atoms: C11_16  and  C12_17 
ROOT
HETATM    1  N1  UNL     1      23.795   3.692  50.942  1.00  0.00    -0.237 N 
HETATM    2  N2  UNL     1      22.718   3.683  51.843  1.00  0.00    -0.178 NA
HETATM    3  C4  UNL     1      22.186   2.488  51.891  1.00  0.00     0.046 C 
HETATM    4  C10 UNL     1      22.935   1.568  50.959  1.00  0.00     0.089 C 
HETATM    5  C11 UNL     1      24.213   2.330  50.675  1.00  0.00     0.151 C 
ENDROOT
BRANCH   1   6
HETATM    6  C3  UNL     1      24.435   4.845  50.333  1.00  0.00     0.192 A 
HETATM    7  S1  UNL     1      23.605   5.342  48.697  1.00  0.00    -0.058 SA
HETATM    8  C2  UNL     1      24.770   6.725  48.455  1.00  0.00     0.111 A 
HETATM    9  C1  UNL     1      25.598   6.592  49.645  1.00  0.00     0.171 A 
HETATM   10  N3  UNL     1      25.281   5.602  50.458  1.00  0.00    -0.198 NA
BRANCH   9  11
HETATM   11  O1  UNL     1      26.699   7.383  50.046  1.00  0.00    -0.344 OA
HETATM   12  H1  UNL     1      27.588   7.327  49.549  1.00  0.00     0.219 HD
ENDBRANCH   9  11
ENDBRANCH   1   6
BRANCH   5  13
HETATM   13  C12 UNL     1      25.269   1.840  51.578  1.00  0.00    -0.033 A 
HETATM   14  C13 UNL     1      26.500   2.444  51.705  1.00  0.00     0.011 A 
HETATM   15  C14 UNL     1      27.456   1.927  52.580  1.00  0.00     0.019 A 
HETATM   16  C15 UNL     1      27.188   0.796  53.339  1.00  0.00     0.011 A 
HETATM   17 BR1  UNL     1      28.433   0.024  54.557  1.00  0.00    -0.051 Br
HETATM   18  C16 UNL     1      25.959   0.181  53.222  1.00  0.00     0.019 A 
HETATM   19  C17 UNL     1      25.032   0.712  52.349  1.00  0.00     0.011 A 
ENDBRANCH   5  13
BRANCH   3  20
HETATM   20  C5  UNL     1      21.039   1.974  52.683  1.00  0.00     0.082 A 
HETATM   21  C6  UNL     1      20.019   1.280  51.885  1.00  0.00    -0.011 A 
HETATM   22  C7  UNL     1      19.883   0.015  52.245  1.00  0.00     0.020 A 
HETATM   23  C8  UNL     1      20.828  -0.250  53.346  1.00  0.00     0.031 A 
HETATM   24 CL1  UNL     1      21.260  -1.623  54.347  1.00  0.00    -0.085 Cl
HETATM   25  C9  UNL     1      21.498   0.874  53.604  1.00  0.00     0.011 A 
ENDBRANCH   3  20
TORSDOF 4
ENDMDL
MODEL 6
REMARK VINA RESULT:      -7.8      3.774      5.435
REMARK  4 active torsions:
REMARK  status: ('A' for Active; 'I' for Inactive)
REMARK    1  A    between atoms: O1_1  and  C1_2 
REMARK    2  A    between atoms: C3_5  and  N1_6 
REMARK    3  A    between atoms: C4_8  and  C5_9 
REMARK    4  A    between atoms: C11_16  and  C12_17 
ROOT
HETATM    1  N1  UNL     1      24.700   1.729  52.332  1.00  0.00    -0.237 N 
HETATM    2  N2  UNL     1      24.523   3.002  52.895  1.00  0.00    -0.178 NA
HETATM    3  C4  UNL     1      23.749   3.727  52.128  1.00  0.00     0.046 C 
HETATM    4  C10 UNL     1      23.336   2.917  50.925  1.00  0.00     0.089 C 
HETATM    5  C11 UNL     1      23.677   1.498  51.331  1.00  0.00     0.151 C 
ENDROOT
BRANCH   1   6
HETATM    6  C3  UNL     1      25.723   0.749  52.652  1.00  0.00     0.192 A 
HETATM    7  S1  UNL     1      27.285   1.557  53.373  1.00  0.00    -0.058 SA
HETATM    8  C2  UNL     1      28.115  -0.059  53.547  1.00  0.00     0.111 A 
HETATM    9  C1  UNL     1      27.083  -0.949  53.035  1.00  0.00     0.171 A 
HETATM   10  N3  UNL     1      25.967  -0.367  52.638  1.00  0.00    -0.198 NA
BRANCH   9  11
HETATM   11  O1  UNL     1      27.117  -2.356  52.905  1.00  0.00    -0.344 OA
HETATM   12  H1  UNL     1      27.667  -2.798  52.169  1.00  0.00     0.219 HD
ENDBRANCH   9  11
ENDBRANCH   1   6
BRANCH   5  13
HETATM   13  C12 UNL     1      22.463   0.848  51.853  1.00  0.00    -0.033 A 
HETATM   14  C13 UNL     1      22.426   0.149  53.039  1.00  0.00     0.011 A 
HETATM   15  C14 UNL     1      21.241  -0.443  53.477  1.00  0.00     0.019 A 
HETATM   16  C15 UNL     1      20.077  -0.341  52.728  1.00  0.00     0.011 A 
HETATM   17 BR1  UNL     1      18.416  -1.116  53.250  1.00  0.00    -0.051 Br
HETATM   18  C16 UNL     1      20.098   0.356  51.539  1.00  0.00     0.019 A 
HETATM   19  C17 UNL     1      21.284   0.932  51.129  1.00  0.00     0.011 A 
ENDBRANCH   5  13
BRANCH   3  20
HETATM   20  C5  UNL     1      23.270   5.125  52.285  1.00  0.00     0.082 A 
HETATM   21  C6  UNL     1      24.033   6.114  51.512  1.00  0.00    -0.011 A 
HETATM   22  C7  UNL     1      23.278   6.736  50.622  1.00  0.00     0.020 A 
HETATM   23  C8  UNL     1      21.909   6.200  50.730  1.00  0.00     0.031 A 
HETATM   24 CL1  UNL     1      20.369   6.480  49.938  1.00  0.00    -0.085 Cl
HETATM   25  C9  UNL     1      21.896   5.271  51.686  1.00  0.00     0.011 A 
ENDBRANCH   3  20
TORSDOF 4
ENDMDL
MODEL 7
REMARK VINA RESULT:      -7.6      7.532      9.924
REMARK  4 active torsions:
REMARK  status: ('A' for Active; 'I' for Inactive)
REMARK    1  A    between atoms: O1_1  and  C1_2 
REMARK    2  A    between atoms: C3_5  and  N1_6 
REMARK    3  A    between atoms: C4_8  and  C5_9 
REMARK    4  A    between atoms: C11_16  and  C12_17 
ROOT
HETATM    1  N1  UNL     1      30.493   6.828  48.114  1.00  0.00    -0.237 N 
HETATM    2  N2  UNL     1      30.632   7.889  49.022  1.00  0.00    -0.178 NA
HETATM    3  C4  UNL     1      29.816   8.861  48.703  1.00  0.00     0.046 C 
HETATM    4  C10 UNL     1      29.029   8.472  47.476  1.00  0.00     0.089 C 
HETATM    5  C11 UNL     1      29.247   6.975  47.387  1.00  0.00     0.151 C 
ENDROOT
BRANCH   1   6
HETATM    6  C3  UNL     1      31.411   5.726  47.885  1.00  0.00     0.192 A 
HETATM    7  S1  UNL     1      32.460   5.984  46.321  1.00  0.00    -0.058 SA
HETATM    8  C2  UNL     1      33.328   4.399  46.567  1.00  0.00     0.111 A 
HETATM    9  C1  UNL     1      32.690   3.928  47.788  1.00  0.00     0.171 A 
HETATM   10  N3  UNL     1      31.764   4.721  48.295  1.00  0.00    -0.198 NA
BRANCH   9  11
HETATM   11  O1  UNL     1      32.930   2.733  48.505  1.00  0.00    -0.344 OA
HETATM   12  H1  UNL     1      32.876   2.718  49.523  1.00  0.00     0.219 HD
ENDBRANCH   9  11
ENDBRANCH   1   6
BRANCH   5  13
HETATM   13  C12 UNL     1      28.103   6.290  48.013  1.00  0.00    -0.033 A 
HETATM   14  C13 UNL     1      28.168   5.009  48.514  1.00  0.00     0.011 A 
HETATM   15  C14 UNL     1      27.045   4.417  49.095  1.00  0.00     0.019 A 
HETATM   16  C15 UNL     1      25.843   5.106  49.180  1.00  0.00     0.011 A 
HETATM   17 BR1  UNL     1      24.263   4.377  49.958  1.00  0.00    -0.051 Br
HETATM   18  C16 UNL     1      25.764   6.390  48.683  1.00  0.00     0.019 A 
HETATM   19  C17 UNL     1      26.889   6.951  48.113  1.00  0.00     0.011 A 
ENDBRANCH   5  13
BRANCH   3  20
HETATM   20  C5  UNL     1      29.589  10.182  49.345  1.00  0.00     0.082 A 
HETATM   21  C6  UNL     1      30.746  11.085  49.289  1.00  0.00    -0.011 A 
HETATM   22  C7  UNL     1      30.478  12.193  48.617  1.00  0.00     0.020 A 
HETATM   23  C8  UNL     1      29.079  12.119  48.156  1.00  0.00     0.031 A 
HETATM   24 CL1  UNL     1      27.988  13.140  47.237  1.00  0.00    -0.085 Cl
HETATM   25  C9  UNL     1      28.560  10.963  48.572  1.00  0.00     0.011 A 
ENDBRANCH   3  20
TORSDOF 4
ENDMDL
MODEL 8
REMARK VINA RESULT:      -7.2      9.251     11.622
REMARK  4 active torsions:
REMARK  status: ('A' for Active; 'I' for Inactive)
REMARK    1  A    between atoms: O1_1  and  C1_2 
REMARK    2  A    between atoms: C3_5  and  N1_6 
REMARK    3  A    between atoms: C4_8  and  C5_9 
REMARK    4  A    between atoms: C11_16  and  C12_17 
ROOT
HETATM    1  N1  UNL     1      32.659   7.769  47.389  1.00  0.00    -0.237 N 
HETATM    2  N2  UNL     1      32.714   9.089  47.862  1.00  0.00    -0.178 NA
HETATM    3  C4  UNL     1      32.055   9.881  47.054  1.00  0.00     0.046 C 
HETATM    4  C10 UNL     1      31.483   9.072  45.917  1.00  0.00     0.089 C 
HETATM    5  C11 UNL     1      31.589   7.647  46.419  1.00  0.00     0.151 C 
ENDROOT
BRANCH   1   6
HETATM    6  C3  UNL     1      33.510   6.653  47.766  1.00  0.00     0.192 A 
HETATM    7  S1  UNL     1      33.694   5.389  46.358  1.00  0.00    -0.058 SA
HETATM    8  C2  UNL     1      34.778   4.327  47.370  1.00  0.00     0.111 A 
HETATM    9  C1  UNL     1      34.829   5.094  48.607  1.00  0.00     0.171 A 
HETATM   10  N3  UNL     1      34.138   6.218  48.614  1.00  0.00    -0.198 NA
BRANCH   9  11
HETATM   11  O1  UNL     1      35.521   4.795  49.803  1.00  0.00    -0.344 OA
HETATM   12  H1  UNL     1      35.018   4.466  50.627  1.00  0.00     0.219 HD
ENDBRANCH   9  11
ENDBRANCH   1   6
BRANCH   5  13
HETATM   13  C12 UNL     1      30.295   7.250  47.001  1.00  0.00    -0.033 A 
HETATM   14  C13 UNL     1      29.141   7.987  46.857  1.00  0.00     0.011 A 
HETATM   15  C14 UNL     1      27.947   7.554  47.434  1.00  0.00     0.019 A 
HETATM   16  C15 UNL     1      27.897   6.374  48.164  1.00  0.00     0.011 A 
HETATM   17 BR1  UNL     1      26.312   5.707  48.985  1.00  0.00    -0.051 Br
HETATM   18  C16 UNL     1      29.045   5.625  48.316  1.00  0.00     0.019 A 
HETATM   19  C17 UNL     1      30.213   6.077  47.735  1.00  0.00     0.011 A 
ENDBRANCH   5  13
BRANCH   3  20
HETATM   20  C5  UNL     1      31.823  11.347  47.117  1.00  0.00     0.082 A 
HETATM   21  C6  UNL     1      31.029  11.880  46.002  1.00  0.00    -0.011 A 
HETATM   22  C7  UNL     1      29.898  12.427  46.415  1.00  0.00     0.020 A 
HETATM   23  C8  UNL     1      29.841  12.303  47.883  1.00  0.00     0.031 A 
HETATM   24 CL1  UNL     1      28.720  12.755  49.153  1.00  0.00    -0.085 Cl
HETATM   25  C9  UNL     1      30.946  11.682  48.295  1.00  0.00     0.011 A 
ENDBRANCH   3  20
TORSDOF 4
ENDMDL
MODEL 9
REMARK VINA RESULT:      -7.1      2.740      3.439
REMARK  4 active torsions:
REMARK  status: ('A' for Active; 'I' for Inactive)
REMARK    1  A    between atoms: O1_1  and  C1_2 
REMARK    2  A    between atoms: C3_5  and  N1_6 
REMARK    3  A    between atoms: C4_8  and  C5_9 
REMARK    4  A    between atoms: C11_16  and  C12_17 
ROOT
HETATM    1  N1  UNL     1      20.005   1.464  51.954  1.00  0.00    -0.237 N 
HETATM    2  N2  UNL     1      20.140   2.130  50.726  1.00  0.00    -0.178 NA
HETATM    3  C4  UNL     1      20.805   3.245  50.893  1.00  0.00     0.046 C 
HETATM    4  C10 UNL     1      21.178   3.394  52.347  1.00  0.00     0.089 C 
HETATM    5  C11 UNL     1      20.962   2.001  52.902  1.00  0.00     0.151 C 
ENDROOT
BRANCH   1   6
HETATM    6  C3  UNL     1      19.075   0.401  52.293  1.00  0.00     0.192 A 
HETATM    7  S1  UNL     1      17.588   0.349  51.110  1.00  0.00    -0.058 SA
HETATM    8  C2  UNL     1      16.858  -1.072  51.991  1.00  0.00     0.111 A 
HETATM    9  C1  UNL     1      17.851  -1.280  53.036  1.00  0.00     0.171 A 
HETATM   10  N3  UNL     1      18.879  -0.453  53.025  1.00  0.00    -0.198 NA
BRANCH   9  11
HETATM   11  O1  UNL     1      17.860  -2.252  54.063  1.00  0.00    -0.344 OA
HETATM   12  H1  UNL     1      17.760  -3.243  53.842  1.00  0.00     0.219 HD
ENDBRANCH   9  11
ENDBRANCH   1   6
BRANCH   5  13
HETATM   13  C12 UNL     1      22.252   1.290  52.918  1.00  0.00    -0.033 A 
HETATM   14  C13 UNL     1      22.417   0.029  53.445  1.00  0.00     0.011 A 
HETATM   15  C14 UNL     1      23.669  -0.589  53.428  1.00  0.00     0.019 A 
HETATM   16  C15 UNL     1      24.771   0.054  52.882  1.00  0.00     0.011 A 
HETATM   17 BR1  UNL     1      26.514  -0.713  52.816  1.00  0.00    -0.051 Br
HETATM   18  C16 UNL     1      24.621   1.318  52.351  1.00  0.00     0.019 A 
HETATM   19  C17 UNL     1      23.372   1.906  52.381  1.00  0.00     0.011 A 
ENDBRANCH   5  13
BRANCH   3  20
HETATM   20  C5  UNL     1      21.202   4.288  49.911  1.00  0.00     0.082 A 
HETATM   21  C6  UNL     1      22.643   4.571  49.883  1.00  0.00    -0.011 A 
HETATM   22  C7  UNL     1      23.178   4.303  48.703  1.00  0.00     0.020 A 
HETATM   23  C8  UNL     1      22.107   3.805  47.820  1.00  0.00     0.031 A 
HETATM   24 CL1  UNL     1      21.985   3.253  46.160  1.00  0.00    -0.085 Cl
HETATM   25  C9  UNL     1      20.966   3.793  48.508  1.00  0.00     0.011 A 
ENDBRANCH   3  20
TORSDOF 4
ENDMDL
