MODEL 1
REMARK VINA RESULT:      -7.1      0.000      0.000
REMARK  9 active torsions:
REMARK  status: ('A' for Active; 'I' for Inactive)
REMARK    1  A    between atoms: C2_2  and  C3_3 
REMARK    2  A    between atoms: C3_3  and  C4_4 
REMARK    3  A    between atoms: C4_4  and  N1_5 
REMARK    4  A    between atoms: N1_5  and  C5_6 
REMARK    5  A    between atoms: N1_5  and  N2_16 
REMARK    6  A    between atoms: C5_6  and  C6_7 
REMARK    7  A    between atoms: C11_14  and  O1_15 
REMARK    8  A    between atoms: N2_16  and  O2_17 
REMARK    9  A    between atoms: N2_16  and  C13_19 
ROOT
HETATM    1  N1  UNL     1      25.213   3.620  50.668  1.00  0.00    -0.301 N 
ENDROOT
BRANCH   1   2
HETATM    2  C4  UNL     1      25.731   4.521  49.735  1.00  0.00     0.145 C 
BRANCH   2   3
HETATM    3  C3  UNL     1      27.047   4.409  49.113  1.00  0.00     0.021 C 
BRANCH   3   4
HETATM    4  C2  UNL     1      27.591   5.643  48.465  1.00  0.00    -0.003 C 
HETATM    5  C1  UNL     1      29.100   5.491  48.240  1.00  0.00     0.005 C 
ENDBRANCH   3   4
ENDBRANCH   2   3
ENDBRANCH   1   2
BRANCH   1   6
HETATM    6  C5  UNL     1      25.892   2.425  50.991  1.00  0.00     0.156 C 
BRANCH   6   7
HETATM    7  C6  UNL     1      25.928   2.327  52.516  1.00  0.00     0.068 A 
HETATM    8  C7  UNL     1      24.957   1.355  53.057  1.00  0.00     0.064 A 
HETATM    9  C8  UNL     1      25.602   0.311  53.866  1.00  0.00     0.014 A 
HETATM   10 CL1  UNL     1      24.379  -0.810  54.499  1.00  0.00    -0.089 Cl
HETATM   11  C9  UNL     1      26.841   0.023  54.220  1.00  0.00     0.046 A 
HETATM   12  C10 UNL     1      27.811   0.959  53.690  1.00  0.00     0.064 A 
HETATM   13 CL2  UNL     1      29.496   0.794  54.005  1.00  0.00    -0.082 Cl
HETATM   14  C11 UNL     1      27.315   1.937  52.953  1.00  0.00     0.071 A 
BRANCH  14  15
HETATM   15  O1  UNL     1      28.265   2.818  52.453  1.00  0.00    -0.363 OA
HETATM   16  H16 UNL     1      29.129   3.025  52.893  1.00  0.00     0.217 HD
ENDBRANCH  14  15
ENDBRANCH   6   7
ENDBRANCH   1   6
BRANCH   1  17
HETATM   17  N2  UNL     1      23.823   3.411  50.478  1.00  0.00    -0.168 N 
BRANCH  17  18
HETATM   18  O2  UNL     1      23.268   4.567  50.899  1.00  0.00    -0.263 OA
HETATM   19  C12 UNL     1      23.041   4.642  52.250  1.00  0.00     0.240 C 
ENDBRANCH  17  18
BRANCH  17  20
HETATM   20  C13 UNL     1      22.893   2.442  50.025  1.00  0.00     0.062 A 
HETATM   21  C14 UNL     1      22.200   1.494  50.635  1.00  0.00     0.029 A 
HETATM   22  C15 UNL     1      21.419   0.837  49.600  1.00  0.00    -0.002 A 
HETATM   23  C16 UNL     1      21.636   1.371  48.409  1.00  0.00    -0.021 A 
HETATM   24  C17 UNL     1      22.619   2.476  48.538  1.00  0.00     0.088 A 
ENDBRANCH  17  20
ENDBRANCH   1  17
TORSDOF 9
ENDMDL
MODEL 2
REMARK VINA RESULT:      -7.0      2.854      4.449
REMARK  9 active torsions:
REMARK  status: ('A' for Active; 'I' for Inactive)
REMARK    1  A    between atoms: C2_2  and  C3_3 
REMARK    2  A    between atoms: C3_3  and  C4_4 
REMARK    3  A    between atoms: C4_4  and  N1_5 
REMARK    4  A    between atoms: N1_5  and  C5_6 
REMARK    5  A    between atoms: N1_5  and  N2_16 
REMARK    6  A    between atoms: C5_6  and  C6_7 
REMARK    7  A    between atoms: C11_14  and  O1_15 
REMARK    8  A    between atoms: N2_16  and  O2_17 
REMARK    9  A    between atoms: N2_16  and  C13_19 
ROOT
HETATM    1  N1  UNL     1      24.392   0.645  52.180  1.00  0.00    -0.301 N 
ENDROOT
BRANCH   1   2
HETATM    2  C4  UNL     1      23.781   0.343  53.399  1.00  0.00     0.145 C 
BRANCH   2   3
HETATM    3  C3  UNL     1      22.879  -0.783  53.620  1.00  0.00     0.021 C 
BRANCH   3   4
HETATM    4  C2  UNL     1      21.906  -0.653  54.749  1.00  0.00    -0.003 C 
HETATM    5  C1  UNL     1      20.763   0.288  54.346  1.00  0.00     0.005 C 
ENDBRANCH   3   4
ENDBRANCH   2   3
ENDBRANCH   1   2
BRANCH   1   6
HETATM    6  C5  UNL     1      25.775   0.919  52.098  1.00  0.00     0.156 C 
BRANCH   6   7
HETATM    7  C6  UNL     1      26.429   0.299  53.333  1.00  0.00     0.068 A 
HETATM    8  C7  UNL     1      26.988  -1.044  53.081  1.00  0.00     0.064 A 
HETATM    9  C8  UNL     1      28.424  -1.117  53.383  1.00  0.00     0.014 A 
HETATM   10 CL1  UNL     1      29.027  -2.759  53.075  1.00  0.00    -0.089 Cl
HETATM   11  C9  UNL     1      29.341  -0.272  53.817  1.00  0.00     0.046 A 
HETATM   12  C10 UNL     1      28.815   1.055  54.061  1.00  0.00     0.064 A 
HETATM   13 CL2  UNL     1      29.817   2.337  54.626  1.00  0.00    -0.082 Cl
HETATM   14  C11 UNL     1      27.525   1.209  53.820  1.00  0.00     0.071 A 
BRANCH  14  15
HETATM   15  O1  UNL     1      27.046   2.490  54.057  1.00  0.00    -0.363 OA
HETATM   16  H16 UNL     1      26.097   2.713  54.241  1.00  0.00     0.217 HD
ENDBRANCH  14  15
ENDBRANCH   6   7
ENDBRANCH   1   6
BRANCH   1  17
HETATM   17  N2  UNL     1      23.619   1.557  51.419  1.00  0.00    -0.168 N 
BRANCH  17  18
HETATM   18  O2  UNL     1      23.956   2.762  51.927  1.00  0.00    -0.263 OA
HETATM   19  C12 UNL     1      22.898   3.539  52.326  1.00  0.00     0.240 C 
ENDBRANCH  17  18
BRANCH  17  20
HETATM   20  C13 UNL     1      22.665   1.607  50.370  1.00  0.00     0.062 A 
HETATM   21  C14 UNL     1      22.629   2.232  49.205  1.00  0.00     0.029 A 
HETATM   22  C15 UNL     1      21.363   1.867  48.591  1.00  0.00    -0.002 A 
HETATM   23  C16 UNL     1      20.661   1.052  49.362  1.00  0.00    -0.021 A 
HETATM   24  C17 UNL     1      21.420   0.784  50.611  1.00  0.00     0.088 A 
ENDBRANCH  17  20
ENDBRANCH   1  17
TORSDOF 9
ENDMDL
MODEL 3
REMARK VINA RESULT:      -7.0      1.838      4.691
REMARK  9 active torsions:
REMARK  status: ('A' for Active; 'I' for Inactive)
REMARK    1  A    between atoms: C2_2  and  C3_3 
REMARK    2  A    between atoms: C3_3  and  C4_4 
REMARK    3  A    between atoms: C4_4  and  N1_5 
REMARK    4  A    between atoms: N1_5  and  C5_6 
REMARK    5  A    between atoms: N1_5  and  N2_16 
REMARK    6  A    between atoms: C5_6  and  C6_7 
REMARK    7  A    between atoms: C11_14  and  O1_15 
REMARK    8  A    between atoms: N2_16  and  O2_17 
REMARK    9  A    between atoms: N2_16  and  C13_19 
ROOT
HETATM    1  N1  UNL     1      24.958   1.594  51.697  1.00  0.00    -0.301 N 
ENDROOT
BRANCH   1   2
HETATM    2  C4  UNL     1      24.228   1.535  52.886  1.00  0.00     0.145 C 
BRANCH   2   3
HETATM    3  C3  UNL     1      23.111   0.627  53.130  1.00  0.00     0.021 C 
BRANCH   3   4
HETATM    4  C2  UNL     1      23.397  -0.580  53.966  1.00  0.00    -0.003 C 
HETATM    5  C1  UNL     1      22.083  -1.180  54.482  1.00  0.00     0.005 C 
ENDBRANCH   3   4
ENDBRANCH   2   3
ENDBRANCH   1   2
BRANCH   1   6
HETATM    6  C5  UNL     1      26.341   1.308  51.668  1.00  0.00     0.156 C 
BRANCH   6   7
HETATM    7  C6  UNL     1      26.680   0.598  52.979  1.00  0.00     0.068 A 
HETATM    8  C7  UNL     1      27.133  -0.793  52.785  1.00  0.00     0.064 A 
HETATM    9  C8  UNL     1      28.470  -1.030  53.347  1.00  0.00     0.014 A 
HETATM   10 CL1  UNL     1      28.944  -2.723  53.096  1.00  0.00    -0.089 Cl
HETATM   11  C9  UNL     1      29.372  -0.299  53.976  1.00  0.00     0.046 A 
HETATM   12  C10 UNL     1      28.951   1.074  54.167  1.00  0.00     0.064 A 
HETATM   13 CL2  UNL     1      29.956   2.228  54.957  1.00  0.00    -0.082 Cl
HETATM   14  C11 UNL     1      27.754   1.373  53.696  1.00  0.00     0.071 A 
BRANCH  14  15
HETATM   15  O1  UNL     1      27.376   2.695  53.887  1.00  0.00    -0.363 OA
HETATM   16  H16 UNL     1      27.788   3.311  54.546  1.00  0.00     0.217 HD
ENDBRANCH  14  15
ENDBRANCH   6   7
ENDBRANCH   1   6
BRANCH   1  17
HETATM   17  N2  UNL     1      24.635   2.749  50.941  1.00  0.00    -0.168 N 
BRANCH  17  18
HETATM   18  O2  UNL     1      23.295   2.670  50.798  1.00  0.00    -0.263 OA
HETATM   19  C12 UNL     1      22.867   2.301  49.547  1.00  0.00     0.240 C 
ENDBRANCH  17  18
BRANCH  17  20
HETATM   20  C13 UNL     1      25.227   3.879  50.323  1.00  0.00     0.062 A 
HETATM   21  C14 UNL     1      24.967   5.176  50.363  1.00  0.00     0.029 A 
HETATM   22  C15 UNL     1      25.950   5.810  49.500  1.00  0.00    -0.002 A 
HETATM   23  C16 UNL     1      26.771   4.925  48.959  1.00  0.00    -0.021 A 
HETATM   24  C17 UNL     1      26.403   3.565  49.426  1.00  0.00     0.088 A 
ENDBRANCH  17  20
ENDBRANCH   1  17
TORSDOF 9
ENDMDL
MODEL 4
REMARK VINA RESULT:      -7.0      1.789      2.234
REMARK  9 active torsions:
REMARK  status: ('A' for Active; 'I' for Inactive)
REMARK    1  A    between atoms: C2_2  and  C3_3 
REMARK    2  A    between atoms: C3_3  and  C4_4 
REMARK    3  A    between atoms: C4_4  and  N1_5 
REMARK    4  A    between atoms: N1_5  and  C5_6 
REMARK    5  A    between atoms: N1_5  and  N2_16 
REMARK    6  A    between atoms: C5_6  and  C6_7 
REMARK    7  A    between atoms: C11_14  and  O1_15 
REMARK    8  A    between atoms: N2_16  and  O2_17 
REMARK    9  A    between atoms: N2_16  and  C13_19 
ROOT
HETATM    1  N1  UNL     1      25.835   2.666  51.397  1.00  0.00    -0.301 N 
ENDROOT
BRANCH   1   2
HETATM    2  C4  UNL     1      25.790   3.672  50.430  1.00  0.00     0.145 C 
BRANCH   2   3
HETATM    3  C3  UNL     1      26.789   3.862  49.382  1.00  0.00     0.021 C 
BRANCH   3   4
HETATM    4  C2  UNL     1      26.922   5.245  48.825  1.00  0.00    -0.003 C 
HETATM    5  C1  UNL     1      28.354   5.467  48.322  1.00  0.00     0.005 C 
ENDBRANCH   3   4
ENDBRANCH   2   3
ENDBRANCH   1   2
BRANCH   1   6
HETATM    6  C5  UNL     1      26.632   1.513  51.222  1.00  0.00     0.156 C 
BRANCH   6   7
HETATM    7  C6  UNL     1      26.689   0.798  52.572  1.00  0.00     0.068 A 
HETATM    8  C7  UNL     1      26.994  -0.642  52.453  1.00  0.00     0.064 A 
HETATM    9  C8  UNL     1      28.197  -1.023  53.206  1.00  0.00     0.014 A 
HETATM   10 CL1  UNL     1      28.495  -2.765  53.035  1.00  0.00    -0.089 Cl
HETATM   11  C9  UNL     1      29.079  -0.390  53.959  1.00  0.00     0.046 A 
HETATM   12  C10 UNL     1      28.803   1.026  54.080  1.00  0.00     0.064 A 
HETATM   13 CL2  UNL     1      29.814   2.070  55.004  1.00  0.00    -0.082 Cl
HETATM   14  C11 UNL     1      27.733   1.455  53.436  1.00  0.00     0.071 A 
BRANCH  14  15
HETATM   15  O1  UNL     1      27.493   2.817  53.564  1.00  0.00    -0.363 OA
HETATM   16  H16 UNL     1      27.295   3.277  54.420  1.00  0.00     0.217 HD
ENDBRANCH  14  15
ENDBRANCH   6   7
ENDBRANCH   1   6
BRANCH   1  17
HETATM   17  N2  UNL     1      24.542   2.353  51.887  1.00  0.00    -0.168 N 
BRANCH  17  18
HETATM   18  O2  UNL     1      24.463   3.045  53.043  1.00  0.00    -0.263 OA
HETATM   19  C12 UNL     1      23.644   4.145  53.005  1.00  0.00     0.240 C 
ENDBRANCH  17  18
BRANCH  17  20
HETATM   20  C13 UNL     1      23.386   1.592  51.576  1.00  0.00     0.062 A 
HETATM   21  C14 UNL     1      22.578   1.555  50.529  1.00  0.00     0.029 A 
HETATM   22  C15 UNL     1      21.572   0.550  50.832  1.00  0.00    -0.002 A 
HETATM   23  C16 UNL     1      21.768   0.004  52.021  1.00  0.00    -0.021 A 
HETATM   24  C17 UNL     1      22.968   0.613  52.649  1.00  0.00     0.088 A 
ENDBRANCH  17  20
ENDBRANCH   1  17
TORSDOF 9
ENDMDL
MODEL 5
REMARK VINA RESULT:      -6.9      2.803      5.729
REMARK  9 active torsions:
REMARK  status: ('A' for Active; 'I' for Inactive)
REMARK    1  A    between atoms: C2_2  and  C3_3 
REMARK    2  A    between atoms: C3_3  and  C4_4 
REMARK    3  A    between atoms: C4_4  and  N1_5 
REMARK    4  A    between atoms: N1_5  and  C5_6 
REMARK    5  A    between atoms: N1_5  and  N2_16 
REMARK    6  A    between atoms: C5_6  and  C6_7 
REMARK    7  A    between atoms: C11_14  and  O1_15 
REMARK    8  A    between atoms: N2_16  and  O2_17 
REMARK    9  A    between atoms: N2_16  and  C13_19 
ROOT
HETATM    1  N1  UNL     1      26.005   1.568  52.359  1.00  0.00    -0.301 N 
ENDROOT
BRANCH   1   2
HETATM    2  C4  UNL     1      26.751   2.412  51.533  1.00  0.00     0.145 C 
BRANCH   2   3
HETATM    3  C3  UNL     1      26.427   2.710  50.141  1.00  0.00     0.021 C 
BRANCH   3   4
HETATM    4  C2  UNL     1      26.168   4.145  49.804  1.00  0.00    -0.003 C 
HETATM    5  C1  UNL     1      27.254   4.662  48.853  1.00  0.00     0.005 C 
ENDBRANCH   3   4
ENDBRANCH   2   3
ENDBRANCH   1   2
BRANCH   1   6
HETATM    6  C5  UNL     1      24.814   2.008  52.976  1.00  0.00     0.156 C 
BRANCH   6   7
HETATM    7  C6  UNL     1      23.665   1.218  52.349  1.00  0.00     0.068 A 
HETATM    8  C7  UNL     1      23.225   0.079  53.178  1.00  0.00     0.064 A 
HETATM    9  C8  UNL     1      21.798   0.158  53.525  1.00  0.00     0.014 A 
HETATM   10 CL1  UNL     1      21.332  -1.248  54.504  1.00  0.00    -0.089 Cl
HETATM   11  C9  UNL     1      20.815   1.005  53.283  1.00  0.00     0.046 A 
HETATM   12  C10 UNL     1      21.229   2.136  52.479  1.00  0.00     0.064 A 
HETATM   13 CL2  UNL     1      20.128   3.383  52.035  1.00  0.00    -0.082 Cl
HETATM   14  C11 UNL     1      22.499   2.142  52.117  1.00  0.00     0.071 A 
BRANCH  14  15
HETATM   15  O1  UNL     1      22.872   3.238  51.351  1.00  0.00    -0.363 OA
HETATM   16  H16 UNL     1      22.821   4.182  51.653  1.00  0.00     0.217 HD
ENDBRANCH  14  15
ENDBRANCH   6   7
ENDBRANCH   1   6
BRANCH   1  17
HETATM   17  N2  UNL     1      26.835   0.844  53.251  1.00  0.00    -0.168 N 
BRANCH  17  18
HETATM   18  O2  UNL     1      26.406   1.232  54.471  1.00  0.00    -0.263 OA
HETATM   19  C12 UNL     1      26.216   0.213  55.370  1.00  0.00     0.240 C 
ENDBRANCH  17  18
BRANCH  17  20
HETATM   20  C13 UNL     1      27.903  -0.089  53.272  1.00  0.00     0.062 A 
HETATM   21  C14 UNL     1      27.981  -1.385  53.016  1.00  0.00     0.029 A 
HETATM   22  C15 UNL     1      29.372  -1.752  53.221  1.00  0.00    -0.002 A 
HETATM   23  C16 UNL     1      30.105  -0.714  53.589  1.00  0.00    -0.021 A 
HETATM   24  C17 UNL     1      29.241   0.492  53.668  1.00  0.00     0.088 A 
ENDBRANCH  17  20
ENDBRANCH   1  17
TORSDOF 9
ENDMDL
MODEL 6
REMARK VINA RESULT:      -6.8      3.213      5.591
REMARK  9 active torsions:
REMARK  status: ('A' for Active; 'I' for Inactive)
REMARK    1  A    between atoms: C2_2  and  C3_3 
REMARK    2  A    between atoms: C3_3  and  C4_4 
REMARK    3  A    between atoms: C4_4  and  N1_5 
REMARK    4  A    between atoms: N1_5  and  C5_6 
REMARK    5  A    between atoms: N1_5  and  N2_16 
REMARK    6  A    between atoms: C5_6  and  C6_7 
REMARK    7  A    between atoms: C11_14  and  O1_15 
REMARK    8  A    between atoms: N2_16  and  O2_17 
REMARK    9  A    between atoms: N2_16  and  C13_19 
ROOT
HETATM    1  N1  UNL     1      25.839   1.283  53.144  1.00  0.00    -0.301 N 
ENDROOT
BRANCH   1   2
HETATM    2  C4  UNL     1      26.841   1.528  54.085  1.00  0.00     0.145 C 
BRANCH   2   3
HETATM    3  C3  UNL     1      28.268   1.592  53.782  1.00  0.00     0.021 C 
BRANCH   3   4
HETATM    4  C2  UNL     1      29.153   0.633  54.514  1.00  0.00    -0.003 C 
HETATM    5  C1  UNL     1      29.865  -0.286  53.514  1.00  0.00     0.005 C 
ENDBRANCH   3   4
ENDBRANCH   2   3
ENDBRANCH   1   2
BRANCH   1   6
HETATM    6  C5  UNL     1      25.016   2.322  52.658  1.00  0.00     0.156 C 
BRANCH   6   7
HETATM    7  C6  UNL     1      24.956   2.174  51.138  1.00  0.00     0.068 A 
HETATM    8  C7  UNL     1      23.579   2.188  50.607  1.00  0.00     0.064 A 
HETATM    9  C8  UNL     1      23.371   3.255  49.618  1.00  0.00     0.014 A 
HETATM   10 CL1  UNL     1      21.703   3.203  49.010  1.00  0.00    -0.089 Cl
HETATM   11  C9  UNL     1      24.114   4.212  49.093  1.00  0.00     0.046 A 
HETATM   12  C10 UNL     1      25.467   4.222  49.608  1.00  0.00     0.064 A 
HETATM   13 CL2  UNL     1      26.628   5.381  49.083  1.00  0.00    -0.082 Cl
HETATM   14  C11 UNL     1      25.744   3.289  50.502  1.00  0.00     0.071 A 
BRANCH  14  15
HETATM   15  O1  UNL     1      27.045   3.323  50.983  1.00  0.00    -0.363 OA
HETATM   16  H16 UNL     1      27.505   4.138  51.310  1.00  0.00     0.217 HD
ENDBRANCH  14  15
ENDBRANCH   6   7
ENDBRANCH   1   6
BRANCH   1  17
HETATM   17  N2  UNL     1      25.098   0.117  53.462  1.00  0.00    -0.168 N 
BRANCH  17  18
HETATM   18  O2  UNL     1      26.045  -0.837  53.591  1.00  0.00    -0.263 OA
HETATM   19  C12 UNL     1      26.447  -1.418  52.415  1.00  0.00     0.240 C 
ENDBRANCH  17  18
BRANCH  17  20
HETATM   20  C13 UNL     1      23.771  -0.340  53.666  1.00  0.00     0.062 A 
HETATM   21  C14 UNL     1      22.676  -0.308  52.924  1.00  0.00     0.029 A 
HETATM   22  C15 UNL     1      21.637  -0.949  53.712  1.00  0.00    -0.002 A 
HETATM   23  C16 UNL     1      22.091  -1.350  54.888  1.00  0.00    -0.021 A 
HETATM   24  C17 UNL     1      23.530  -1.004  55.002  1.00  0.00     0.088 A 
ENDBRANCH  17  20
ENDBRANCH   1  17
TORSDOF 9
ENDMDL
MODEL 7
REMARK VINA RESULT:      -6.8      2.703      4.012
REMARK  9 active torsions:
REMARK  status: ('A' for Active; 'I' for Inactive)
REMARK    1  A    between atoms: C2_2  and  C3_3 
REMARK    2  A    between atoms: C3_3  and  C4_4 
REMARK    3  A    between atoms: C4_4  and  N1_5 
REMARK    4  A    between atoms: N1_5  and  C5_6 
REMARK    5  A    between atoms: N1_5  and  N2_16 
REMARK    6  A    between atoms: C5_6  and  C6_7 
REMARK    7  A    between atoms: C11_14  and  O1_15 
REMARK    8  A    between atoms: N2_16  and  O2_17 
REMARK    9  A    between atoms: N2_16  and  C13_19 
ROOT
HETATM    1  N1  UNL     1      24.245   2.233  52.262  1.00  0.00    -0.301 N 
ENDROOT
BRANCH   1   2
HETATM    2  C4  UNL     1      23.870   3.490  51.782  1.00  0.00     0.145 C 
BRANCH   2   3
HETATM    3  C3  UNL     1      23.105   4.475  52.542  1.00  0.00     0.021 C 
BRANCH   3   4
HETATM    4  C2  UNL     1      22.002   5.175  51.814  1.00  0.00    -0.003 C 
HETATM    5  C1  UNL     1      20.774   4.260  51.725  1.00  0.00     0.005 C 
ENDBRANCH   3   4
ENDBRANCH   2   3
ENDBRANCH   1   2
BRANCH   1   6
HETATM    6  C5  UNL     1      25.482   1.651  51.908  1.00  0.00     0.156 C 
BRANCH   6   7
HETATM    7  C6  UNL     1      25.952   0.831  53.110  1.00  0.00     0.068 A 
HETATM    8  C7  UNL     1      26.232  -0.579  52.776  1.00  0.00     0.064 A 
HETATM    9  C8  UNL     1      27.612  -0.968  53.101  1.00  0.00     0.014 A 
HETATM   10 CL1  UNL     1      27.876  -2.676  52.693  1.00  0.00    -0.089 Cl
HETATM   11  C9  UNL     1      28.668  -0.360  53.612  1.00  0.00     0.046 A 
HETATM   12  C10 UNL     1      28.417   1.029  53.936  1.00  0.00     0.064 A 
HETATM   13 CL2  UNL     1      29.640   2.037  54.608  1.00  0.00    -0.082 Cl
HETATM   14  C11 UNL     1      27.195   1.462  53.680  1.00  0.00     0.071 A 
BRANCH  14  15
HETATM   15  O1  UNL     1      26.981   2.797  53.996  1.00  0.00    -0.363 OA
HETATM   16  H16 UNL     1      26.091   3.204  54.151  1.00  0.00     0.217 HD
ENDBRANCH  14  15
ENDBRANCH   6   7
ENDBRANCH   1   6
BRANCH   1  17
HETATM   17  N2  UNL     1      23.176   1.306  52.190  1.00  0.00    -0.168 N 
BRANCH  17  18
HETATM   18  O2  UNL     1      23.060   1.055  50.869  1.00  0.00    -0.263 OA
HETATM   19  C12 UNL     1      21.775   1.070  50.387  1.00  0.00     0.240 C 
ENDBRANCH  17  18
BRANCH  17  20
HETATM   20  C13 UNL     1      22.247   0.610  53.006  1.00  0.00     0.062 A 
HETATM   21  C14 UNL     1      21.132   0.969  53.621  1.00  0.00     0.029 A 
HETATM   22  C15 UNL     1      20.645  -0.222  54.298  1.00  0.00    -0.002 A 
HETATM   23  C16 UNL     1      21.441  -1.260  54.098  1.00  0.00    -0.021 A 
HETATM   24  C17 UNL     1      22.578  -0.847  53.236  1.00  0.00     0.088 A 
ENDBRANCH  17  20
ENDBRANCH   1  17
TORSDOF 9
ENDMDL
MODEL 8
REMARK VINA RESULT:      -6.7      1.682      2.649
REMARK  9 active torsions:
REMARK  status: ('A' for Active; 'I' for Inactive)
REMARK    1  A    between atoms: C2_2  and  C3_3 
REMARK    2  A    between atoms: C3_3  and  C4_4 
REMARK    3  A    between atoms: C4_4  and  N1_5 
REMARK    4  A    between atoms: N1_5  and  C5_6 
REMARK    5  A    between atoms: N1_5  and  N2_16 
REMARK    6  A    between atoms: C5_6  and  C6_7 
REMARK    7  A    between atoms: C11_14  and  O1_15 
REMARK    8  A    between atoms: N2_16  and  O2_17 
REMARK    9  A    between atoms: N2_16  and  C13_19 
ROOT
HETATM    1  N1  UNL     1      24.862   3.540  51.253  1.00  0.00    -0.301 N 
ENDROOT
BRANCH   1   2
HETATM    2  C4  UNL     1      25.849   3.536  50.265  1.00  0.00     0.145 C 
BRANCH   2   3
HETATM    3  C3  UNL     1      26.161   4.668  49.398  1.00  0.00     0.021 C 
BRANCH   3   4
HETATM    4  C2  UNL     1      27.508   4.663  48.747  1.00  0.00    -0.003 C 
HETATM    5  C1  UNL     1      27.898   6.091  48.345  1.00  0.00     0.005 C 
ENDBRANCH   3   4
ENDBRANCH   2   3
ENDBRANCH   1   2
BRANCH   1   6
HETATM    6  C5  UNL     1      25.022   2.818  52.456  1.00  0.00     0.156 C 
BRANCH   6   7
HETATM    7  C6  UNL     1      25.004   1.333  52.094  1.00  0.00     0.068 A 
HETATM    8  C7  UNL     1      26.343   0.712  52.122  1.00  0.00     0.064 A 
HETATM    9  C8  UNL     1      26.412  -0.429  53.047  1.00  0.00     0.014 A 
HETATM   10 CL1  UNL     1      28.040  -1.137  53.019  1.00  0.00    -0.089 Cl
HETATM   11  C9  UNL     1      25.569  -1.030  53.867  1.00  0.00     0.046 A 
HETATM   12  C10 UNL     1      24.251  -0.429  53.861  1.00  0.00     0.064 A 
HETATM   13 CL2  UNL     1      22.978  -1.031  54.853  1.00  0.00    -0.082 Cl
HETATM   14  C11 UNL     1      24.099   0.603  53.051  1.00  0.00     0.071 A 
BRANCH  14  15
HETATM   15  O1  UNL     1      22.829   1.163  53.068  1.00  0.00    -0.363 OA
HETATM   16  H16 UNL     1      22.451   1.725  52.343  1.00  0.00     0.217 HD
ENDBRANCH  14  15
ENDBRANCH   6   7
ENDBRANCH   1   6
BRANCH   1  17
HETATM   17  N2  UNL     1      23.567   3.377  50.699  1.00  0.00    -0.168 N 
BRANCH  17  18
HETATM   18  O2  UNL     1      22.750   3.888  51.644  1.00  0.00    -0.263 OA
HETATM   19  C12 UNL     1      22.439   5.215  51.486  1.00  0.00     0.240 C 
ENDBRANCH  17  18
BRANCH  17  20
HETATM   20  C13 UNL     1      22.900   2.877  49.552  1.00  0.00     0.062 A 
HETATM   21  C14 UNL     1      22.765   3.324  48.314  1.00  0.00     0.029 A 
HETATM   22  C15 UNL     1      21.956   2.338  47.616  1.00  0.00    -0.002 A 
HETATM   23  C16 UNL     1      21.615   1.334  48.408  1.00  0.00    -0.021 A 
HETATM   24  C17 UNL     1      22.185   1.561  49.760  1.00  0.00     0.088 A 
ENDBRANCH  17  20
ENDBRANCH   1  17
TORSDOF 9
ENDMDL
MODEL 9
REMARK VINA RESULT:      -6.4      2.062      4.885
REMARK  9 active torsions:
REMARK  status: ('A' for Active; 'I' for Inactive)
REMARK    1  A    between atoms: C2_2  and  C3_3 
REMARK    2  A    between atoms: C3_3  and  C4_4 
REMARK    3  A    between atoms: C4_4  and  N1_5 
REMARK    4  A    between atoms: N1_5  and  C5_6 
REMARK    5  A    between atoms: N1_5  and  N2_16 
REMARK    6  A    between atoms: C5_6  and  C6_7 
REMARK    7  A    between atoms: C11_14  and  O1_15 
REMARK    8  A    between atoms: N2_16  and  O2_17 
REMARK    9  A    between atoms: N2_16  and  C13_19 
ROOT
HETATM    1  N1  UNL     1      23.240   3.308  51.429  1.00  0.00    -0.301 N 
ENDROOT
BRANCH   1   2
HETATM    2  C4  UNL     1      22.245   4.219  51.789  1.00  0.00     0.145 C 
BRANCH   2   3
HETATM    3  C3  UNL     1      20.909   3.852  52.250  1.00  0.00     0.021 C 
BRANCH   3   4
HETATM    4  C2  UNL     1      20.075   3.037  51.312  1.00  0.00    -0.003 C 
HETATM    5  C1  UNL     1      19.484   3.940  50.223  1.00  0.00     0.005 C 
ENDBRANCH   3   4
ENDBRANCH   2   3
ENDBRANCH   1   2
BRANCH   1   6
HETATM    6  C5  UNL     1      24.141   2.788  52.384  1.00  0.00     0.156 C 
BRANCH   6   7
HETATM    7  C6  UNL     1      24.311   1.300  52.077  1.00  0.00     0.068 A 
HETATM    8  C7  UNL     1      25.725   0.879  52.014  1.00  0.00     0.064 A 
HETATM    9  C8  UNL     1      26.031  -0.196  52.969  1.00  0.00     0.014 A 
HETATM   10 CL1  UNL     1      27.739  -0.665  52.829  1.00  0.00    -0.089 Cl
HETATM   11  C9  UNL     1      25.352  -0.873  53.876  1.00  0.00     0.046 A 
HETATM   12  C10 UNL     1      23.965  -0.468  53.961  1.00  0.00     0.064 A 
HETATM   13 CL2  UNL     1      22.874  -1.198  55.075  1.00  0.00    -0.082 Cl
HETATM   14  C11 UNL     1      23.600   0.493  53.131  1.00  0.00     0.071 A 
BRANCH  14  15
HETATM   15  O1  UNL     1      22.267   0.867  53.234  1.00  0.00    -0.363 OA
HETATM   16  H16 UNL     1      21.741   1.288  52.507  1.00  0.00     0.217 HD
ENDBRANCH  14  15
ENDBRANCH   6   7
ENDBRANCH   1   6
BRANCH   1  17
HETATM   17  N2  UNL     1      23.892   3.692  50.231  1.00  0.00    -0.168 N 
BRANCH  17  18
HETATM   18  O2  UNL     1      22.912   3.640  49.304  1.00  0.00    -0.263 OA
HETATM   19  C12 UNL     1      22.829   2.456  48.615  1.00  0.00     0.240 C 
ENDBRANCH  17  18
BRANCH  17  20
HETATM   20  C13 UNL     1      25.159   4.081  49.727  1.00  0.00     0.062 A 
HETATM   21  C14 UNL     1      26.302   3.438  49.549  1.00  0.00     0.029 A 
HETATM   22  C15 UNL     1      27.227   4.409  48.988  1.00  0.00    -0.002 A 
HETATM   23  C16 UNL     1      26.661   5.595  48.835  1.00  0.00    -0.021 A 
HETATM   24  C17 UNL     1      25.251   5.528  49.296  1.00  0.00     0.088 A 
ENDBRANCH  17  20
ENDBRANCH   1  17
TORSDOF 9
ENDMDL
