MODEL 1
REMARK VINA RESULT:      -8.4      0.000      0.000
REMARK  3 active torsions:
REMARK  status: ('A' for Active; 'I' for Inactive)
REMARK    1  A    between atoms: C2_2  and  C3_4 
REMARK    2  A    between atoms: C4_5  and  C5_6 
REMARK    3  A    between atoms: C7_9  and  O1_10 
ROOT
HETATM    1  C5  UNL     1      26.367   1.401  53.262  1.00  0.00     0.124 C 
HETATM    2  N1  UNL     1      25.778   0.183  53.807  1.00  0.00    -0.387 N 
HETATM    3  C6  UNL     1      24.481  -0.091  54.226  1.00  0.00     0.139 C 
HETATM    4  C7  UNL     1      23.397  -0.693  53.859  1.00  0.00     0.151 C 
HETATM    5  N2  UNL     1      22.204  -0.759  54.604  1.00  0.00    -0.366 N 
HETATM    6  C8  UNL     1      21.144   0.231  54.584  1.00  0.00     0.162 C 
HETATM    7  C9  UNL     1      20.467   0.377  53.298  1.00  0.00    -0.012 A 
HETATM    8  C10 UNL     1      19.350  -0.430  53.071  1.00  0.00     0.011 A 
HETATM    9  C11 UNL     1      18.566  -0.450  51.935  1.00  0.00     0.001 A 
HETATM   10  C12 UNL     1      18.921   0.415  50.924  1.00  0.00     0.002 A 
HETATM   11  C13 UNL     1      20.037   1.234  51.126  1.00  0.00     0.032 A 
HETATM   12  C14 UNL     1      20.803   1.233  52.273  1.00  0.00     0.060 A 
HETATM   13  N3  UNL     1      21.859   2.156  52.190  1.00  0.00    -0.266 N 
HETATM   14  C15 UNL     1      21.823   3.403  52.488  1.00  0.00     0.198 A 
HETATM   15  N4  UNL     1      23.045   2.847  52.015  1.00  0.00    -0.150 NA
HETATM   16  C16 UNL     1      23.956   3.670  51.550  1.00  0.00     0.268 C 
HETATM   17  O2  UNL     1      24.502   2.404  51.432  1.00  0.00    -0.349 OA
HETATM   18  C17 UNL     1      25.610   1.955  52.121  1.00  0.00     0.117 C 
HETATM   19  C18 UNL     1      26.330   2.238  51.023  1.00  0.00     0.047 C 
HETATM   20  H6  UNL     1      26.387  -0.681  53.932  1.00  0.00     0.159 HD
HETATM   21  H9  UNL     1      22.612  -1.658  54.939  1.00  0.00     0.162 HD
ENDROOT
BRANCH   1  22
HETATM   22  C4  UNL     1      27.809   1.242  52.986  1.00  0.00     0.029 C 
HETATM   23  C3  UNL     1      27.834  -0.045  53.229  1.00  0.00     0.060 C 
BRANCH  23  24
HETATM   24  C2  UNL     1      28.662  -1.214  53.277  1.00  0.00     0.061 A 
HETATM   25  C1  UNL     1      29.882  -0.927  53.702  1.00  0.00     0.245 A 
HETATM   26  F1  UNL     1      29.377  -2.344  53.299  1.00  0.00    -0.371 F 
ENDBRANCH  23  24
ENDBRANCH   1  22
BRANCH   4  27
HETATM   27  O1  UNL     1      24.246  -0.923  52.802  1.00  0.00    -0.345 OA
HETATM   28  H8  UNL     1      24.470  -1.818  52.392  1.00  0.00     0.219 HD
ENDBRANCH   4  27
TORSDOF 3
ENDMDL
MODEL 2
REMARK VINA RESULT:      -8.4      2.801      6.878
REMARK  3 active torsions:
REMARK  status: ('A' for Active; 'I' for Inactive)
REMARK    1  A    between atoms: C2_2  and  C3_4 
REMARK    2  A    between atoms: C4_5  and  C5_6 
REMARK    3  A    between atoms: C7_9  and  O1_10 
ROOT
HETATM    1  C5  UNL     1      21.728   1.612  51.846  1.00  0.00     0.124 C 
HETATM    2  N1  UNL     1      22.140   0.431  52.596  1.00  0.00    -0.387 N 
HETATM    3  C6  UNL     1      23.358  -0.239  52.640  1.00  0.00     0.139 C 
HETATM    4  C7  UNL     1      24.407  -0.396  53.379  1.00  0.00     0.151 C 
HETATM    5  N2  UNL     1      25.511  -1.214  53.070  1.00  0.00    -0.366 N 
HETATM    6  C8  UNL     1      26.660  -0.814  52.281  1.00  0.00     0.162 C 
HETATM    7  C9  UNL     1      27.469   0.249  52.872  1.00  0.00    -0.012 A 
HETATM    8  C10 UNL     1      28.517  -0.138  53.709  1.00  0.00     0.011 A 
HETATM    9  C11 UNL     1      29.401   0.697  54.362  1.00  0.00     0.001 A 
HETATM   10  C12 UNL     1      29.231   2.050  54.168  1.00  0.00     0.002 A 
HETATM   11  C13 UNL     1      28.187   2.465  53.335  1.00  0.00     0.032 A 
HETATM   12  C14 UNL     1      27.318   1.606  52.694  1.00  0.00     0.060 A 
HETATM   13  N3  UNL     1      26.371   2.307  51.928  1.00  0.00    -0.266 N 
HETATM   14  C15 UNL     1      26.500   2.715  50.720  1.00  0.00     0.198 A 
HETATM   15  N4  UNL     1      25.281   2.979  51.404  1.00  0.00    -0.150 NA
HETATM   16  C16 UNL     1      24.504   3.927  50.933  1.00  0.00     0.268 C 
HETATM   17  O2  UNL     1      23.850   3.426  52.046  1.00  0.00    -0.349 OA
HETATM   18  C17 UNL     1      22.642   2.760  52.018  1.00  0.00     0.117 C 
HETATM   19  C18 UNL     1      22.061   3.925  52.349  1.00  0.00     0.047 C 
HETATM   20  H6  UNL     1      21.440  -0.052  53.236  1.00  0.00     0.159 HD
HETATM   21  H9  UNL     1      24.986  -1.917  53.634  1.00  0.00     0.162 HD
ENDROOT
BRANCH   1  22
HETATM   22  C4  UNL     1      20.310   1.951  52.083  1.00  0.00     0.029 C 
HETATM   23  C3  UNL     1      19.852   0.765  51.769  1.00  0.00     0.060 C 
BRANCH  23  24
HETATM   24  C2  UNL     1      18.674  -0.041  51.638  1.00  0.00     0.061 A 
HETATM   25  C1  UNL     1      18.436  -0.734  52.741  1.00  0.00     0.245 A 
HETATM   26  F1  UNL     1      17.567  -0.767  51.450  1.00  0.00    -0.371 F 
ENDBRANCH  23  24
ENDBRANCH   1  22
BRANCH   4  27
HETATM   27  O1  UNL     1      23.645   0.479  54.115  1.00  0.00    -0.345 OA
HETATM   28  H8  UNL     1      22.651   0.633  54.031  1.00  0.00     0.219 HD
ENDBRANCH   4  27
TORSDOF 3
ENDMDL
MODEL 3
REMARK VINA RESULT:      -8.4      2.143      4.654
REMARK  3 active torsions:
REMARK  status: ('A' for Active; 'I' for Inactive)
REMARK    1  A    between atoms: C2_2  and  C3_4 
REMARK    2  A    between atoms: C4_5  and  C5_6 
REMARK    3  A    between atoms: C7_9  and  O1_10 
ROOT
HETATM    1  C5  UNL     1      25.883  -0.279  52.403  1.00  0.00     0.124 C 
HETATM    2  N1  UNL     1      26.784   0.839  52.151  1.00  0.00    -0.387 N 
HETATM    3  C6  UNL     1      26.650   1.944  51.316  1.00  0.00     0.139 C 
HETATM    4  C7  UNL     1      26.385   3.209  51.335  1.00  0.00     0.151 C 
HETATM    5  N2  UNL     1      26.340   4.054  50.210  1.00  0.00    -0.366 N 
HETATM    6  C8  UNL     1      25.181   4.267  49.364  1.00  0.00     0.162 C 
HETATM    7  C9  UNL     1      24.046   4.902  50.028  1.00  0.00    -0.012 A 
HETATM    8  C10 UNL     1      23.988   6.297  49.997  1.00  0.00     0.011 A 
HETATM    9  C11 UNL     1      23.008   7.093  50.553  1.00  0.00     0.001 A 
HETATM   10  C12 UNL     1      21.982   6.446  51.205  1.00  0.00     0.002 A 
HETATM   11  C13 UNL     1      22.016   5.048  51.252  1.00  0.00     0.032 A 
HETATM   12  C14 UNL     1      23.010   4.277  50.685  1.00  0.00     0.060 A 
HETATM   13  N3  UNL     1      22.782   2.906  50.894  1.00  0.00    -0.266 N 
HETATM   14  C15 UNL     1      22.073   2.120  50.171  1.00  0.00     0.198 A 
HETATM   15  N4  UNL     1      22.718   1.592  51.324  1.00  0.00    -0.150 NA
HETATM   16  C16 UNL     1      22.277   0.455  51.810  1.00  0.00     0.268 C 
HETATM   17  O2  UNL     1      23.324   0.832  52.633  1.00  0.00    -0.349 OA
HETATM   18  C17 UNL     1      24.513   0.144  52.761  1.00  0.00     0.117 C 
HETATM   19  C18 UNL     1      24.000  -0.414  53.870  1.00  0.00     0.047 C 
HETATM   20  H6  UNL     1      27.720   0.881  52.656  1.00  0.00     0.159 HD
HETATM   21  H9  UNL     1      27.333   4.239  50.468  1.00  0.00     0.162 HD
ENDROOT
BRANCH   1  22
HETATM   22  C4  UNL     1      26.462  -1.252  53.352  1.00  0.00     0.029 C 
HETATM   23  C3  UNL     1      27.707  -0.931  53.103  1.00  0.00     0.060 C 
BRANCH  23  24
HETATM   24  C2  UNL     1      29.077  -1.206  53.425  1.00  0.00     0.061 A 
HETATM   25  C1  UNL     1      29.751  -0.092  53.663  1.00  0.00     0.245 A 
HETATM   26  F1  UNL     1      30.340  -1.532  53.719  1.00  0.00    -0.371 F 
ENDBRANCH  23  24
ENDBRANCH   1  22
BRANCH   4  27
HETATM   27  O1  UNL     1      26.306   2.861  52.663  1.00  0.00    -0.345 OA
HETATM   28  H8  UNL     1      26.540   3.443  53.454  1.00  0.00     0.219 HD
ENDBRANCH   4  27
TORSDOF 3
ENDMDL
MODEL 4
REMARK VINA RESULT:      -8.2      3.159      6.435
REMARK  3 active torsions:
REMARK  status: ('A' for Active; 'I' for Inactive)
REMARK    1  A    between atoms: C2_2  and  C3_4 
REMARK    2  A    between atoms: C4_5  and  C5_6 
REMARK    3  A    between atoms: C7_9  and  O1_10 
ROOT
HETATM    1  C5  UNL     1      22.150   1.414  52.442  1.00  0.00     0.124 C 
HETATM    2  N1  UNL     1      23.569   1.503  52.766  1.00  0.00    -0.387 N 
HETATM    3  C6  UNL     1      24.661   1.852  51.979  1.00  0.00     0.139 C 
HETATM    4  C7  UNL     1      25.479   2.826  51.746  1.00  0.00     0.151 C 
HETATM    5  N2  UNL     1      26.532   2.805  50.811  1.00  0.00    -0.366 N 
HETATM    6  C8  UNL     1      26.415   3.141  49.405  1.00  0.00     0.162 C 
HETATM    7  C9  UNL     1      26.051   4.531  49.136  1.00  0.00    -0.012 A 
HETATM    8  C10 UNL     1      27.095   5.446  48.991  1.00  0.00     0.011 A 
HETATM    9  C11 UNL     1      26.976   6.797  48.731  1.00  0.00     0.001 A 
HETATM   10  C12 UNL     1      25.698   7.290  48.600  1.00  0.00     0.002 A 
HETATM   11  C13 UNL     1      24.633   6.394  48.741  1.00  0.00     0.032 A 
HETATM   12  C14 UNL     1      24.782   5.047  49.001  1.00  0.00     0.060 A 
HETATM   13  N3  UNL     1      23.538   4.399  49.095  1.00  0.00    -0.266 N 
HETATM   14  C15 UNL     1      22.848   3.905  48.134  1.00  0.00     0.198 A 
HETATM   15  N4  UNL     1      22.339   3.812  49.459  1.00  0.00    -0.150 NA
HETATM   16  C16 UNL     1      21.056   3.579  49.611  1.00  0.00     0.268 C 
HETATM   17  O2  UNL     1      21.573   3.671  50.892  1.00  0.00    -0.349 OA
HETATM   18  C17 UNL     1      21.620   2.635  51.801  1.00  0.00     0.117 C 
HETATM   19  C18 UNL     1      20.501   3.142  52.344  1.00  0.00     0.047 C 
HETATM   20  H6  UNL     1      23.894   1.275  53.754  1.00  0.00     0.159 HD
HETATM   21  H9  UNL     1      27.092   2.509  51.639  1.00  0.00     0.162 HD
ENDROOT
BRANCH   1  22
HETATM   22  C4  UNL     1      21.346   0.962  53.596  1.00  0.00     0.029 C 
HETATM   23  C3  UNL     1      21.995  -0.165  53.756  1.00  0.00     0.060 C 
BRANCH  23  24
HETATM   24  C2  UNL     1      22.090  -1.363  54.537  1.00  0.00     0.061 A 
HETATM   25  C1  UNL     1      23.086  -1.297  55.406  1.00  0.00     0.245 A 
HETATM   26  F1  UNL     1      22.122  -2.506  55.230  1.00  0.00    -0.371 F 
ENDBRANCH  23  24
ENDBRANCH   1  22
BRANCH   4  27
HETATM   27  O1  UNL     1      24.662   3.341  52.724  1.00  0.00    -0.345 OA
HETATM   28  H8  UNL     1      24.532   4.317  52.949  1.00  0.00     0.219 HD
ENDBRANCH   4  27
TORSDOF 3
ENDMDL
MODEL 5
REMARK VINA RESULT:      -7.9      3.899      5.660
REMARK  3 active torsions:
REMARK  status: ('A' for Active; 'I' for Inactive)
REMARK    1  A    between atoms: C2_2  and  C3_4 
REMARK    2  A    between atoms: C4_5  and  C5_6 
REMARK    3  A    between atoms: C7_9  and  O1_10 
ROOT
HETATM    1  C5  UNL     1      26.185   5.978  49.252  1.00  0.00     0.124 C 
HETATM    2  N1  UNL     1      26.869   4.699  49.409  1.00  0.00    -0.387 N 
HETATM    3  C6  UNL     1      26.768   3.731  50.402  1.00  0.00     0.139 C 
HETATM    4  C7  UNL     1      26.253   2.570  50.644  1.00  0.00     0.151 C 
HETATM    5  N2  UNL     1      26.377   1.854  51.851  1.00  0.00    -0.366 N 
HETATM    6  C8  UNL     1      25.511   1.997  53.006  1.00  0.00     0.162 C 
HETATM    7  C9  UNL     1      24.122   1.603  52.782  1.00  0.00    -0.012 A 
HETATM    8  C10 UNL     1      23.789   0.270  53.034  1.00  0.00     0.011 A 
HETATM    9  C11 UNL     1      22.544  -0.308  52.894  1.00  0.00     0.001 A 
HETATM   10  C12 UNL     1      21.527   0.513  52.462  1.00  0.00     0.002 A 
HETATM   11  C13 UNL     1      21.833   1.853  52.201  1.00  0.00     0.032 A 
HETATM   12  C14 UNL     1      23.089   2.404  52.351  1.00  0.00     0.060 A 
HETATM   13  N3  UNL     1      23.097   3.768  52.012  1.00  0.00    -0.266 N 
HETATM   14  C15 UNL     1      22.820   4.758  52.778  1.00  0.00     0.198 A 
HETATM   15  N4  UNL     1      23.180   5.019  51.427  1.00  0.00    -0.150 NA
HETATM   16  C16 UNL     1      22.858   6.186  50.918  1.00  0.00     0.268 C 
HETATM   17  O2  UNL     1      23.506   5.503  49.904  1.00  0.00    -0.349 OA
HETATM   18  C17 UNL     1      24.716   5.870  49.352  1.00  0.00     0.117 C 
HETATM   19  C18 UNL     1      24.018   6.445  48.358  1.00  0.00     0.047 C 
HETATM   20  H6  UNL     1      27.578   4.392  48.677  1.00  0.00     0.159 HD
HETATM   21  H9  UNL     1      27.185   1.415  51.360  1.00  0.00     0.162 HD
ENDROOT
BRANCH   1  22
HETATM   22  C4  UNL     1      26.639   6.702  48.047  1.00  0.00     0.029 C 
HETATM   23  C3  UNL     1      27.911   6.449  48.230  1.00  0.00     0.060 C 
BRANCH  23  24
HETATM   24  C2  UNL     1      29.233   6.641  47.709  1.00  0.00     0.061 A 
HETATM   25  C1  UNL     1      30.015   5.608  47.979  1.00  0.00     0.245 A 
HETATM   26  F1  UNL     1      30.444   6.885  47.197  1.00  0.00    -0.371 F 
ENDBRANCH  23  24
ENDBRANCH   1  22
BRANCH   4  27
HETATM   27  O1  UNL     1      25.851   2.818  49.353  1.00  0.00    -0.345 OA
HETATM   28  H8  UNL     1      26.335   3.378  48.667  1.00  0.00     0.219 HD
ENDBRANCH   4  27
TORSDOF 3
ENDMDL
MODEL 6
REMARK VINA RESULT:      -7.8      4.607      7.894
REMARK  3 active torsions:
REMARK  status: ('A' for Active; 'I' for Inactive)
REMARK    1  A    between atoms: C2_2  and  C3_4 
REMARK    2  A    between atoms: C4_5  and  C5_6 
REMARK    3  A    between atoms: C7_9  and  O1_10 
ROOT
HETATM    1  C5  UNL     1      23.347   6.834  50.092  1.00  0.00     0.124 C 
HETATM    2  N1  UNL     1      22.692   6.190  51.225  1.00  0.00    -0.387 N 
HETATM    3  C6  UNL     1      22.749   4.879  51.682  1.00  0.00     0.139 C 
HETATM    4  C7  UNL     1      23.278   4.143  52.604  1.00  0.00     0.151 C 
HETATM    5  N2  UNL     1      23.087   2.756  52.756  1.00  0.00    -0.366 N 
HETATM    6  C8  UNL     1      23.862   1.723  52.095  1.00  0.00     0.162 C 
HETATM    7  C9  UNL     1      25.275   1.685  52.466  1.00  0.00    -0.012 A 
HETATM    8  C10 UNL     1      25.627   0.879  53.550  1.00  0.00     0.011 A 
HETATM    9  C11 UNL     1      26.896   0.695  54.061  1.00  0.00     0.001 A 
HETATM   10  C12 UNL     1      27.917   1.377  53.439  1.00  0.00     0.002 A 
HETATM   11  C13 UNL     1      27.592   2.193  52.350  1.00  0.00     0.032 A 
HETATM   12  C14 UNL     1      26.313   2.357  51.860  1.00  0.00     0.060 A 
HETATM   13  N3  UNL     1      26.289   3.238  50.765  1.00  0.00    -0.266 N 
HETATM   14  C15 UNL     1      26.480   2.945  49.532  1.00  0.00     0.198 A 
HETATM   15  N4  UNL     1      26.213   4.299  49.880  1.00  0.00    -0.150 NA
HETATM   16  C16 UNL     1      26.537   5.232  49.016  1.00  0.00     0.268 C 
HETATM   17  O2  UNL     1      25.985   5.899  50.096  1.00  0.00    -0.349 OA
HETATM   18  C17 UNL     1      24.808   6.618  50.063  1.00  0.00     0.117 C 
HETATM   19  C18 UNL     1      25.560   7.722  49.917  1.00  0.00     0.047 C 
HETATM   20  H6  UNL     1      22.048   6.763  51.850  1.00  0.00     0.159 HD
HETATM   21  H9  UNL     1      22.331   3.060  53.406  1.00  0.00     0.162 HD
ENDROOT
BRANCH   1  22
HETATM   22  C4  UNL     1      22.962   8.254  49.964  1.00  0.00     0.029 C 
HETATM   23  C3  UNL     1      21.673   8.032  50.026  1.00  0.00     0.060 C 
BRANCH  23  24
HETATM   24  C2  UNL     1      20.375   8.640  50.008  1.00  0.00     0.061 A 
HETATM   25  C1  UNL     1      20.353   9.712  49.232  1.00  0.00     0.245 A 
HETATM   26  F1  UNL     1      19.141   9.155  50.035  1.00  0.00    -0.371 F 
ENDBRANCH  23  24
ENDBRANCH   1  22
BRANCH   4  27
HETATM   27  O1  UNL     1      23.767   5.395  52.895  1.00  0.00    -0.345 OA
HETATM   28  H8  UNL     1      23.388   6.278  52.585  1.00  0.00     0.219 HD
ENDBRANCH   4  27
TORSDOF 3
ENDMDL
MODEL 7
REMARK VINA RESULT:      -7.5      1.850      3.642
REMARK  3 active torsions:
REMARK  status: ('A' for Active; 'I' for Inactive)
REMARK    1  A    between atoms: C2_2  and  C3_4 
REMARK    2  A    between atoms: C4_5  and  C5_6 
REMARK    3  A    between atoms: C7_9  and  O1_10 
ROOT
HETATM    1  C5  UNL     1      27.050   1.117  52.574  1.00  0.00     0.124 C 
HETATM    2  N1  UNL     1      26.925   2.217  51.624  1.00  0.00    -0.387 N 
HETATM    3  C6  UNL     1      25.918   2.523  50.716  1.00  0.00     0.139 C 
HETATM    4  C7  UNL     1      24.916   3.320  50.536  1.00  0.00     0.151 C 
HETATM    5  N2  UNL     1      24.071   3.333  49.410  1.00  0.00    -0.366 N 
HETATM    6  C8  UNL     1      22.889   2.511  49.236  1.00  0.00     0.162 C 
HETATM    7  C9  UNL     1      21.813   2.776  50.189  1.00  0.00    -0.012 A 
HETATM    8  C10 UNL     1      20.867   3.738  49.830  1.00  0.00     0.011 A 
HETATM    9  C11 UNL     1      19.775   4.137  50.574  1.00  0.00     0.001 A 
HETATM   10  C12 UNL     1      19.601   3.523  51.794  1.00  0.00     0.002 A 
HETATM   11  C13 UNL     1      20.535   2.555  52.178  1.00  0.00     0.032 A 
HETATM   12  C14 UNL     1      21.619   2.176  51.412  1.00  0.00     0.060 A 
HETATM   13  N3  UNL     1      22.384   1.187  52.055  1.00  0.00    -0.266 N 
HETATM   14  C15 UNL     1      22.202  -0.081  52.016  1.00  0.00     0.198 A 
HETATM   15  N4  UNL     1      23.285   0.431  52.783  1.00  0.00    -0.150 NA
HETATM   16  C16 UNL     1      23.812  -0.347  53.700  1.00  0.00     0.268 C 
HETATM   17  O2  UNL     1      24.529   0.835  53.757  1.00  0.00    -0.349 OA
HETATM   18  C17 UNL     1      25.867   0.963  53.446  1.00  0.00     0.117 C 
HETATM   19  C18 UNL     1      26.117   0.886  54.763  1.00  0.00     0.047 C 
HETATM   20  H6  UNL     1      27.701   2.944  51.562  1.00  0.00     0.159 HD
HETATM   21  H9  UNL     1      24.736   4.064  49.077  1.00  0.00     0.162 HD
ENDROOT
BRANCH   1  22
HETATM   22  C4  UNL     1      28.324   1.172  53.320  1.00  0.00     0.029 C 
HETATM   23  C3  UNL     1      28.556  -0.115  53.249  1.00  0.00     0.060 C 
BRANCH  23  24
HETATM   24  C2  UNL     1      29.465  -1.164  53.607  1.00  0.00     0.061 A 
HETATM   25  C1  UNL     1      29.087  -2.327  53.099  1.00  0.00     0.245 A 
HETATM   26  F1  UNL     1      30.352  -2.094  53.976  1.00  0.00    -0.371 F 
ENDBRANCH  23  24
ENDBRANCH   1  22
BRANCH   4  27
HETATM   27  O1  UNL     1      25.401   3.711  51.762  1.00  0.00    -0.345 OA
HETATM   28  H8  UNL     1      25.163   4.554  52.264  1.00  0.00     0.219 HD
ENDBRANCH   4  27
TORSDOF 3
ENDMDL
MODEL 8
REMARK VINA RESULT:      -7.5      8.190     11.779
REMARK  3 active torsions:
REMARK  status: ('A' for Active; 'I' for Inactive)
REMARK    1  A    between atoms: C2_2  and  C3_4 
REMARK    2  A    between atoms: C4_5  and  C5_6 
REMARK    3  A    between atoms: C7_9  and  O1_10 
ROOT
HETATM    1  C5  UNL     1      27.218   6.555  48.630  1.00  0.00     0.124 C 
HETATM    2  N1  UNL     1      28.300   5.585  48.760  1.00  0.00    -0.387 N 
HETATM    3  C6  UNL     1      29.498   5.462  48.065  1.00  0.00     0.139 C 
HETATM    4  C7  UNL     1      30.767   5.684  48.174  1.00  0.00     0.151 C 
HETATM    5  N2  UNL     1      31.735   5.405  47.190  1.00  0.00    -0.366 N 
HETATM    6  C8  UNL     1      32.114   6.294  46.108  1.00  0.00     0.162 C 
HETATM    7  C9  UNL     1      32.739   7.544  46.533  1.00  0.00    -0.012 A 
HETATM    8  C10 UNL     1      34.130   7.549  46.663  1.00  0.00     0.011 A 
HETATM    9  C11 UNL     1      34.917   8.616  47.044  1.00  0.00     0.001 A 
HETATM   10  C12 UNL     1      34.265   9.796  47.324  1.00  0.00     0.002 A 
HETATM   11  C13 UNL     1      32.872   9.819  47.202  1.00  0.00     0.032 A 
HETATM   12  C14 UNL     1      32.110   8.735  46.818  1.00  0.00     0.060 A 
HETATM   13  N3  UNL     1      30.741   9.052  46.787  1.00  0.00    -0.266 N 
HETATM   14  C15 UNL     1      30.087   9.569  45.813  1.00  0.00     0.198 A 
HETATM   15  N4  UNL     1      29.393   9.266  47.018  1.00  0.00    -0.150 NA
HETATM   16  C16 UNL     1      28.238   9.854  47.227  1.00  0.00     0.268 C 
HETATM   17  O2  UNL     1      28.453   9.048  48.332  1.00  0.00    -0.349 OA
HETATM   18  C17 UNL     1      27.683   7.956  48.674  1.00  0.00     0.117 C 
HETATM   19  C18 UNL     1      27.035   8.760  49.534  1.00  0.00     0.047 C 
HETATM   20  H6  UNL     1      28.226   4.814  49.490  1.00  0.00     0.159 HD
HETATM   21  H9  UNL     1      31.828   4.510  47.716  1.00  0.00     0.162 HD
ENDROOT
BRANCH   1  22
HETATM   22  C4  UNL     1      26.110   6.275  49.566  1.00  0.00     0.029 C 
HETATM   23  C3  UNL     1      26.125   4.978  49.381  1.00  0.00     0.060 C 
BRANCH  23  24
HETATM   24  C2  UNL     1      25.518   3.733  49.750  1.00  0.00     0.061 A 
HETATM   25  C1  UNL     1      26.416   2.869  50.195  1.00  0.00     0.245 A 
HETATM   26  F1  UNL     1      24.888   2.600  50.075  1.00  0.00    -0.371 F 
ENDBRANCH  23  24
ENDBRANCH   1  22
BRANCH   4  27
HETATM   27  O1  UNL     1      30.276   6.119  49.382  1.00  0.00    -0.345 OA
HETATM   28  H8  UNL     1      29.359   6.503  49.559  1.00  0.00     0.219 HD
ENDBRANCH   4  27
TORSDOF 3
ENDMDL
MODEL 9
REMARK VINA RESULT:      -7.5      2.407      4.612
REMARK  3 active torsions:
REMARK  status: ('A' for Active; 'I' for Inactive)
REMARK    1  A    between atoms: C2_2  and  C3_4 
REMARK    2  A    between atoms: C4_5  and  C5_6 
REMARK    3  A    between atoms: C7_9  and  O1_10 
ROOT
HETATM    1  C5  UNL     1      24.579   0.261  52.830  1.00  0.00     0.124 C 
HETATM    2  N1  UNL     1      25.349   1.482  52.621  1.00  0.00    -0.387 N 
HETATM    3  C6  UNL     1      25.272   2.445  51.621  1.00  0.00     0.139 C 
HETATM    4  C7  UNL     1      24.836   3.640  51.390  1.00  0.00     0.151 C 
HETATM    5  N2  UNL     1      24.952   4.333  50.170  1.00  0.00    -0.366 N 
HETATM    6  C8  UNL     1      24.018   4.247  49.063  1.00  0.00     0.162 C 
HETATM    7  C9  UNL     1      22.677   4.749  49.352  1.00  0.00    -0.012 A 
HETATM    8  C10 UNL     1      22.435   6.101  49.100  1.00  0.00     0.011 A 
HETATM    9  C11 UNL     1      21.247   6.776  49.295  1.00  0.00     0.001 A 
HETATM   10  C12 UNL     1      20.193   6.039  49.790  1.00  0.00     0.002 A 
HETATM   11  C13 UNL     1      20.409   4.683  50.052  1.00  0.00     0.032 A 
HETATM   12  C14 UNL     1      21.609   4.034  49.846  1.00  0.00     0.060 A 
HETATM   13  N3  UNL     1      21.531   2.677  50.201  1.00  0.00    -0.266 N 
HETATM   14  C15 UNL     1      21.139   1.704  49.464  1.00  0.00     0.198 A 
HETATM   15  N4  UNL     1      21.547   1.429  50.798  1.00  0.00    -0.150 NA
HETATM   16  C16 UNL     1      21.163   0.295  51.338  1.00  0.00     0.268 C 
HETATM   17  O2  UNL     1      21.914   0.935  52.309  1.00  0.00    -0.349 OA
HETATM   18  C17 UNL     1      23.119   0.481  52.803  1.00  0.00     0.117 C 
HETATM   19  C18 UNL     1      22.432  -0.029  53.839  1.00  0.00     0.047 C 
HETATM   20  H6  UNL     1      26.117   1.740  53.312  1.00  0.00     0.159 HD
HETATM   21  H9  UNL     1      25.815   4.714  50.613  1.00  0.00     0.162 HD
ENDROOT
BRANCH   1  22
HETATM   22  C4  UNL     1      25.038  -0.485  54.019  1.00  0.00     0.029 C 
HETATM   23  C3  UNL     1      26.257  -0.006  53.995  1.00  0.00     0.060 C 
BRANCH  23  24
HETATM   24  C2  UNL     1      27.537  -0.021  54.641  1.00  0.00     0.061 A 
HETATM   25  C1  UNL     1      28.490  -0.427  53.818  1.00  0.00     0.245 A 
HETATM   26  F1  UNL     1      28.698  -0.011  55.304  1.00  0.00    -0.371 F 
ENDBRANCH  23  24
ENDBRANCH   1  22
BRANCH   4  27
HETATM   27  O1  UNL     1      24.483   3.436  52.703  1.00  0.00    -0.345 OA
HETATM   28  H8  UNL     1      25.038   3.654  53.518  1.00  0.00     0.219 HD
ENDBRANCH   4  27
TORSDOF 3
ENDMDL
