MODEL 1
REMARK VINA RESULT:      -8.1      0.000      0.000
REMARK  2 active torsions:
REMARK  status: ('A' for Active; 'I' for Inactive)
REMARK    1  A    between atoms: C1_2  and  C2_3 
REMARK    2  A    between atoms: C14_20  and  C15_21 
ROOT
HETATM    1  C2  UNL     1      22.257  -0.190  53.779  1.00  0.00    -0.022 A 
HETATM    2  C3  UNL     1      23.505  -0.780  53.620  1.00  0.00     0.011 A 
HETATM    3  C4  UNL     1      24.498  -0.104  52.944  1.00  0.00     0.013 A 
HETATM    4  C5  UNL     1      24.367   1.131  52.399  1.00  0.00    -0.000 A 
HETATM    5  C6  UNL     1      23.139   1.741  52.542  1.00  0.00     0.042 A 
HETATM    6  C7  UNL     1      22.111   1.085  53.219  1.00  0.00     0.040 A 
HETATM    7  N1  UNL     1      22.720   3.019  52.083  1.00  0.00    -0.349 N 
HETATM    8  C8  UNL     1      23.142   4.363  52.276  1.00  0.00     0.229 C 
HETATM    9  N2  UNL     1      23.866   5.181  51.594  1.00  0.00    -0.170 NA
HETATM   10  N3  UNL     1      24.404   4.751  50.381  1.00  0.00    -0.272 N 
HETATM   11  C9  UNL     1      24.092   5.324  49.086  1.00  0.00     0.176 C 
HETATM   12  C10 UNL     1      25.336   5.882  48.487  1.00  0.00     0.014 C 
HETATM   13  C11 UNL     1      26.405   5.250  48.910  1.00  0.00     0.014 C 
HETATM   14 CL1  UNL     1      27.974   5.766  48.314  1.00  0.00    -0.089 Cl
HETATM   15  C12 UNL     1      26.662   4.126  49.834  1.00  0.00     0.106 C 
HETATM   16  C13 UNL     1      25.351   3.639  50.419  1.00  0.00     0.247 C 
HETATM   17  O2  UNL     1      25.483   3.137  51.711  1.00  0.00    -0.352 OA
HETATM   18  C14 UNL     1      25.494   1.747  51.699  1.00  0.00     0.188 C 
HETATM   19  H5  UNL     1      21.888   2.951  51.443  1.00  0.00     0.167 HD
ENDROOT
BRANCH   1  20
HETATM   20  C1  UNL     1      21.162  -0.845  54.480  1.00  0.00     0.429 C 
HETATM   21  O1  UNL     1      21.449  -1.892  55.116  1.00  0.00    -0.426 OA
ENDBRANCH   1  20
BRANCH  18  22
HETATM   22  C15 UNL     1      26.839   1.220  52.140  1.00  0.00     0.259 C 
HETATM   23  F1  UNL     1      27.598   2.314  52.550  1.00  0.00    -0.252 F 
ENDBRANCH  18  22
TORSDOF 2
ENDMDL
MODEL 2
REMARK VINA RESULT:      -7.9      3.112      4.162
REMARK  2 active torsions:
REMARK  status: ('A' for Active; 'I' for Inactive)
REMARK    1  A    between atoms: C1_2  and  C2_3 
REMARK    2  A    between atoms: C14_20  and  C15_21 
ROOT
HETATM    1  C2  UNL     1      26.686  -0.004  52.811  1.00  0.00    -0.022 A 
HETATM    2  C3  UNL     1      25.377  -0.222  53.222  1.00  0.00     0.011 A 
HETATM    3  C4  UNL     1      24.407   0.714  52.934  1.00  0.00     0.013 A 
HETATM    4  C5  UNL     1      24.619   1.873  52.261  1.00  0.00    -0.000 A 
HETATM    5  C6  UNL     1      25.909   2.116  51.841  1.00  0.00     0.042 A 
HETATM    6  C7  UNL     1      26.915   1.189  52.116  1.00  0.00     0.040 A 
HETATM    7  N1  UNL     1      26.416   3.230  51.121  1.00  0.00    -0.349 N 
HETATM    8  C8  UNL     1      26.148   3.845  49.867  1.00  0.00     0.229 C 
HETATM    9  N2  UNL     1      25.459   4.871  49.502  1.00  0.00    -0.170 NA
HETATM   10  N3  UNL     1      24.787   5.610  50.476  1.00  0.00    -0.272 N 
HETATM   11  C9  UNL     1      25.053   7.000  50.791  1.00  0.00     0.176 C 
HETATM   12  C10 UNL     1      23.828   7.804  50.524  1.00  0.00     0.014 C 
HETATM   13  C11 UNL     1      22.738   7.087  50.658  1.00  0.00     0.014 C 
HETATM   14 CL1  UNL     1      21.187   7.862  50.382  1.00  0.00    -0.089 Cl
HETATM   15  C12 UNL     1      22.443   5.682  51.009  1.00  0.00     0.106 C 
HETATM   16  C13 UNL     1      23.739   4.931  51.235  1.00  0.00     0.247 C 
HETATM   17  O2  UNL     1      23.659   3.585  50.887  1.00  0.00    -0.352 OA
HETATM   18  C14 UNL     1      23.507   2.793  52.019  1.00  0.00     0.188 C 
HETATM   19  H5  UNL     1      27.185   3.718  51.648  1.00  0.00     0.167 HD
ENDROOT
BRANCH   1  20
HETATM   20  C1  UNL     1      27.761  -0.948  53.079  1.00  0.00     0.429 C 
HETATM   21  O1  UNL     1      28.290  -0.886  54.219  1.00  0.00    -0.426 OA
ENDBRANCH   1  20
BRANCH  18  22
HETATM   22  C15 UNL     1      22.155   2.121  52.023  1.00  0.00     0.259 C 
HETATM   23  F1  UNL     1      21.249   3.015  52.591  1.00  0.00    -0.252 F 
ENDBRANCH  18  22
TORSDOF 2
ENDMDL
MODEL 3
REMARK VINA RESULT:      -7.7      3.825      5.757
REMARK  2 active torsions:
REMARK  status: ('A' for Active; 'I' for Inactive)
REMARK    1  A    between atoms: C1_2  and  C2_3 
REMARK    2  A    between atoms: C14_20  and  C15_21 
ROOT
HETATM    1  C2  UNL     1      27.029  -0.496  52.867  1.00  0.00    -0.022 A 
HETATM    2  C3  UNL     1      27.170   0.780  52.335  1.00  0.00     0.011 A 
HETATM    3  C4  UNL     1      26.053   1.560  52.128  1.00  0.00     0.013 A 
HETATM    4  C5  UNL     1      24.779   1.185  52.405  1.00  0.00    -0.000 A 
HETATM    5  C6  UNL     1      24.608  -0.077  52.934  1.00  0.00     0.042 A 
HETATM    6  C7  UNL     1      25.718  -0.893  53.155  1.00  0.00     0.040 A 
HETATM    7  N1  UNL     1      23.405  -0.726  53.319  1.00  0.00    -0.349 N 
HETATM    8  C8  UNL     1      22.349  -0.462  54.233  1.00  0.00     0.229 C 
HETATM    9  N2  UNL     1      21.166   0.035  54.116  1.00  0.00    -0.170 NA
HETATM   10  N3  UNL     1      20.728   0.434  52.853  1.00  0.00    -0.272 N 
HETATM   11  C9  UNL     1      19.602  -0.145  52.146  1.00  0.00     0.176 C 
HETATM   12  C10 UNL     1      18.574   0.908  51.920  1.00  0.00     0.014 C 
HETATM   13  C11 UNL     1      19.110   2.103  51.848  1.00  0.00     0.014 C 
HETATM   14 CL1  UNL     1      18.053   3.480  51.584  1.00  0.00    -0.089 Cl
HETATM   15  C12 UNL     1      20.482   2.644  51.937  1.00  0.00     0.106 C 
HETATM   16  C13 UNL     1      21.458   1.515  52.195  1.00  0.00     0.247 C 
HETATM   17  O2  UNL     1      22.560   1.907  52.951  1.00  0.00    -0.352 OA
HETATM   18  C14 UNL     1      23.670   2.101  52.136  1.00  0.00     0.188 C 
HETATM   19  H5  UNL     1      23.265  -1.630  52.799  1.00  0.00     0.167 HD
ENDROOT
BRANCH   1  20
HETATM   20  C1  UNL     1      28.163  -1.374  53.112  1.00  0.00     0.429 C 
HETATM   21  O1  UNL     1      27.933  -2.611  53.082  1.00  0.00    -0.426 OA
ENDBRANCH   1  20
BRANCH  18  22
HETATM   22  C15 UNL     1      24.077   3.555  52.126  1.00  0.00     0.259 C 
HETATM   23  F1  UNL     1      24.146   3.976  53.452  1.00  0.00    -0.252 F 
ENDBRANCH  18  22
TORSDOF 2
ENDMDL
MODEL 4
REMARK VINA RESULT:      -7.5      2.715      3.476
REMARK  2 active torsions:
REMARK  status: ('A' for Active; 'I' for Inactive)
REMARK    1  A    between atoms: C1_2  and  C2_3 
REMARK    2  A    between atoms: C14_20  and  C15_21 
ROOT
HETATM    1  C2  UNL     1      24.833   0.205  53.632  1.00  0.00    -0.022 A 
HETATM    2  C3  UNL     1      23.549   0.016  53.136  1.00  0.00     0.011 A 
HETATM    3  C4  UNL     1      23.093   0.807  52.104  1.00  0.00     0.013 A 
HETATM    4  C5  UNL     1      23.808   1.791  51.503  1.00  0.00    -0.000 A 
HETATM    5  C6  UNL     1      25.086   2.001  51.974  1.00  0.00     0.042 A 
HETATM    6  C7  UNL     1      25.579   1.219  53.019  1.00  0.00     0.040 A 
HETATM    7  N1  UNL     1      26.052   2.948  51.539  1.00  0.00    -0.349 N 
HETATM    8  C8  UNL     1      26.712   3.245  50.315  1.00  0.00     0.229 C 
HETATM    9  N2  UNL     1      26.529   4.121  49.388  1.00  0.00    -0.170 NA
HETATM   10  N3  UNL     1      25.474   5.025  49.518  1.00  0.00    -0.272 N 
HETATM   11  C9  UNL     1      25.625   6.462  49.630  1.00  0.00     0.176 C 
HETATM   12  C10 UNL     1      24.948   7.116  48.476  1.00  0.00     0.014 C 
HETATM   13  C11 UNL     1      23.953   6.391  48.022  1.00  0.00     0.014 C 
HETATM   14 CL1  UNL     1      23.029   6.996  46.658  1.00  0.00    -0.089 Cl
HETATM   15  C12 UNL     1      23.354   5.089  48.383  1.00  0.00     0.106 C 
HETATM   16  C13 UNL     1      24.118   4.482  49.542  1.00  0.00     0.247 C 
HETATM   17  O2  UNL     1      24.135   3.089  49.516  1.00  0.00    -0.352 OA
HETATM   18  C14 UNL     1      23.213   2.570  50.417  1.00  0.00     0.188 C 
HETATM   19  H5  UNL     1      26.354   3.585  52.319  1.00  0.00     0.167 HD
ENDROOT
BRANCH   1  20
HETATM   20  C1  UNL     1      25.381  -0.593  54.720  1.00  0.00     0.429 C 
HETATM   21  O1  UNL     1      26.607  -0.445  54.962  1.00  0.00    -0.426 OA
ENDBRANCH   1  20
BRANCH  18  22
HETATM   22  C15 UNL     1      22.107   1.844  49.689  1.00  0.00     0.259 C 
HETATM   23  F1  UNL     1      22.530   1.654  48.375  1.00  0.00    -0.252 F 
ENDBRANCH  18  22
TORSDOF 2
ENDMDL
MODEL 5
REMARK VINA RESULT:      -7.4      3.605      5.111
REMARK  2 active torsions:
REMARK  status: ('A' for Active; 'I' for Inactive)
REMARK    1  A    between atoms: C1_2  and  C2_3 
REMARK    2  A    between atoms: C14_20  and  C15_21 
ROOT
HETATM    1  C2  UNL     1      18.655   0.362  51.226  1.00  0.00    -0.022 A 
HETATM    2  C3  UNL     1      18.672  -0.469  52.339  1.00  0.00     0.011 A 
HETATM    3  C4  UNL     1      19.837  -0.624  53.057  1.00  0.00     0.013 A 
HETATM    4  C5  UNL     1      21.016  -0.019  52.767  1.00  0.00    -0.000 A 
HETATM    5  C6  UNL     1      21.030   0.812  51.667  1.00  0.00     0.042 A 
HETATM    6  C7  UNL     1      19.867   0.991  50.918  1.00  0.00     0.040 A 
HETATM    7  N1  UNL     1      22.107   1.570  51.136  1.00  0.00    -0.349 N 
HETATM    8  C8  UNL     1      22.974   2.590  51.616  1.00  0.00     0.229 C 
HETATM    9  N2  UNL     1      24.175   2.600  52.081  1.00  0.00    -0.170 NA
HETATM   10  N3  UNL     1      24.868   1.392  52.174  1.00  0.00    -0.272 N 
HETATM   11  C9  UNL     1      26.086   1.079  51.454  1.00  0.00     0.176 C 
HETATM   12  C10 UNL     1      27.180   0.825  52.432  1.00  0.00     0.014 C 
HETATM   13  C11 UNL     1      26.717   0.371  53.573  1.00  0.00     0.014 C 
HETATM   14 CL1  UNL     1      27.858   0.011  54.857  1.00  0.00    -0.089 Cl
HETATM   15  C12 UNL     1      25.377   0.056  54.109  1.00  0.00     0.106 C 
HETATM   16  C13 UNL     1      24.324   0.369  53.064  1.00  0.00     0.247 C 
HETATM   17  O2  UNL     1      23.112   0.777  53.615  1.00  0.00    -0.352 OA
HETATM   18  C14 UNL     1      22.192  -0.265  53.603  1.00  0.00     0.188 C 
HETATM   19  H5  UNL     1      22.311   1.313  50.137  1.00  0.00     0.167 HD
ENDROOT
BRANCH   1  20
HETATM   20  C1  UNL     1      17.460   0.573  50.421  1.00  0.00     0.429 C 
HETATM   21  O1  UNL     1      17.057  -0.410  49.747  1.00  0.00    -0.426 OA
ENDBRANCH   1  20
BRANCH  18  22
HETATM   22  C15 UNL     1      21.853  -0.694  55.010  1.00  0.00     0.259 C 
HETATM   23  F1  UNL     1      22.700  -1.751  55.337  1.00  0.00    -0.252 F 
ENDBRANCH  18  22
TORSDOF 2
ENDMDL
MODEL 6
REMARK VINA RESULT:      -7.4      3.358      6.924
REMARK  2 active torsions:
REMARK  status: ('A' for Active; 'I' for Inactive)
REMARK    1  A    between atoms: C1_2  and  C2_3 
REMARK    2  A    between atoms: C14_20  and  C15_21 
ROOT
HETATM    1  C2  UNL     1      26.792   5.043  48.961  1.00  0.00    -0.022 A 
HETATM    2  C3  UNL     1      25.529   5.610  48.841  1.00  0.00     0.011 A 
HETATM    3  C4  UNL     1      24.483   5.108  49.584  1.00  0.00     0.013 A 
HETATM    4  C5  UNL     1      24.573   4.072  50.455  1.00  0.00    -0.000 A 
HETATM    5  C6  UNL     1      25.814   3.490  50.595  1.00  0.00     0.042 A 
HETATM    6  C7  UNL     1      26.895   3.973  49.857  1.00  0.00     0.040 A 
HETATM    7  N1  UNL     1      26.201   2.405  51.426  1.00  0.00    -0.349 N 
HETATM    8  C8  UNL     1      26.181   2.128  52.821  1.00  0.00     0.229 C 
HETATM    9  N2  UNL     1      25.390   1.463  53.591  1.00  0.00    -0.170 NA
HETATM   10  N3  UNL     1      24.276   0.838  53.030  1.00  0.00    -0.272 N 
HETATM   11  C9  UNL     1      24.047  -0.594  53.021  1.00  0.00     0.176 C 
HETATM   12  C10 UNL     1      22.797  -0.892  53.775  1.00  0.00     0.014 C 
HETATM   13  C11 UNL     1      21.954   0.112  53.734  1.00  0.00     0.014 C 
HETATM   14 CL1  UNL     1      20.418  -0.051  54.568  1.00  0.00    -0.089 Cl
HETATM   15  C12 UNL     1      21.954   1.457  53.123  1.00  0.00     0.106 C 
HETATM   16  C13 UNL     1      23.267   1.689  52.404  1.00  0.00     0.247 C 
HETATM   17  O2  UNL     1      23.665   3.024  52.409  1.00  0.00    -0.352 OA
HETATM   18  C14 UNL     1      23.388   3.624  51.186  1.00  0.00     0.188 C 
HETATM   19  H5  UNL     1      26.607   1.610  50.869  1.00  0.00     0.167 HD
ENDROOT
BRANCH   1  20
HETATM   20  C1  UNL     1      27.942   5.521  48.207  1.00  0.00     0.429 C 
HETATM   21  O1  UNL     1      29.070   5.108  48.582  1.00  0.00    -0.426 OA
ENDBRANCH   1  20
BRANCH  18  22
HETATM   22  C15 UNL     1      22.334   4.694  51.344  1.00  0.00     0.259 C 
HETATM   23  F1  UNL     1      22.347   5.096  52.678  1.00  0.00    -0.252 F 
ENDBRANCH  18  22
TORSDOF 2
ENDMDL
MODEL 7
REMARK VINA RESULT:      -7.0      3.587      5.004
REMARK  2 active torsions:
REMARK  status: ('A' for Active; 'I' for Inactive)
REMARK    1  A    between atoms: C1_2  and  C2_3 
REMARK    2  A    between atoms: C14_20  and  C15_21 
ROOT
HETATM    1  C2  UNL     1      17.235  -0.937  52.450  1.00  0.00    -0.022 A 
HETATM    2  C3  UNL     1      17.882  -1.738  53.383  1.00  0.00     0.011 A 
HETATM    3  C4  UNL     1      19.198  -1.485  53.703  1.00  0.00     0.013 A 
HETATM    4  C5  UNL     1      19.951  -0.489  53.171  1.00  0.00    -0.000 A 
HETATM    5  C6  UNL     1      19.334   0.322  52.243  1.00  0.00     0.042 A 
HETATM    6  C7  UNL     1      18.002   0.093  51.895  1.00  0.00     0.040 A 
HETATM    7  N1  UNL     1      19.868   1.431  51.534  1.00  0.00    -0.349 N 
HETATM    8  C8  UNL     1      20.453   2.680  51.880  1.00  0.00     0.229 C 
HETATM    9  N2  UNL     1      21.665   3.107  51.972  1.00  0.00    -0.170 NA
HETATM   10  N3  UNL     1      22.710   2.227  51.691  1.00  0.00    -0.272 N 
HETATM   11  C9  UNL     1      23.664   2.391  50.611  1.00  0.00     0.176 C 
HETATM   12  C10 UNL     1      25.032   2.519  51.185  1.00  0.00     0.014 C 
HETATM   13  C11 UNL     1      25.138   1.898  52.335  1.00  0.00     0.014 C 
HETATM   14 CL1  UNL     1      26.682   1.935  53.169  1.00  0.00    -0.089 Cl
HETATM   15  C12 UNL     1      24.225   1.108  53.187  1.00  0.00     0.106 C 
HETATM   16  C13 UNL     1      22.852   1.052  52.547  1.00  0.00     0.247 C 
HETATM   17  O2  UNL     1      21.818   0.982  53.478  1.00  0.00    -0.352 OA
HETATM   18  C14 UNL     1      21.343  -0.321  53.587  1.00  0.00     0.188 C 
HETATM   19  H5  UNL     1      19.814   1.292  50.492  1.00  0.00     0.167 HD
ENDROOT
BRANCH   1  20
HETATM   20  C1  UNL     1      15.846  -1.147  52.065  1.00  0.00     0.429 C 
HETATM   21  O1  UNL     1      14.979  -0.524  52.730  1.00  0.00    -0.426 OA
ENDBRANCH   1  20
BRANCH  18  22
HETATM   22  C15 UNL     1      21.637  -0.882  54.957  1.00  0.00     0.259 C 
HETATM   23  F1  UNL     1      22.291  -2.099  54.776  1.00  0.00    -0.252 F 
ENDBRANCH  18  22
TORSDOF 2
ENDMDL
MODEL 8
REMARK VINA RESULT:      -6.9      4.108      6.507
REMARK  2 active torsions:
REMARK  status: ('A' for Active; 'I' for Inactive)
REMARK    1  A    between atoms: C1_2  and  C2_3 
REMARK    2  A    between atoms: C14_20  and  C15_21 
ROOT
HETATM    1  C2  UNL     1      21.921   3.342  47.414  1.00  0.00    -0.022 A 
HETATM    2  C3  UNL     1      20.926   2.408  47.674  1.00  0.00     0.011 A 
HETATM    3  C4  UNL     1      20.981   1.656  48.827  1.00  0.00     0.013 A 
HETATM    4  C5  UNL     1      21.953   1.745  49.769  1.00  0.00    -0.000 A 
HETATM    5  C6  UNL     1      22.954   2.664  49.538  1.00  0.00     0.042 A 
HETATM    6  C7  UNL     1      22.930   3.442  48.379  1.00  0.00     0.040 A 
HETATM    7  N1  UNL     1      24.084   2.973  50.342  1.00  0.00    -0.349 N 
HETATM    8  C8  UNL     1      24.298   3.434  51.670  1.00  0.00     0.229 C 
HETATM    9  N2  UNL     1      24.599   2.856  52.781  1.00  0.00    -0.170 NA
HETATM   10  N3  UNL     1      24.776   1.472  52.791  1.00  0.00    -0.272 N 
HETATM   11  C9  UNL     1      26.018   0.799  53.118  1.00  0.00     0.176 C 
HETATM   12  C10 UNL     1      25.808  -0.055  54.321  1.00  0.00     0.014 C 
HETATM   13  C11 UNL     1      24.563  -0.455  54.421  1.00  0.00     0.014 C 
HETATM   14 CL1  UNL     1      24.118  -1.474  55.780  1.00  0.00    -0.089 Cl
HETATM   15  C12 UNL     1      23.331  -0.258  53.629  1.00  0.00     0.106 C 
HETATM   16  C13 UNL     1      23.625   0.641  52.446  1.00  0.00     0.247 C 
HETATM   17  O2  UNL     1      22.536   1.424  52.071  1.00  0.00    -0.352 OA
HETATM   18  C14 UNL     1      21.907   0.887  50.953  1.00  0.00     0.188 C 
HETATM   19  H5  UNL     1      24.986   2.826  49.821  1.00  0.00     0.167 HD
ENDROOT
BRANCH   1  20
HETATM   20  C1  UNL     1      21.927   4.171  46.217  1.00  0.00     0.429 C 
HETATM   21  O1  UNL     1      22.111   3.576  45.123  1.00  0.00    -0.426 OA
ENDBRANCH   1  20
BRANCH  18  22
HETATM   22  C15 UNL     1      20.517   0.412  51.300  1.00  0.00     0.259 C 
HETATM   23  F1  UNL     1      20.063   1.196  52.359  1.00  0.00    -0.252 F 
ENDBRANCH  18  22
TORSDOF 2
ENDMDL
MODEL 9
REMARK VINA RESULT:      -6.9      3.829      5.288
REMARK  2 active torsions:
REMARK  status: ('A' for Active; 'I' for Inactive)
REMARK    1  A    between atoms: C1_2  and  C2_3 
REMARK    2  A    between atoms: C14_20  and  C15_21 
ROOT
HETATM    1  C2  UNL     1      17.799   0.863  51.258  1.00  0.00    -0.022 A 
HETATM    2  C3  UNL     1      17.909  -0.285  52.034  1.00  0.00     0.011 A 
HETATM    3  C4  UNL     1      19.119  -0.606  52.609  1.00  0.00     0.013 A 
HETATM    4  C5  UNL     1      20.258   0.120  52.483  1.00  0.00    -0.000 A 
HETATM    5  C6  UNL     1      20.179   1.265  51.719  1.00  0.00     0.042 A 
HETATM    6  C7  UNL     1      18.969   1.619  51.122  1.00  0.00     0.040 A 
HETATM    7  N1  UNL     1      21.197   2.209  51.422  1.00  0.00    -0.349 N 
HETATM    8  C8  UNL     1      22.055   3.058  52.173  1.00  0.00     0.229 C 
HETATM    9  N2  UNL     1      23.281   2.976  52.561  1.00  0.00    -0.170 NA
HETATM   10  N3  UNL     1      24.019   1.842  52.221  1.00  0.00    -0.272 N 
HETATM   11  C9  UNL     1      25.203   1.844  51.385  1.00  0.00     0.176 C 
HETATM   12  C10 UNL     1      26.360   1.340  52.176  1.00  0.00     0.014 C 
HETATM   13  C11 UNL     1      25.979   0.515  53.122  1.00  0.00     0.014 C 
HETATM   14 CL1  UNL     1      27.205  -0.187  54.165  1.00  0.00    -0.089 Cl
HETATM   15  C12 UNL     1      24.684  -0.026  53.583  1.00  0.00     0.106 C 
HETATM   16  C13 UNL     1      23.562   0.558  52.747  1.00  0.00     0.247 C 
HETATM   17  O2  UNL     1      22.371   0.700  53.454  1.00  0.00    -0.352 OA
HETATM   18  C14 UNL     1      21.487  -0.327  53.139  1.00  0.00     0.188 C 
HETATM   19  H5  UNL     1      21.352   2.304  50.385  1.00  0.00     0.167 HD
ENDROOT
BRANCH   1  20
HETATM   20  C1  UNL     1      16.553   1.265  50.621  1.00  0.00     0.429 C 
HETATM   21  O1  UNL     1      16.467   1.064  49.382  1.00  0.00    -0.426 OA
ENDBRANCH   1  20
BRANCH  18  22
HETATM   22  C15 UNL     1      21.246  -1.210  54.339  1.00  0.00     0.259 C 
HETATM   23  F1  UNL     1      21.836  -0.587  55.437  1.00  0.00    -0.252 F 
ENDBRANCH  18  22
TORSDOF 2
ENDMDL
