MODEL 1
REMARK VINA RESULT:      -8.0      0.000      0.000
REMARK  6 active torsions:
REMARK  status: ('A' for Active; 'I' for Inactive)
REMARK    1  A    between atoms: C2_2  and  N1_3 
REMARK    2  A    between atoms: N1_3  and  C4_5 
REMARK    3  A    between atoms: C5_6  and  C6_7 
REMARK       I    between atoms: C6_7  and  N2_9 
REMARK    4  A    between atoms: N2_9  and  C7_10 
REMARK    5  A    between atoms: C12_16  and  N5_19 
REMARK    6  A    between atoms: N5_19  and  C14_20 
ROOT
HETATM    1  C7  UNL     1      24.450   2.717  52.409  1.00  0.00     0.096 C 
HETATM    2  C8  UNL     1      23.663   4.110  52.687  1.00  0.00     0.058 C 
HETATM    3  C9  UNL     1      22.679   3.742  51.653  1.00  0.00     0.092 A 
HETATM    4  N3  UNL     1      22.220   3.372  50.514  1.00  0.00    -0.263 NA
HETATM    5  C10 UNL     1      22.936   1.945  50.565  1.00  0.00     0.105 C 
HETATM    6  C11 UNL     1      24.314   2.589  50.918  1.00  0.00     0.077 C 
HETATM    7  C12 UNL     1      23.794   3.955  50.568  1.00  0.00     0.162 A 
HETATM    8  C13 UNL     1      23.201   3.941  49.201  1.00  0.00     0.105 C 
HETATM    9  N4  UNL     1      22.731   3.926  48.167  1.00  0.00    -0.193 NA
ENDROOT
BRANCH   7  10
HETATM   10  N5  UNL     1      24.556   5.106  50.747  1.00  0.00    -0.358 N 
HETATM   11  H16 UNL     1      24.504   5.955  51.393  1.00  0.00     0.162 HD
BRANCH  10  12
HETATM   12  C14 UNL     1      25.665   5.362  49.876  1.00  0.00     0.030 A 
HETATM   13  C15 UNL     1      26.637   4.447  49.529  1.00  0.00     0.029 A 
HETATM   14  C16 UNL     1      27.710   4.688  48.709  1.00  0.00     0.003 A 
HETATM   15  C17 UNL     1      27.862   5.944  48.169  1.00  0.00     0.007 A 
HETATM   16  C18 UNL     1      26.936   6.907  48.467  1.00  0.00    -0.060 A 
HETATM   17  C19 UNL     1      27.170   8.230  47.845  1.00  0.00     0.048 C 
HETATM   18  C20 UNL     1      25.884   6.592  49.298  1.00  0.00     0.036 A 
ENDBRANCH  10  12
ENDBRANCH   7  10
BRANCH   1  19
HETATM   19  N2  UNL     1      25.765   2.817  52.914  1.00  0.00    -0.352 N 
HETATM   20  C6  UNL     1      26.906   2.105  52.447  1.00  0.00     0.242 C 
HETATM   21  O1  UNL     1      26.823   1.287  51.496  1.00  0.00    -0.269 OA
HETATM   22  H9  UNL     1      25.848   3.493  53.707  1.00  0.00     0.163 HD
BRANCH  20  23
HETATM   23  C5  UNL     1      28.193   2.330  53.086  1.00  0.00     0.091 C 
HETATM   24  C4  UNL     1      28.663   1.453  53.943  1.00  0.00     0.095 C 
BRANCH  24  25
HETATM   25  N1  UNL     1      27.982   0.271  54.297  1.00  0.00    -0.371 N 
HETATM   26  C3  UNL     1      26.794   0.047  55.098  1.00  0.00     0.154 C 
BRANCH  25  27
HETATM   27  C2  UNL     1      28.588  -0.908  53.756  1.00  0.00     0.079 C 
HETATM   28  C1  UNL     1      29.585  -1.679  53.352  1.00  0.00     0.030 C 
ENDBRANCH  25  27
ENDBRANCH  24  25
ENDBRANCH  20  23
ENDBRANCH   1  19
TORSDOF 6
ENDMDL
MODEL 2
REMARK VINA RESULT:      -7.9      2.191      6.160
REMARK  6 active torsions:
REMARK  status: ('A' for Active; 'I' for Inactive)
REMARK    1  A    between atoms: C2_2  and  N1_3 
REMARK    2  A    between atoms: N1_3  and  C4_5 
REMARK    3  A    between atoms: C5_6  and  C6_7 
REMARK       I    between atoms: C6_7  and  N2_9 
REMARK    4  A    between atoms: N2_9  and  C7_10 
REMARK    5  A    between atoms: C12_16  and  N5_19 
REMARK    6  A    between atoms: N5_19  and  C14_20 
ROOT
HETATM    1  C7  UNL     1      23.219   3.353  51.839  1.00  0.00     0.096 C 
HETATM    2  C8  UNL     1      23.516   2.421  50.543  1.00  0.00     0.058 C 
HETATM    3  C9  UNL     1      22.924   1.272  51.253  1.00  0.00     0.092 A 
HETATM    4  N3  UNL     1      22.720   0.417  52.186  1.00  0.00    -0.263 NA
HETATM    5  C10 UNL     1      22.250   1.516  53.244  1.00  0.00     0.105 C 
HETATM    6  C11 UNL     1      23.506   2.400  52.965  1.00  0.00     0.077 C 
HETATM    7  C12 UNL     1      24.163   1.275  52.217  1.00  0.00     0.162 A 
HETATM    8  C13 UNL     1      24.175   0.042  53.054  1.00  0.00     0.105 C 
HETATM    9  N4  UNL     1      24.166  -0.903  53.685  1.00  0.00    -0.193 NA
ENDROOT
BRANCH   7  10
HETATM   10  N5  UNL     1      25.388   1.428  51.574  1.00  0.00    -0.358 N 
HETATM   11  H16 UNL     1      25.701   1.561  50.561  1.00  0.00     0.162 HD
BRANCH  10  12
HETATM   12  C14 UNL     1      26.601   1.341  52.334  1.00  0.00     0.030 A 
HETATM   13  C15 UNL     1      27.237   2.401  52.948  1.00  0.00     0.029 A 
HETATM   14  C16 UNL     1      28.405   2.329  53.663  1.00  0.00     0.003 A 
HETATM   15  C17 UNL     1      29.025   1.109  53.800  1.00  0.00     0.007 A 
HETATM   16  C18 UNL     1      28.453   0.010  53.218  1.00  0.00    -0.060 A 
HETATM   17  C19 UNL     1      29.181  -1.264  53.413  1.00  0.00     0.048 C 
HETATM   18  C20 UNL     1      27.278   0.158  52.515  1.00  0.00     0.036 A 
ENDBRANCH  10  12
ENDBRANCH   7  10
BRANCH   1  19
HETATM   19  N2  UNL     1      24.025   4.510  51.774  1.00  0.00    -0.352 N 
HETATM   20  C6  UNL     1      23.599   5.819  51.412  1.00  0.00     0.242 C 
HETATM   21  O1  UNL     1      22.404   6.056  51.105  1.00  0.00    -0.269 OA
HETATM   22  H9  UNL     1      25.024   4.327  52.027  1.00  0.00     0.163 HD
BRANCH  20  23
HETATM   23  C5  UNL     1      24.569   6.903  51.397  1.00  0.00     0.091 C 
HETATM   24  C4  UNL     1      25.320   7.097  50.337  1.00  0.00     0.095 C 
BRANCH  24  25
HETATM   25  N1  UNL     1      25.248   6.300  49.178  1.00  0.00    -0.371 N 
HETATM   26  C3  UNL     1      24.342   6.323  48.047  1.00  0.00     0.154 C 
BRANCH  25  27
HETATM   27  C2  UNL     1      26.265   5.291  49.129  1.00  0.00     0.079 C 
HETATM   28  C1  UNL     1      26.764   4.071  49.241  1.00  0.00     0.030 C 
ENDBRANCH  25  27
ENDBRANCH  24  25
ENDBRANCH  20  23
ENDBRANCH   1  19
TORSDOF 6
ENDMDL
MODEL 3
REMARK VINA RESULT:      -7.8      2.549      5.440
REMARK  6 active torsions:
REMARK  status: ('A' for Active; 'I' for Inactive)
REMARK    1  A    between atoms: C2_2  and  N1_3 
REMARK    2  A    between atoms: N1_3  and  C4_5 
REMARK    3  A    between atoms: C5_6  and  C6_7 
REMARK       I    between atoms: C6_7  and  N2_9 
REMARK    4  A    between atoms: N2_9  and  C7_10 
REMARK    5  A    between atoms: C12_16  and  N5_19 
REMARK    6  A    between atoms: N5_19  and  C14_20 
ROOT
HETATM    1  C7  UNL     1      24.838   3.017  52.473  1.00  0.00     0.096 C 
HETATM    2  C8  UNL     1      25.041   2.428  50.974  1.00  0.00     0.058 C 
HETATM    3  C9  UNL     1      24.256   3.557  50.440  1.00  0.00     0.092 A 
HETATM    4  N3  UNL     1      23.280   4.376  50.301  1.00  0.00    -0.263 NA
HETATM    5  C10 UNL     1      23.414   4.962  51.780  1.00  0.00     0.105 C 
HETATM    6  C11 UNL     1      23.426   3.531  52.404  1.00  0.00     0.077 C 
HETATM    7  C12 UNL     1      22.976   2.932  51.101  1.00  0.00     0.162 A 
HETATM    8  C13 UNL     1      21.749   3.624  50.617  1.00  0.00     0.105 C 
HETATM    9  N4  UNL     1      20.824   4.165  50.238  1.00  0.00    -0.193 NA
ENDROOT
BRANCH   7  10
HETATM   10  N5  UNL     1      22.852   1.557  50.921  1.00  0.00    -0.358 N 
HETATM   11  H16 UNL     1      23.233   0.847  50.220  1.00  0.00     0.162 HD
BRANCH  10  12
HETATM   12  C14 UNL     1      21.981   0.808  51.779  1.00  0.00     0.030 A 
HETATM   13  C15 UNL     1      20.614   0.697  51.631  1.00  0.00     0.029 A 
HETATM   14  C16 UNL     1      19.772  -0.003  52.456  1.00  0.00     0.003 A 
HETATM   15  C17 UNL     1      20.303  -0.666  53.537  1.00  0.00     0.007 A 
HETATM   16  C18 UNL     1      21.655  -0.604  53.750  1.00  0.00    -0.060 A 
HETATM   17  C19 UNL     1      22.147  -1.344  54.934  1.00  0.00     0.048 C 
HETATM   18  C20 UNL     1      22.438   0.120  52.879  1.00  0.00     0.036 A 
ENDBRANCH  10  12
ENDBRANCH   7  10
BRANCH   1  19
HETATM   19  N2  UNL     1      25.088   1.994  53.413  1.00  0.00    -0.352 N 
HETATM   20  C6  UNL     1      26.312   1.756  54.098  1.00  0.00     0.242 C 
HETATM   21  O1  UNL     1      27.321   2.482  53.908  1.00  0.00    -0.269 OA
HETATM   22  H9  UNL     1      24.257   1.382  53.581  1.00  0.00     0.163 HD
BRANCH  20  23
HETATM   23  C5  UNL     1      26.397   0.650  55.039  1.00  0.00     0.091 C 
HETATM   24  C4  UNL     1      26.888  -0.505  54.652  1.00  0.00     0.095 C 
BRANCH  24  25
HETATM   25  N1  UNL     1      27.352  -0.752  53.345  1.00  0.00    -0.371 N 
HETATM   26  C3  UNL     1      26.651  -0.905  52.086  1.00  0.00     0.154 C 
BRANCH  25  27
HETATM   27  C2  UNL     1      28.779  -0.867  53.271  1.00  0.00     0.079 C 
HETATM   28  C1  UNL     1      30.033  -0.575  53.574  1.00  0.00     0.030 C 
ENDBRANCH  25  27
ENDBRANCH  24  25
ENDBRANCH  20  23
ENDBRANCH   1  19
TORSDOF 6
ENDMDL
MODEL 4
REMARK VINA RESULT:      -7.7      2.934      5.879
REMARK  6 active torsions:
REMARK  status: ('A' for Active; 'I' for Inactive)
REMARK    1  A    between atoms: C2_2  and  N1_3 
REMARK    2  A    between atoms: N1_3  and  C4_5 
REMARK    3  A    between atoms: C5_6  and  C6_7 
REMARK       I    between atoms: C6_7  and  N2_9 
REMARK    4  A    between atoms: N2_9  and  C7_10 
REMARK    5  A    between atoms: C12_16  and  N5_19 
REMARK    6  A    between atoms: N5_19  and  C14_20 
ROOT
HETATM    1  C7  UNL     1      24.447   2.456  51.502  1.00  0.00     0.096 C 
HETATM    2  C8  UNL     1      23.681   2.452  50.070  1.00  0.00     0.058 C 
HETATM    3  C9  UNL     1      22.905   3.631  50.499  1.00  0.00     0.092 A 
HETATM    4  N3  UNL     1      22.152   4.366  51.230  1.00  0.00    -0.263 NA
HETATM    5  C10 UNL     1      23.180   4.401  52.451  1.00  0.00     0.105 C 
HETATM    6  C11 UNL     1      23.335   2.847  52.435  1.00  0.00     0.077 C 
HETATM    7  C12 UNL     1      22.147   2.713  51.524  1.00  0.00     0.162 A 
HETATM    8  C13 UNL     1      20.977   3.433  52.101  1.00  0.00     0.105 C 
HETATM    9  N4  UNL     1      20.090   3.998  52.531  1.00  0.00    -0.193 NA
ENDROOT
BRANCH   7  10
HETATM   10  N5  UNL     1      21.746   1.485  51.006  1.00  0.00    -0.358 N 
HETATM   11  H16 UNL     1      21.786   1.019  50.045  1.00  0.00     0.162 HD
BRANCH  10  12
HETATM   12  C14 UNL     1      21.041   0.561  51.845  1.00  0.00     0.030 A 
HETATM   13  C15 UNL     1      19.690   0.289  51.776  1.00  0.00     0.029 A 
HETATM   14  C16 UNL     1      19.005  -0.581  52.585  1.00  0.00     0.003 A 
HETATM   15  C17 UNL     1      19.695  -1.260  53.562  1.00  0.00     0.007 A 
HETATM   16  C18 UNL     1      21.041  -1.044  53.691  1.00  0.00    -0.060 A 
HETATM   17  C19 UNL     1      21.709  -1.814  54.764  1.00  0.00     0.048 C 
HETATM   18  C20 UNL     1      21.661  -0.155  52.842  1.00  0.00     0.036 A 
ENDBRANCH  10  12
ENDBRANCH   7  10
BRANCH   1  19
HETATM   19  N2  UNL     1      25.032   1.190  51.720  1.00  0.00    -0.352 N 
HETATM   20  C6  UNL     1      26.425   0.897  51.758  1.00  0.00     0.242 C 
HETATM   21  O1  UNL     1      27.287   1.796  51.591  1.00  0.00    -0.269 OA
HETATM   22  H9  UNL     1      24.326   0.431  51.859  1.00  0.00     0.163 HD
BRANCH  20  23
HETATM   23  C5  UNL     1      26.857  -0.472  51.994  1.00  0.00     0.091 C 
HETATM   24  C4  UNL     1      27.170  -0.861  53.209  1.00  0.00     0.095 C 
BRANCH  24  25
HETATM   25  N1  UNL     1      27.115  -0.014  54.334  1.00  0.00    -0.371 N 
HETATM   26  C3  UNL     1      26.027   0.333  55.226  1.00  0.00     0.154 C 
BRANCH  25  27
HETATM   27  C2  UNL     1      28.373   0.604  54.631  1.00  0.00     0.079 C 
HETATM   28  C1  UNL     1      29.400   1.414  54.429  1.00  0.00     0.030 C 
ENDBRANCH  25  27
ENDBRANCH  24  25
ENDBRANCH  20  23
ENDBRANCH   1  19
TORSDOF 6
ENDMDL
MODEL 5
REMARK VINA RESULT:      -7.6      2.181      6.751
REMARK  6 active torsions:
REMARK  status: ('A' for Active; 'I' for Inactive)
REMARK    1  A    between atoms: C2_2  and  N1_3 
REMARK    2  A    between atoms: N1_3  and  C4_5 
REMARK    3  A    between atoms: C5_6  and  C6_7 
REMARK       I    between atoms: C6_7  and  N2_9 
REMARK    4  A    between atoms: N2_9  and  C7_10 
REMARK    5  A    between atoms: C12_16  and  N5_19 
REMARK    6  A    between atoms: N5_19  and  C14_20 
ROOT
HETATM    1  C7  UNL     1      26.412   1.777  51.825  1.00  0.00     0.096 C 
HETATM    2  C8  UNL     1      26.196   2.628  53.191  1.00  0.00     0.058 C 
HETATM    3  C9  UNL     1      26.712   1.486  53.967  1.00  0.00     0.092 A 
HETATM    4  N3  UNL     1      26.829   0.282  54.391  1.00  0.00    -0.263 NA
HETATM    5  C10 UNL     1      27.238  -0.301  52.961  1.00  0.00     0.105 C 
HETATM    6  C11 UNL     1      26.023   0.394  52.270  1.00  0.00     0.077 C 
HETATM    7  C12 UNL     1      25.404   0.696  53.605  1.00  0.00     0.162 A 
HETATM    8  C13 UNL     1      25.306  -0.550  54.417  1.00  0.00     0.105 C 
HETATM    9  N4  UNL     1      25.250  -1.496  55.043  1.00  0.00    -0.193 NA
ENDROOT
BRANCH   7  10
HETATM   10  N5  UNL     1      24.233   1.440  53.729  1.00  0.00    -0.358 N 
HETATM   11  H16 UNL     1      23.957   2.338  54.236  1.00  0.00     0.162 HD
BRANCH  10  12
HETATM   12  C14 UNL     1      23.023   0.958  53.130  1.00  0.00     0.030 A 
HETATM   13  C15 UNL     1      22.031   0.258  53.784  1.00  0.00     0.029 A 
HETATM   14  C16 UNL     1      20.878  -0.220  53.216  1.00  0.00     0.003 A 
HETATM   15  C17 UNL     1      20.660  -0.002  51.875  1.00  0.00     0.007 A 
HETATM   16  C18 UNL     1      21.602   0.686  51.158  1.00  0.00    -0.060 A 
HETATM   17  C19 UNL     1      21.292   0.878  49.723  1.00  0.00     0.048 C 
HETATM   18  C20 UNL     1      22.735   1.136  51.796  1.00  0.00     0.036 A 
ENDBRANCH  10  12
ENDBRANCH   7  10
BRANCH   1  19
HETATM   19  N2  UNL     1      25.634   2.346  50.794  1.00  0.00    -0.352 N 
HETATM   20  C6  UNL     1      26.032   3.393  49.914  1.00  0.00     0.242 C 
HETATM   21  O1  UNL     1      27.170   3.918  49.995  1.00  0.00    -0.269 OA
HETATM   22  H9  UNL     1      24.683   1.919  50.716  1.00  0.00     0.163 HD
BRANCH  20  23
HETATM   23  C5  UNL     1      25.098   3.863  48.902  1.00  0.00     0.091 C 
HETATM   24  C4  UNL     1      24.347   4.913  49.140  1.00  0.00     0.095 C 
BRANCH  24  25
HETATM   25  N1  UNL     1      24.384   5.638  50.348  1.00  0.00    -0.371 N 
HETATM   26  C3  UNL     1      25.112   6.830  50.734  1.00  0.00     0.154 C 
BRANCH  25  27
HETATM   27  C2  UNL     1      23.542   5.077  51.362  1.00  0.00     0.079 C 
HETATM   28  C1  UNL     1      23.171   4.778  52.596  1.00  0.00     0.030 C 
ENDBRANCH  25  27
ENDBRANCH  24  25
ENDBRANCH  20  23
ENDBRANCH   1  19
TORSDOF 6
ENDMDL
MODEL 6
REMARK VINA RESULT:      -7.6      2.214      6.499
REMARK  6 active torsions:
REMARK  status: ('A' for Active; 'I' for Inactive)
REMARK    1  A    between atoms: C2_2  and  N1_3 
REMARK    2  A    between atoms: N1_3  and  C4_5 
REMARK    3  A    between atoms: C5_6  and  C6_7 
REMARK       I    between atoms: C6_7  and  N2_9 
REMARK    4  A    between atoms: N2_9  and  C7_10 
REMARK    5  A    between atoms: C12_16  and  N5_19 
REMARK    6  A    between atoms: N5_19  and  C14_20 
ROOT
HETATM    1  C7  UNL     1      24.694   5.191  50.159  1.00  0.00     0.096 C 
HETATM    2  C8  UNL     1      25.385   3.858  49.540  1.00  0.00     0.058 C 
HETATM    3  C9  UNL     1      24.232   3.064  50.003  1.00  0.00     0.092 A 
HETATM    4  N3  UNL     1      23.348   2.589  50.801  1.00  0.00    -0.263 NA
HETATM    5  C10 UNL     1      22.688   4.013  51.096  1.00  0.00     0.105 C 
HETATM    6  C11 UNL     1      24.077   4.650  51.419  1.00  0.00     0.077 C 
HETATM    7  C12 UNL     1      24.715   3.291  51.480  1.00  0.00     0.162 A 
HETATM    8  C13 UNL     1      23.958   2.413  52.416  1.00  0.00     0.105 C 
HETATM    9  N4  UNL     1      23.369   1.737  53.115  1.00  0.00    -0.193 NA
ENDROOT
BRANCH   7  10
HETATM   10  N5  UNL     1      26.084   3.122  51.667  1.00  0.00    -0.358 N 
HETATM   11  H16 UNL     1      26.951   3.722  51.497  1.00  0.00     0.162 HD
BRANCH  10  12
HETATM   12  C14 UNL     1      26.583   1.862  52.136  1.00  0.00     0.030 A 
HETATM   13  C15 UNL     1      26.327   0.636  51.557  1.00  0.00     0.029 A 
HETATM   14  C16 UNL     1      26.787  -0.574  52.008  1.00  0.00     0.003 A 
HETATM   15  C17 UNL     1      27.575  -0.607  53.135  1.00  0.00     0.007 A 
HETATM   16  C18 UNL     1      27.873   0.572  53.765  1.00  0.00    -0.060 A 
HETATM   17  C19 UNL     1      28.726   0.452  54.969  1.00  0.00     0.048 C 
HETATM   18  C20 UNL     1      27.375   1.750  53.254  1.00  0.00     0.036 A 
ENDBRANCH  10  12
ENDBRANCH   7  10
BRANCH   1  19
HETATM   19  N2  UNL     1      25.676   6.191  50.321  1.00  0.00    -0.352 N 
HETATM   20  C6  UNL     1      25.551   7.565  49.969  1.00  0.00     0.242 C 
HETATM   21  O1  UNL     1      24.494   8.016  49.458  1.00  0.00    -0.269 OA
HETATM   22  H9  UNL     1      26.562   5.830  50.744  1.00  0.00     0.163 HD
BRANCH  20  23
HETATM   23  C5  UNL     1      26.669   8.464  50.205  1.00  0.00     0.091 C 
HETATM   24  C4  UNL     1      27.593   8.620  49.285  1.00  0.00     0.095 C 
BRANCH  24  25
HETATM   25  N1  UNL     1      27.572   7.952  48.044  1.00  0.00    -0.371 N 
HETATM   26  C3  UNL     1      26.905   8.259  46.795  1.00  0.00     0.154 C 
BRANCH  25  27
HETATM   27  C2  UNL     1      28.362   6.756  48.040  1.00  0.00     0.079 C 
HETATM   28  C1  UNL     1      28.648   5.495  48.318  1.00  0.00     0.030 C 
ENDBRANCH  25  27
ENDBRANCH  24  25
ENDBRANCH  20  23
ENDBRANCH   1  19
TORSDOF 6
ENDMDL
MODEL 7
REMARK VINA RESULT:      -7.5      3.135      6.568
REMARK  6 active torsions:
REMARK  status: ('A' for Active; 'I' for Inactive)
REMARK    1  A    between atoms: C2_2  and  N1_3 
REMARK    2  A    between atoms: N1_3  and  C4_5 
REMARK    3  A    between atoms: C5_6  and  C6_7 
REMARK       I    between atoms: C6_7  and  N2_9 
REMARK    4  A    between atoms: N2_9  and  C7_10 
REMARK    5  A    between atoms: C12_16  and  N5_19 
REMARK    6  A    between atoms: N5_19  and  C14_20 
ROOT
HETATM    1  C7  UNL     1      22.683   2.967  51.439  1.00  0.00     0.096 C 
HETATM    2  C8  UNL     1      23.334   4.083  52.423  1.00  0.00     0.058 C 
HETATM    3  C9  UNL     1      24.073   4.642  51.276  1.00  0.00     0.092 A 
HETATM    4  N3  UNL     1      24.838   4.679  50.249  1.00  0.00    -0.263 NA
HETATM    5  C10 UNL     1      23.908   3.712  49.382  1.00  0.00     0.105 C 
HETATM    6  C11 UNL     1      23.841   2.658  50.531  1.00  0.00     0.077 C 
HETATM    7  C12 UNL     1      24.959   3.345  51.262  1.00  0.00     0.162 A 
HETATM    8  C13 UNL     1      26.128   3.524  50.356  1.00  0.00     0.105 C 
HETATM    9  N4  UNL     1      27.013   3.678  49.659  1.00  0.00    -0.193 NA
ENDROOT
BRANCH   7  10
HETATM   10  N5  UNL     1      25.388   2.931  52.520  1.00  0.00    -0.358 N 
HETATM   11  H16 UNL     1      25.352   3.342  53.505  1.00  0.00     0.162 HD
BRANCH  10  12
HETATM   12  C14 UNL     1      26.122   1.706  52.648  1.00  0.00     0.030 A 
HETATM   13  C15 UNL     1      25.630   0.447  52.373  1.00  0.00     0.029 A 
HETATM   14  C16 UNL     1      26.320  -0.730  52.508  1.00  0.00     0.003 A 
HETATM   15  C17 UNL     1      27.620  -0.690  52.957  1.00  0.00     0.007 A 
HETATM   16  C18 UNL     1      28.178   0.526  53.251  1.00  0.00    -0.060 A 
HETATM   17  C19 UNL     1      29.579   0.483  53.726  1.00  0.00     0.048 C 
HETATM   18  C20 UNL     1      27.424   1.667  53.091  1.00  0.00     0.036 A 
ENDBRANCH  10  12
ENDBRANCH   7  10
BRANCH   1  19
HETATM   19  N2  UNL     1      22.189   1.895  52.214  1.00  0.00    -0.352 N 
HETATM   20  C6  UNL     1      20.951   1.858  52.914  1.00  0.00     0.242 C 
HETATM   21  O1  UNL     1      20.158   2.834  52.894  1.00  0.00    -0.269 OA
HETATM   22  H9  UNL     1      22.840   1.076  52.240  1.00  0.00     0.163 HD
BRANCH  20  23
HETATM   23  C5  UNL     1      20.596   0.666  53.668  1.00  0.00     0.091 C 
HETATM   24  C4  UNL     1      19.738  -0.195  53.171  1.00  0.00     0.095 C 
BRANCH  24  25
HETATM   25  N1  UNL     1      19.117  -0.036  51.916  1.00  0.00    -0.371 N 
HETATM   26  C3  UNL     1      19.647   0.338  50.620  1.00  0.00     0.154 C 
BRANCH  25  27
HETATM   27  C2  UNL     1      17.709  -0.297  51.952  1.00  0.00     0.079 C 
HETATM   28  C1  UNL     1      16.522  -0.451  52.515  1.00  0.00     0.030 C 
ENDBRANCH  25  27
ENDBRANCH  24  25
ENDBRANCH  20  23
ENDBRANCH   1  19
TORSDOF 6
ENDMDL
MODEL 8
REMARK VINA RESULT:      -7.4      2.885      6.668
REMARK  6 active torsions:
REMARK  status: ('A' for Active; 'I' for Inactive)
REMARK    1  A    between atoms: C2_2  and  N1_3 
REMARK    2  A    between atoms: N1_3  and  C4_5 
REMARK    3  A    between atoms: C5_6  and  C6_7 
REMARK       I    between atoms: C6_7  and  N2_9 
REMARK    4  A    between atoms: N2_9  and  C7_10 
REMARK    5  A    between atoms: C12_16  and  N5_19 
REMARK    6  A    between atoms: N5_19  and  C14_20 
ROOT
HETATM    1  C7  UNL     1      22.701   3.382  50.840  1.00  0.00     0.096 C 
HETATM    2  C8  UNL     1      23.320   4.514  51.826  1.00  0.00     0.058 C 
HETATM    3  C9  UNL     1      24.128   5.028  50.705  1.00  0.00     0.092 A 
HETATM    4  N3  UNL     1      24.947   5.022  49.719  1.00  0.00    -0.263 NA
HETATM    5  C10 UNL     1      24.046   4.048  48.831  1.00  0.00     0.105 C 
HETATM    6  C11 UNL     1      23.898   3.028  50.003  1.00  0.00     0.077 C 
HETATM    7  C12 UNL     1      24.990   3.716  50.773  1.00  0.00     0.162 A 
HETATM    8  C13 UNL     1      26.208   3.849  49.926  1.00  0.00     0.105 C 
HETATM    9  N4  UNL     1      27.131   3.968  49.273  1.00  0.00    -0.193 NA
ENDROOT
BRANCH   7  10
HETATM   10  N5  UNL     1      25.344   3.330  52.063  1.00  0.00    -0.358 N 
HETATM   11  H16 UNL     1      25.560   3.843  52.974  1.00  0.00     0.162 HD
BRANCH  10  12
HETATM   12  C14 UNL     1      25.565   1.942  52.349  1.00  0.00     0.030 A 
HETATM   13  C15 UNL     1      26.552   1.158  51.789  1.00  0.00     0.029 A 
HETATM   14  C16 UNL     1      26.761  -0.172  52.046  1.00  0.00     0.003 A 
HETATM   15  C17 UNL     1      25.930  -0.815  52.933  1.00  0.00     0.007 A 
HETATM   16  C18 UNL     1      24.925  -0.102  53.531  1.00  0.00    -0.060 A 
HETATM   17  C19 UNL     1      24.077  -0.865  54.473  1.00  0.00     0.048 C 
HETATM   18  C20 UNL     1      24.776   1.233  53.225  1.00  0.00     0.036 A 
ENDBRANCH  10  12
ENDBRANCH   7  10
BRANCH   1  19
HETATM   19  N2  UNL     1      22.147   2.341  51.616  1.00  0.00    -0.352 N 
HETATM   20  C6  UNL     1      21.625   1.110  51.129  1.00  0.00     0.242 C 
HETATM   21  O1  UNL     1      21.617   0.841  49.901  1.00  0.00    -0.269 OA
HETATM   22  H9  UNL     1      22.146   2.552  52.640  1.00  0.00     0.163 HD
BRANCH  20  23
HETATM   23  C5  UNL     1      21.088   0.143  52.074  1.00  0.00     0.091 C 
HETATM   24  C4  UNL     1      19.792   0.065  52.269  1.00  0.00     0.095 C 
BRANCH  24  25
HETATM   25  N1  UNL     1      18.856   0.882  51.603  1.00  0.00    -0.371 N 
HETATM   26  C3  UNL     1      18.572   2.299  51.702  1.00  0.00     0.154 C 
BRANCH  25  27
HETATM   27  C2  UNL     1      18.053   0.159  50.662  1.00  0.00     0.079 C 
HETATM   28  C1  UNL     1      17.034  -0.036  49.841  1.00  0.00     0.030 C 
ENDBRANCH  25  27
ENDBRANCH  24  25
ENDBRANCH  20  23
ENDBRANCH   1  19
TORSDOF 6
ENDMDL
MODEL 9
REMARK VINA RESULT:      -7.1      5.415      8.366
REMARK  6 active torsions:
REMARK  status: ('A' for Active; 'I' for Inactive)
REMARK    1  A    between atoms: C2_2  and  N1_3 
REMARK    2  A    between atoms: N1_3  and  C4_5 
REMARK    3  A    between atoms: C5_6  and  C6_7 
REMARK       I    between atoms: C6_7  and  N2_9 
REMARK    4  A    between atoms: N2_9  and  C7_10 
REMARK    5  A    between atoms: C12_16  and  N5_19 
REMARK    6  A    between atoms: N5_19  and  C14_20 
ROOT
HETATM    1  C7  UNL     1      30.858   9.097  47.265  1.00  0.00     0.096 C 
HETATM    2  C8  UNL     1      29.619   9.728  46.427  1.00  0.00     0.058 C 
HETATM    3  C9  UNL     1      29.238  10.516  47.613  1.00  0.00     0.092 A 
HETATM    4  N3  UNL     1      28.928  10.775  48.830  1.00  0.00    -0.263 NA
HETATM    5  C10 UNL     1      30.333  10.285  49.410  1.00  0.00     0.105 C 
HETATM    6  C11 UNL     1      30.246   8.936  48.629  1.00  0.00     0.077 C 
HETATM    7  C12 UNL     1      28.797   9.182  48.314  1.00  0.00     0.162 A 
HETATM    8  C13 UNL     1      28.045   9.475  49.566  1.00  0.00     0.105 C 
HETATM    9  N4  UNL     1      27.475   9.718  50.519  1.00  0.00    -0.193 NA
ENDROOT
BRANCH   7  10
HETATM   10  N5  UNL     1      28.059   8.325  47.502  1.00  0.00    -0.358 N 
HETATM   11  H16 UNL     1      27.642   8.385  46.521  1.00  0.00     0.162 HD
BRANCH  10  12
HETATM   12  C14 UNL     1      27.642   7.052  48.013  1.00  0.00     0.030 A 
HETATM   13  C15 UNL     1      28.457   5.953  48.183  1.00  0.00     0.029 A 
HETATM   14  C16 UNL     1      28.062   4.728  48.656  1.00  0.00     0.003 A 
HETATM   15  C17 UNL     1      26.744   4.543  49.000  1.00  0.00     0.007 A 
HETATM   16  C18 UNL     1      25.873   5.590  48.860  1.00  0.00    -0.060 A 
HETATM   17  C19 UNL     1      24.473   5.310  49.253  1.00  0.00     0.048 C 
HETATM   18  C20 UNL     1      26.341   6.792  48.378  1.00  0.00     0.036 A 
ENDBRANCH  10  12
ENDBRANCH   7  10
BRANCH   1  19
HETATM   19  N2  UNL     1      31.295   7.914  46.630  1.00  0.00    -0.352 N 
HETATM   20  C6  UNL     1      32.603   7.655  46.132  1.00  0.00     0.242 C 
HETATM   21  O1  UNL     1      33.520   8.509  46.226  1.00  0.00    -0.269 OA
HETATM   22  H9  UNL     1      30.541   7.194  46.544  1.00  0.00     0.163 HD
BRANCH  20  23
HETATM   23  C5  UNL     1      32.882   6.374  45.501  1.00  0.00     0.091 C 
HETATM   24  C4  UNL     1      33.173   5.328  46.239  1.00  0.00     0.095 C 
BRANCH  24  25
HETATM   25  N1  UNL     1      33.236   5.364  47.646  1.00  0.00    -0.371 N 
HETATM   26  C3  UNL     1      32.222   5.161  48.662  1.00  0.00     0.154 C 
BRANCH  25  27
HETATM   27  C2  UNL     1      34.549   5.653  48.140  1.00  0.00     0.079 C 
HETATM   28  C1  UNL     1      35.494   6.387  48.704  1.00  0.00     0.030 C 
ENDBRANCH  25  27
ENDBRANCH  24  25
ENDBRANCH  20  23
ENDBRANCH   1  19
TORSDOF 6
ENDMDL
