MODEL 1
REMARK VINA RESULT:      -9.0      0.000      0.000
REMARK  2 active torsions:
REMARK  status: ('A' for Active; 'I' for Inactive)
REMARK    1  A    between atoms: C10_14  and  N5_15 
REMARK    2  A    between atoms: N5_15  and  C11_16 
ROOT
HETATM    1  C1  UNL     1      19.677   3.495  51.862  1.00  0.00     0.179 C 
HETATM    2  N1  UNL     1      20.483   2.944  50.791  1.00  0.00    -0.279 N 
HETATM    3  N2  UNL     1      21.499   3.747  50.202  1.00  0.00    -0.188 NA
HETATM    4  C2  UNL     1      22.179   3.210  49.253  1.00  0.00     0.124 C 
HETATM    5  C3  UNL     1      22.348   1.709  49.542  1.00  0.00     0.076 C 
HETATM    6  C4  UNL     1      21.017   1.104  49.273  1.00  0.00     0.014 C 
HETATM    7  C5  UNL     1      20.282   1.601  50.284  1.00  0.00     0.030 C 
HETATM    8  C6  UNL     1      19.245   0.982  51.184  1.00  0.00     0.088 C 
HETATM    9  C7  UNL     1      20.027   0.008  52.075  1.00  0.00     0.012 C 
HETATM   10  C8  UNL     1      21.319   0.073  52.461  1.00  0.00     0.068 A 
HETATM   11  N3  UNL     1      21.421  -0.657  53.579  1.00  0.00    -0.241 NA
HETATM   12  C9  UNL     1      22.608  -0.775  54.200  1.00  0.00     0.235 A 
HETATM   13  N4  UNL     1      23.723  -0.185  53.748  1.00  0.00    -0.224 NA
HETATM   14  C10 UNL     1      23.674   0.555  52.634  1.00  0.00     0.141 A 
HETATM   15  C17 UNL     1      22.476   0.698  51.972  1.00  0.00     0.036 A 
HETATM   16  C18 UNL     1      22.762   1.493  50.928  1.00  0.00     0.005 C 
ENDROOT
BRANCH  14  17
HETATM   17  N5  UNL     1      24.891   1.144  52.199  1.00  0.00    -0.340 N 
HETATM   18  H11 UNL     1      25.297   1.912  51.631  1.00  0.00     0.167 HD
BRANCH  17  19
HETATM   19  C11 UNL     1      26.131   0.565  52.596  1.00  0.00     0.035 A 
HETATM   20  C12 UNL     1      26.605  -0.732  52.461  1.00  0.00     0.032 A 
HETATM   21  C13 UNL     1      27.817  -1.208  52.897  1.00  0.00     0.046 A 
HETATM   22  C14 UNL     1      28.647  -0.315  53.533  1.00  0.00     0.138 A 
HETATM   23  F1  UNL     1      29.834  -0.813  53.952  1.00  0.00    -0.204 F 
HETATM   24  C15 UNL     1      28.222   0.994  53.694  1.00  0.00     0.074 A 
HETATM   25 CL1  UNL     1      29.426   1.986  54.531  1.00  0.00    -0.081 Cl
HETATM   26  C16 UNL     1      27.003   1.445  53.247  1.00  0.00     0.056 A 
ENDBRANCH  17  19
ENDBRANCH  14  17
TORSDOF 2
ENDMDL
MODEL 2
REMARK VINA RESULT:      -8.8      2.054      3.765
REMARK  2 active torsions:
REMARK  status: ('A' for Active; 'I' for Inactive)
REMARK    1  A    between atoms: C10_14  and  N5_15 
REMARK    2  A    between atoms: N5_15  and  C11_16 
ROOT
HETATM    1  C1  UNL     1      21.582   0.996  48.788  1.00  0.00     0.179 C 
HETATM    2  N1  UNL     1      21.487   1.520  50.136  1.00  0.00    -0.279 N 
HETATM    3  N2  UNL     1      21.309   0.617  51.221  1.00  0.00    -0.188 NA
HETATM    4  C2  UNL     1      21.225   1.136  52.394  1.00  0.00     0.124 C 
HETATM    5  C3  UNL     1      22.136   2.373  52.462  1.00  0.00     0.076 C 
HETATM    6  C4  UNL     1      21.438   3.420  51.671  1.00  0.00     0.014 C 
HETATM    7  C5  UNL     1      21.552   2.939  50.420  1.00  0.00     0.030 C 
HETATM    8  C6  UNL     1      21.869   3.599  49.105  1.00  0.00     0.088 C 
HETATM    9  C7  UNL     1      23.345   4.002  49.210  1.00  0.00     0.012 C 
HETATM   10  C8  UNL     1      24.323   3.429  49.942  1.00  0.00     0.068 A 
HETATM   11  N3  UNL     1      25.483   3.768  49.363  1.00  0.00    -0.241 NA
HETATM   12  C9  UNL     1      26.646   3.334  49.879  1.00  0.00     0.235 A 
HETATM   13  N4  UNL     1      26.708   2.557  50.970  1.00  0.00    -0.224 NA
HETATM   14  C10 UNL     1      25.578   2.191  51.586  1.00  0.00     0.141 A 
HETATM   15  C17 UNL     1      24.369   2.617  51.086  1.00  0.00     0.036 A 
HETATM   16  C18 UNL     1      23.456   2.075  51.907  1.00  0.00     0.005 C 
ENDROOT
BRANCH  14  17
HETATM   17  N5  UNL     1      25.710   1.378  52.743  1.00  0.00    -0.340 N 
HETATM   18  H11 UNL     1      25.196   0.969  53.547  1.00  0.00     0.167 HD
BRANCH  17  19
HETATM   19  C11 UNL     1      26.989   0.852  53.087  1.00  0.00     0.035 A 
HETATM   20  C12 UNL     1      28.125   1.484  53.572  1.00  0.00     0.032 A 
HETATM   21  C13 UNL     1      29.331   0.893  53.857  1.00  0.00     0.046 A 
HETATM   22  C14 UNL     1      29.428  -0.461  53.642  1.00  0.00     0.138 A 
HETATM   23  F1  UNL     1      30.629  -1.016  53.932  1.00  0.00    -0.204 F 
HETATM   24  C15 UNL     1      28.323  -1.142  53.158  1.00  0.00     0.074 A 
HETATM   25 CL1  UNL     1      28.647  -2.870  52.948  1.00  0.00    -0.081 Cl
HETATM   26  C16 UNL     1      27.127  -0.525  52.880  1.00  0.00     0.056 A 
ENDBRANCH  17  19
ENDBRANCH  14  17
TORSDOF 2
ENDMDL
MODEL 3
REMARK VINA RESULT:      -8.6      1.452      1.869
REMARK  2 active torsions:
REMARK  status: ('A' for Active; 'I' for Inactive)
REMARK    1  A    between atoms: C10_14  and  N5_15 
REMARK    2  A    between atoms: N5_15  and  C11_16 
ROOT
HETATM    1  C1  UNL     1      22.149   4.914  52.422  1.00  0.00     0.179 C 
HETATM    2  N1  UNL     1      22.366   4.060  51.271  1.00  0.00    -0.279 N 
HETATM    3  N2  UNL     1      23.564   4.202  50.517  1.00  0.00    -0.188 NA
HETATM    4  C2  UNL     1      23.702   3.423  49.504  1.00  0.00     0.124 C 
HETATM    5  C3  UNL     1      23.058   2.064  49.823  1.00  0.00     0.076 C 
HETATM    6  C4  UNL     1      21.591   2.300  49.764  1.00  0.00     0.014 C 
HETATM    7  C5  UNL     1      21.395   3.071  50.848  1.00  0.00     0.030 C 
HETATM    8  C6  UNL     1      20.323   3.080  51.905  1.00  0.00     0.088 C 
HETATM    9  C7  UNL     1      20.556   1.799  52.715  1.00  0.00     0.012 C 
HETATM   10  C8  UNL     1      21.711   1.128  52.915  1.00  0.00     0.068 A 
HETATM   11  N3  UNL     1      21.548   0.412  54.035  1.00  0.00    -0.241 NA
HETATM   12  C9  UNL     1      22.547  -0.364  54.490  1.00  0.00     0.235 A 
HETATM   13  N4  UNL     1      23.729  -0.461  53.865  1.00  0.00    -0.224 NA
HETATM   14  C10 UNL     1      23.941   0.234  52.742  1.00  0.00     0.141 A 
HETATM   15  C17 UNL     1      22.942   1.040  52.247  1.00  0.00     0.036 A 
HETATM   16  C18 UNL     1      23.471   1.594  51.145  1.00  0.00     0.005 C 
ENDROOT
BRANCH  14  17
HETATM   17  N5  UNL     1      25.210   0.080  52.120  1.00  0.00    -0.340 N 
HETATM   18  H11 UNL     1      25.699  -0.314  51.294  1.00  0.00     0.167 HD
BRANCH  17  19
HETATM   19  C11 UNL     1      26.372   0.598  52.763  1.00  0.00     0.035 A 
HETATM   20  C12 UNL     1      26.653   1.876  53.224  1.00  0.00     0.032 A 
HETATM   21  C13 UNL     1      27.820   2.293  53.817  1.00  0.00     0.046 A 
HETATM   22  C14 UNL     1      28.812   1.353  53.970  1.00  0.00     0.138 A 
HETATM   23  F1  UNL     1      29.951   1.792  54.557  1.00  0.00    -0.204 F 
HETATM   24  C15 UNL     1      28.583   0.061  53.526  1.00  0.00     0.074 A 
HETATM   25 CL1  UNL     1      29.973  -0.997  53.812  1.00  0.00    -0.081 Cl
HETATM   26  C16 UNL     1      27.404  -0.329  52.936  1.00  0.00     0.056 A 
ENDBRANCH  17  19
ENDBRANCH  14  17
TORSDOF 2
ENDMDL
MODEL 4
REMARK VINA RESULT:      -8.3      2.487      4.278
REMARK  2 active torsions:
REMARK  status: ('A' for Active; 'I' for Inactive)
REMARK    1  A    between atoms: C10_14  and  N5_15 
REMARK    2  A    between atoms: N5_15  and  C11_16 
ROOT
HETATM    1  C1  UNL     1      21.263   3.865  48.568  1.00  0.00     0.179 C 
HETATM    2  N1  UNL     1      21.452   3.930  50.003  1.00  0.00    -0.279 N 
HETATM    3  N2  UNL     1      21.017   2.843  50.812  1.00  0.00    -0.188 NA
HETATM    4  C2  UNL     1      21.204   2.957  52.078  1.00  0.00     0.124 C 
HETATM    5  C3  UNL     1      22.513   3.725  52.326  1.00  0.00     0.076 C 
HETATM    6  C4  UNL     1      22.210   5.140  51.987  1.00  0.00     0.014 C 
HETATM    7  C5  UNL     1      22.060   5.075  50.652  1.00  0.00     0.030 C 
HETATM    8  C6  UNL     1      22.519   5.974  49.535  1.00  0.00     0.088 C 
HETATM    9  C7  UNL     1      24.042   5.801  49.490  1.00  0.00     0.012 C 
HETATM   10  C8  UNL     1      24.779   4.730  49.854  1.00  0.00     0.068 A 
HETATM   11  N3  UNL     1      25.943   4.826  49.200  1.00  0.00    -0.241 NA
HETATM   12  C9  UNL     1      26.889   3.885  49.366  1.00  0.00     0.235 A 
HETATM   13  N4  UNL     1      26.723   2.827  50.173  1.00  0.00    -0.224 NA
HETATM   14  C10 UNL     1      25.578   2.686  50.850  1.00  0.00     0.141 A 
HETATM   15  C17 UNL     1      24.587   3.630  50.704  1.00  0.00     0.036 A 
HETATM   16  C18 UNL     1      23.590   3.194  51.490  1.00  0.00     0.005 C 
ENDROOT
BRANCH  14  17
HETATM   17  N5  UNL     1      25.467   1.552  51.698  1.00  0.00    -0.340 N 
HETATM   18  H11 UNL     1      24.805   0.850  52.081  1.00  0.00     0.167 HD
BRANCH  17  19
HETATM   19  C11 UNL     1      26.623   1.070  52.378  1.00  0.00     0.035 A 
HETATM   20  C12 UNL     1      27.606   1.752  53.081  1.00  0.00     0.032 A 
HETATM   21  C13 UNL     1      28.706   1.201  53.691  1.00  0.00     0.046 A 
HETATM   22  C14 UNL     1      28.853  -0.163  53.599  1.00  0.00     0.138 A 
HETATM   23  F1  UNL     1      29.946  -0.678  54.210  1.00  0.00    -0.204 F 
HETATM   24  C15 UNL     1      27.899  -0.892  52.908  1.00  0.00     0.074 A 
HETATM   25 CL1  UNL     1      28.263  -2.625  52.901  1.00  0.00    -0.081 Cl
HETATM   26  C16 UNL     1      26.807  -0.315  52.306  1.00  0.00     0.056 A 
ENDBRANCH  17  19
ENDBRANCH  14  17
TORSDOF 2
ENDMDL
MODEL 5
REMARK VINA RESULT:      -8.2      4.343      5.399
REMARK  2 active torsions:
REMARK  status: ('A' for Active; 'I' for Inactive)
REMARK    1  A    between atoms: C10_14  and  N5_15 
REMARK    2  A    between atoms: N5_15  and  C11_16 
ROOT
HETATM    1  C1  UNL     1      21.856   4.659  52.311  1.00  0.00     0.179 C 
HETATM    2  N1  UNL     1      21.955   3.813  51.138  1.00  0.00    -0.279 N 
HETATM    3  N2  UNL     1      21.988   4.413  49.849  1.00  0.00    -0.188 NA
HETATM    4  C2  UNL     1      22.070   3.616  48.845  1.00  0.00     0.124 C 
HETATM    5  C3  UNL     1      22.930   2.401  49.236  1.00  0.00     0.076 C 
HETATM    6  C4  UNL     1      22.073   1.587  50.137  1.00  0.00     0.014 C 
HETATM    7  C5  UNL     1      22.007   2.368  51.230  1.00  0.00     0.030 C 
HETATM    8  C6  UNL     1      22.084   2.059  52.702  1.00  0.00     0.088 C 
HETATM    9  C7  UNL     1      23.540   1.644  52.943  1.00  0.00     0.012 C 
HETATM   10  C8  UNL     1      24.645   2.016  52.262  1.00  0.00     0.068 A 
HETATM   11  N3  UNL     1      25.683   1.834  53.089  1.00  0.00    -0.241 NA
HETATM   12  C9  UNL     1      26.930   2.126  52.679  1.00  0.00     0.235 A 
HETATM   13  N4  UNL     1      27.196   2.602  51.455  1.00  0.00    -0.224 NA
HETATM   14  C10 UNL     1      26.193   2.801  50.591  1.00  0.00     0.141 A 
HETATM   15  C17 UNL     1      24.904   2.514  50.976  1.00  0.00     0.036 A 
HETATM   16  C18 UNL     1      24.155   2.831  49.907  1.00  0.00     0.005 C 
ENDROOT
BRANCH  14  17
HETATM   17  N5  UNL     1      26.540   3.297  49.306  1.00  0.00    -0.340 N 
HETATM   18  H11 UNL     1      26.720   3.025  48.320  1.00  0.00     0.167 HD
BRANCH  17  19
HETATM   19  C11 UNL     1      26.790   4.689  49.136  1.00  0.00     0.035 A 
HETATM   20  C12 UNL     1      26.032   5.793  49.500  1.00  0.00     0.032 A 
HETATM   21  C13 UNL     1      26.345   7.111  49.275  1.00  0.00     0.046 A 
HETATM   22  C14 UNL     1      27.528   7.368  48.623  1.00  0.00     0.138 A 
HETATM   23  F1  UNL     1      27.811   8.676  48.414  1.00  0.00    -0.204 F 
HETATM   24  C15 UNL     1      28.324   6.302  48.237  1.00  0.00     0.074 A 
HETATM   25 CL1  UNL     1      29.798   6.835  47.415  1.00  0.00    -0.081 Cl
HETATM   26  C16 UNL     1      27.986   4.991  48.475  1.00  0.00     0.056 A 
ENDBRANCH  17  19
ENDBRANCH  14  17
TORSDOF 2
ENDMDL
MODEL 6
REMARK VINA RESULT:      -7.9      3.899      5.032
REMARK  2 active torsions:
REMARK  status: ('A' for Active; 'I' for Inactive)
REMARK    1  A    between atoms: C10_14  and  N5_15 
REMARK    2  A    between atoms: N5_15  and  C11_16 
ROOT
HETATM    1  C1  UNL     1      20.274   3.105  52.553  1.00  0.00     0.179 C 
HETATM    2  N1  UNL     1      20.597   2.349  51.359  1.00  0.00    -0.279 N 
HETATM    3  N2  UNL     1      20.430   2.959  50.085  1.00  0.00    -0.188 NA
HETATM    4  C2  UNL     1      20.725   2.241  49.060  1.00  0.00     0.124 C 
HETATM    5  C3  UNL     1      21.910   1.326  49.412  1.00  0.00     0.076 C 
HETATM    6  C4  UNL     1      21.346   0.277  50.302  1.00  0.00     0.014 C 
HETATM    7  C5  UNL     1      21.073   0.982  51.415  1.00  0.00     0.030 C 
HETATM    8  C6  UNL     1      21.263   0.680  52.878  1.00  0.00     0.088 C 
HETATM    9  C7  UNL     1      22.781   0.706  53.093  1.00  0.00     0.012 C 
HETATM   10  C8  UNL     1      23.716   1.401  52.409  1.00  0.00     0.068 A 
HETATM   11  N3  UNL     1      24.775   1.515  53.220  1.00  0.00    -0.241 NA
HETATM   12  C9  UNL     1      25.874   2.169  52.804  1.00  0.00     0.235 A 
HETATM   13  N4  UNL     1      25.966   2.728  51.589  1.00  0.00    -0.224 NA
HETATM   14  C10 UNL     1      24.935   2.640  50.742  1.00  0.00     0.141 A 
HETATM   15  C17 UNL     1      23.794   1.979  51.133  1.00  0.00     0.036 A 
HETATM   16  C18 UNL     1      22.967   2.083  50.081  1.00  0.00     0.005 C 
ENDROOT
BRANCH  14  17
HETATM   17  N5  UNL     1      25.099   3.243  49.465  1.00  0.00    -0.340 N 
HETATM   18  H11 UNL     1      24.996   3.089  48.444  1.00  0.00     0.167 HD
BRANCH  17  19
HETATM   19  C11 UNL     1      25.612   4.569  49.377  1.00  0.00     0.035 A 
HETATM   20  C12 UNL     1      26.796   5.044  48.832  1.00  0.00     0.032 A 
HETATM   21  C13 UNL     1      27.220   6.350  48.811  1.00  0.00     0.046 A 
HETATM   22  C14 UNL     1      26.392   7.284  49.388  1.00  0.00     0.138 A 
HETATM   23  F1  UNL     1      26.837   8.563  49.353  1.00  0.00    -0.204 F 
HETATM   24  C15 UNL     1      25.197   6.863  49.948  1.00  0.00     0.074 A 
HETATM   25 CL1  UNL     1      24.275   8.208  50.637  1.00  0.00    -0.081 Cl
HETATM   26  C16 UNL     1      24.796   5.548  49.954  1.00  0.00     0.056 A 
ENDBRANCH  17  19
ENDBRANCH  14  17
TORSDOF 2
ENDMDL
MODEL 7
REMARK VINA RESULT:      -7.7      3.238      4.941
REMARK  2 active torsions:
REMARK  status: ('A' for Active; 'I' for Inactive)
REMARK    1  A    between atoms: C10_14  and  N5_15 
REMARK    2  A    between atoms: N5_15  and  C11_16 
ROOT
HETATM    1  C1  UNL     1      21.921   7.720  49.557  1.00  0.00     0.179 C 
HETATM    2  N1  UNL     1      23.336   7.406  49.524  1.00  0.00    -0.279 N 
HETATM    3  N2  UNL     1      24.138   7.689  50.664  1.00  0.00    -0.188 NA
HETATM    4  C2  UNL     1      25.386   7.395  50.578  1.00  0.00     0.124 C 
HETATM    5  C3  UNL     1      25.545   6.125  49.725  1.00  0.00     0.076 C 
HETATM    6  C4  UNL     1      25.288   6.555  48.326  1.00  0.00     0.014 C 
HETATM    7  C5  UNL     1      23.971   6.821  48.360  1.00  0.00     0.030 C 
HETATM    8  C6  UNL     1      22.852   6.529  47.395  1.00  0.00     0.088 C 
HETATM    9  C7  UNL     1      22.665   5.008  47.456  1.00  0.00     0.012 C 
HETATM   10  C8  UNL     1      22.922   4.169  48.482  1.00  0.00     0.068 A 
HETATM   11  N3  UNL     1      22.170   3.079  48.282  1.00  0.00    -0.241 NA
HETATM   12  C9  UNL     1      22.216   2.059  49.157  1.00  0.00     0.235 A 
HETATM   13  N4  UNL     1      22.994   2.078  50.249  1.00  0.00    -0.224 NA
HETATM   14  C10 UNL     1      23.764   3.143  50.493  1.00  0.00     0.141 A 
HETATM   15  C17 UNL     1      23.743   4.206  49.619  1.00  0.00     0.036 A 
HETATM   16  C18 UNL     1      24.597   5.095  50.150  1.00  0.00     0.005 C 
ENDROOT
BRANCH  14  17
HETATM   17  N5  UNL     1      24.574   3.097  51.659  1.00  0.00    -0.340 N 
HETATM   18  H11 UNL     1      24.969   3.667  52.432  1.00  0.00     0.167 HD
BRANCH  17  19
HETATM   19  C11 UNL     1      25.169   1.863  52.051  1.00  0.00     0.035 A 
HETATM   20  C12 UNL     1      26.307   1.221  51.584  1.00  0.00     0.032 A 
HETATM   21  C13 UNL     1      26.796   0.011  52.011  1.00  0.00     0.046 A 
HETATM   22  C14 UNL     1      26.091  -0.633  53.000  1.00  0.00     0.138 A 
HETATM   23  F1  UNL     1      26.597  -1.824  53.401  1.00  0.00    -0.204 F 
HETATM   24  C15 UNL     1      24.947  -0.036  53.502  1.00  0.00     0.074 A 
HETATM   25 CL1  UNL     1      24.183  -1.016  54.763  1.00  0.00    -0.081 Cl
HETATM   26  C16 UNL     1      24.478   1.177  53.056  1.00  0.00     0.056 A 
ENDBRANCH  17  19
ENDBRANCH  14  17
TORSDOF 2
ENDMDL
MODEL 8
REMARK VINA RESULT:      -7.7      4.127      6.355
REMARK  2 active torsions:
REMARK  status: ('A' for Active; 'I' for Inactive)
REMARK    1  A    between atoms: C10_14  and  N5_15 
REMARK    2  A    between atoms: N5_15  and  C11_16 
ROOT
HETATM    1  C1  UNL     1      23.186   2.961  48.698  1.00  0.00     0.179 C 
HETATM    2  N1  UNL     1      22.929   3.721  49.905  1.00  0.00    -0.279 N 
HETATM    3  N2  UNL     1      21.591   4.083  50.226  1.00  0.00    -0.188 NA
HETATM    4  C2  UNL     1      21.422   4.762  51.304  1.00  0.00     0.124 C 
HETATM    5  C3  UNL     1      22.451   4.305  52.353  1.00  0.00     0.076 C 
HETATM    6  C4  UNL     1      23.750   4.867  51.901  1.00  0.00     0.014 C 
HETATM    7  C5  UNL     1      23.992   4.140  50.795  1.00  0.00     0.030 C 
HETATM    8  C6  UNL     1      25.245   3.501  50.257  1.00  0.00     0.088 C 
HETATM    9  C7  UNL     1      25.547   2.350  51.223  1.00  0.00     0.012 C 
HETATM   10  C8  UNL     1      24.685   1.637  51.979  1.00  0.00     0.068 A 
HETATM   11  N3  UNL     1      25.288   0.472  52.250  1.00  0.00    -0.241 NA
HETATM   12  C9  UNL     1      24.658  -0.454  52.995  1.00  0.00     0.235 A 
HETATM   13  N4  UNL     1      23.427  -0.268  53.492  1.00  0.00    -0.224 NA
HETATM   14  C10 UNL     1      22.784   0.880  53.250  1.00  0.00     0.141 A 
HETATM   15  C17 UNL     1      23.397   1.850  52.492  1.00  0.00     0.036 A 
HETATM   16  C18 UNL     1      22.497   2.845  52.428  1.00  0.00     0.005 C 
ENDROOT
BRANCH  14  17
HETATM   17  N5  UNL     1      21.488   1.021  53.815  1.00  0.00    -0.340 N 
HETATM   18  H11 UNL     1      20.962   1.386  54.632  1.00  0.00     0.167 HD
BRANCH  17  19
HETATM   19  C11 UNL     1      20.360   0.495  53.120  1.00  0.00     0.035 A 
HETATM   20  C12 UNL     1      19.745   0.913  51.949  1.00  0.00     0.032 A 
HETATM   21  C13 UNL     1      18.639   0.351  51.360  1.00  0.00     0.046 A 
HETATM   22  C14 UNL     1      18.081  -0.736  51.991  1.00  0.00     0.138 A 
HETATM   23  F1  UNL     1      16.992  -1.269  51.388  1.00  0.00    -0.204 F 
HETATM   24  C15 UNL     1      18.657  -1.195  53.165  1.00  0.00     0.074 A 
HETATM   25 CL1  UNL     1      17.798  -2.598  53.821  1.00  0.00    -0.081 Cl
HETATM   26  C16 UNL     1      19.765  -0.614  53.733  1.00  0.00     0.056 A 
ENDBRANCH  17  19
ENDBRANCH  14  17
TORSDOF 2
ENDMDL
MODEL 9
REMARK VINA RESULT:      -7.7      4.269      6.301
REMARK  2 active torsions:
REMARK  status: ('A' for Active; 'I' for Inactive)
REMARK    1  A    between atoms: C10_14  and  N5_15 
REMARK    2  A    between atoms: N5_15  and  C11_16 
ROOT
HETATM    1  C1  UNL     1      22.607   6.304  47.284  1.00  0.00     0.179 C 
HETATM    2  N1  UNL     1      22.788   6.924  48.581  1.00  0.00    -0.279 N 
HETATM    3  N2  UNL     1      21.738   6.849  49.539  1.00  0.00    -0.188 NA
HETATM    4  C2  UNL     1      21.950   7.421  50.670  1.00  0.00     0.124 C 
HETATM    5  C3  UNL     1      23.438   7.284  51.032  1.00  0.00     0.076 C 
HETATM    6  C4  UNL     1      24.151   8.229  50.133  1.00  0.00     0.014 C 
HETATM    7  C5  UNL     1      23.999   7.634  48.937  1.00  0.00     0.030 C 
HETATM    8  C6  UNL     1      24.943   7.424  47.782  1.00  0.00     0.088 C 
HETATM    9  C7  UNL     1      25.969   6.404  48.292  1.00  0.00     0.012 C 
HETATM   10  C8  UNL     1      25.808   5.445  49.229  1.00  0.00     0.068 A 
HETATM   11  N3  UNL     1      26.746   4.518  48.992  1.00  0.00    -0.241 NA
HETATM   12  C9  UNL     1      26.829   3.429  49.776  1.00  0.00     0.235 A 
HETATM   13  N4  UNL     1      26.001   3.216  50.808  1.00  0.00    -0.224 NA
HETATM   14  C10 UNL     1      25.048   4.113  51.087  1.00  0.00     0.141 A 
HETATM   15  C17 UNL     1      24.933   5.240  50.306  1.00  0.00     0.036 A 
HETATM   16  C18 UNL     1      23.894   5.909  50.832  1.00  0.00     0.005 C 
ENDROOT
BRANCH  14  17
HETATM   17  N5  UNL     1      24.210   3.837  52.200  1.00  0.00    -0.340 N 
HETATM   18  H11 UNL     1      23.726   4.261  53.015  1.00  0.00     0.167 HD
BRANCH  17  19
HETATM   19  C11 UNL     1      23.793   2.497  52.447  1.00  0.00     0.035 A 
HETATM   20  C12 UNL     1      24.384   1.492  53.201  1.00  0.00     0.032 A 
HETATM   21  C13 UNL     1      23.916   0.212  53.366  1.00  0.00     0.046 A 
HETATM   22  C14 UNL     1      22.746  -0.113  52.722  1.00  0.00     0.138 A 
HETATM   23  F1  UNL     1      22.309  -1.382  52.903  1.00  0.00    -0.204 F 
HETATM   24  C15 UNL     1      22.115   0.853  51.956  1.00  0.00     0.074 A 
HETATM   25 CL1  UNL     1      20.629   0.244  51.210  1.00  0.00    -0.081 Cl
HETATM   26  C16 UNL     1      22.605   2.129  51.807  1.00  0.00     0.056 A 
ENDBRANCH  17  19
ENDBRANCH  14  17
TORSDOF 2
ENDMDL
