MODEL 1
REMARK VINA RESULT:      -8.3      0.000      0.000
REMARK  5 active torsions:
REMARK  status: ('A' for Active; 'I' for Inactive)
REMARK    1  A    between atoms: O1_2  and  C2_3 
REMARK    2  A    between atoms: C14_20  and  C15_21 
REMARK    3  A    between atoms: C15_21  and  C16_22 
REMARK    4  A    between atoms: C16_22  and  C17_23 
REMARK    5  A    between atoms: C17_23  and  N4_24 
ROOT
HETATM    1  C2  UNL     1      25.443   2.179  51.205  1.00  0.00     0.072 C 
HETATM    2  C3  UNL     1      24.627   1.375  51.856  1.00  0.00     0.039 C 
HETATM    3  C4  UNL     1      24.235   0.399  52.854  1.00  0.00     0.329 C 
HETATM    4  N1  UNL     1      22.978   0.131  52.741  1.00  0.00    -0.398 NA
HETATM    5  C5  UNL     1      22.265  -0.790  53.568  1.00  0.00     0.215 C 
HETATM    6  N2  UNL     1      20.992  -0.741  53.551  1.00  0.00    -0.171 NA
HETATM    7  N3  UNL     1      20.143   0.084  52.841  1.00  0.00    -0.274 N 
HETATM    8  C6  UNL     1      20.682   1.058  51.938  1.00  0.00     0.088 A 
HETATM    9  C7  UNL     1      20.923   0.227  50.873  1.00  0.00     0.035 A 
HETATM   10  C8  UNL     1      21.566   1.038  49.914  1.00  0.00     0.011 A 
HETATM   11  C9  UNL     1      21.835   2.387  50.135  1.00  0.00    -0.037 A 
HETATM   12  C10 UNL     1      21.521   3.102  51.279  1.00  0.00     0.053 A 
HETATM   13  C11 UNL     1      20.892   2.350  52.242  1.00  0.00     0.144 A 
HETATM   14  F1  UNL     1      20.457   2.733  53.463  1.00  0.00    -0.204 F 
HETATM   15  C12 UNL     1      22.665   3.188  49.135  1.00  0.00     0.114 C 
HETATM   16 BR1  UNL     1      22.411   2.335  47.421  1.00  0.00    -0.082 Br
HETATM   17  C13 UNL     1      24.068   3.245  49.527  1.00  0.00     0.003 C 
HETATM   18  C14 UNL     1      25.290   3.120  50.067  1.00  0.00    -0.027 C 
HETATM   19  H7  UNL     1      19.734  -0.604  53.479  1.00  0.00     0.189 HD
ENDROOT
BRANCH  18  20
HETATM   20  C15 UNL     1      26.637   3.627  49.852  1.00  0.00     0.043 C 
BRANCH  20  21
HETATM   21  C16 UNL     1      26.739   4.821  48.941  1.00  0.00     0.024 C 
BRANCH  21  22
HETATM   22  C17 UNL     1      28.106   5.209  48.518  1.00  0.00     0.117 C 
BRANCH  22  23
HETATM   23  N4  UNL     1      28.232   6.624  48.239  1.00  0.00    -0.409 N 
HETATM   24  C18 UNL     1      29.542   7.158  48.316  1.00  0.00     0.147 C 
HETATM   25  C19 UNL     1      29.544   8.655  48.183  1.00  0.00     0.291 C 
HETATM   26  N5  UNL     1      28.768   9.228  49.237  1.00  0.00     0.087 N 
HETATM   27  C20 UNL     1      28.561  10.631  48.900  1.00  0.00     0.310 C 
HETATM   28  C21 UNL     1      27.549   8.573  49.565  1.00  0.00     0.291 C 
HETATM   29  C22 UNL     1      27.160   7.414  48.717  1.00  0.00     0.147 C 
ENDBRANCH  22  23
ENDBRANCH  21  22
ENDBRANCH  20  21
ENDBRANCH  18  20
BRANCH   1  30
HETATM   30  O1  UNL     1      26.268   1.611  52.146  1.00  0.00    -0.356 OA
HETATM   31  C1  UNL     1      27.437   2.271  52.574  1.00  0.00     0.210 C 
ENDBRANCH   1  30
TORSDOF 5
ENDMDL
MODEL 2
REMARK VINA RESULT:      -8.2      4.041      7.203
REMARK  5 active torsions:
REMARK  status: ('A' for Active; 'I' for Inactive)
REMARK    1  A    between atoms: O1_2  and  C2_3 
REMARK    2  A    between atoms: C14_20  and  C15_21 
REMARK    3  A    between atoms: C15_21  and  C16_22 
REMARK    4  A    between atoms: C16_22  and  C17_23 
REMARK    5  A    between atoms: C17_23  and  N4_24 
ROOT
HETATM    1  C2  UNL     1      21.513   1.971  51.841  1.00  0.00     0.072 C 
HETATM    2  C3  UNL     1      21.184   2.810  50.879  1.00  0.00     0.039 C 
HETATM    3  C4  UNL     1      20.323   3.436  49.896  1.00  0.00     0.329 C 
HETATM    4  N1  UNL     1      20.965   4.365  49.272  1.00  0.00    -0.398 NA
HETATM    5  C5  UNL     1      20.413   5.184  48.239  1.00  0.00     0.215 C 
HETATM    6  N2  UNL     1      21.044   6.243  47.920  1.00  0.00    -0.171 NA
HETATM    7  N3  UNL     1      22.220   6.764  48.420  1.00  0.00    -0.274 N 
HETATM    8  C6  UNL     1      22.931   6.063  49.450  1.00  0.00     0.088 A 
HETATM    9  C7  UNL     1      23.562   5.138  48.657  1.00  0.00     0.035 A 
HETATM   10  C8  UNL     1      24.239   4.287  49.558  1.00  0.00     0.011 A 
HETATM   11  C9  UNL     1      24.190   4.467  50.938  1.00  0.00    -0.037 A 
HETATM   12  C10 UNL     1      23.503   5.469  51.603  1.00  0.00     0.053 A 
HETATM   13  C11 UNL     1      22.827   6.323  50.764  1.00  0.00     0.144 A 
HETATM   14  F1  UNL     1      22.065   7.393  51.082  1.00  0.00    -0.204 F 
HETATM   15  C12 UNL     1      24.810   3.438  51.879  1.00  0.00     0.114 C 
HETATM   16 BR1  UNL     1      26.230   2.586  50.884  1.00  0.00    -0.082 Br
HETATM   17  C13 UNL     1      23.818   2.485  52.360  1.00  0.00     0.003 C 
HETATM   18  C14 UNL     1      22.748   1.720  52.626  1.00  0.00    -0.027 C 
HETATM   19  H7  UNL     1      21.731   7.281  47.686  1.00  0.00     0.189 HD
ENDROOT
BRANCH  18  20
HETATM   20  C15 UNL     1      22.392   0.598  53.484  1.00  0.00     0.043 C 
BRANCH  20  21
HETATM   21  C16 UNL     1      23.263  -0.621  53.345  1.00  0.00     0.024 C 
BRANCH  21  22
HETATM   22  C17 UNL     1      24.361  -0.758  54.332  1.00  0.00     0.117 C 
BRANCH  22  23
HETATM   23  N4  UNL     1      25.638  -0.302  53.825  1.00  0.00    -0.409 N 
HETATM   24  C18 UNL     1      26.381  -1.246  53.073  1.00  0.00     0.147 C 
HETATM   25  C19 UNL     1      27.756  -0.738  52.743  1.00  0.00     0.291 C 
HETATM   26  N5  UNL     1      28.470  -0.474  53.952  1.00  0.00     0.087 N 
HETATM   27  C20 UNL     1      29.664   0.278  53.588  1.00  0.00     0.310 C 
HETATM   28  C21 UNL     1      27.744   0.155  55.001  1.00  0.00     0.291 C 
HETATM   29  C22 UNL     1      26.343   0.558  54.701  1.00  0.00     0.147 C 
ENDBRANCH  22  23
ENDBRANCH  21  22
ENDBRANCH  20  21
ENDBRANCH  18  20
BRANCH   1  30
HETATM   30  O1  UNL     1      20.201   1.645  51.593  1.00  0.00    -0.356 OA
HETATM   31  C1  UNL     1      19.819   0.307  51.379  1.00  0.00     0.210 C 
ENDBRANCH   1  30
TORSDOF 5
ENDMDL
MODEL 3
REMARK VINA RESULT:      -8.2      4.759      8.320
REMARK  5 active torsions:
REMARK  status: ('A' for Active; 'I' for Inactive)
REMARK    1  A    between atoms: O1_2  and  C2_3 
REMARK    2  A    between atoms: C14_20  and  C15_21 
REMARK    3  A    between atoms: C15_21  and  C16_22 
REMARK    4  A    between atoms: C16_22  and  C17_23 
REMARK    5  A    between atoms: C17_23  and  N4_24 
ROOT
HETATM    1  C2  UNL     1      21.830  -0.093  52.700  1.00  0.00     0.072 C 
HETATM    2  C3  UNL     1      22.982  -0.137  53.339  1.00  0.00     0.039 C 
HETATM    3  C4  UNL     1      24.004  -0.693  54.203  1.00  0.00     0.329 C 
HETATM    4  N1  UNL     1      25.013   0.108  54.269  1.00  0.00    -0.398 NA
HETATM    5  C5  UNL     1      26.196  -0.133  55.033  1.00  0.00     0.215 C 
HETATM    6  N2  UNL     1      27.222   0.579  54.779  1.00  0.00    -0.171 NA
HETATM    7  N3  UNL     1      27.400   1.587  53.853  1.00  0.00    -0.274 N 
HETATM    8  C6  UNL     1      26.310   1.983  53.010  1.00  0.00     0.088 A 
HETATM    9  C7  UNL     1      25.652   2.788  53.906  1.00  0.00     0.035 A 
HETATM   10  C8  UNL     1      24.471   3.185  53.242  1.00  0.00     0.011 A 
HETATM   11  C9  UNL     1      24.165   2.770  51.948  1.00  0.00    -0.037 A 
HETATM   12  C10 UNL     1      24.944   1.946  51.153  1.00  0.00     0.053 A 
HETATM   13  C11 UNL     1      26.106   1.535  51.759  1.00  0.00     0.144 A 
HETATM   14  F1  UNL     1      27.078   0.734  51.270  1.00  0.00    -0.204 F 
HETATM   15  C12 UNL     1      22.809   3.097  51.327  1.00  0.00     0.114 C 
HETATM   16 BR1  UNL     1      22.202   4.718  52.186  1.00  0.00    -0.082 Br
HETATM   17  C13 UNL     1      21.868   1.996  51.484  1.00  0.00     0.003 C 
HETATM   18  C14 UNL     1      21.184   0.882  51.785  1.00  0.00    -0.027 C 
HETATM   19  H7  UNL     1      28.192   1.321  54.443  1.00  0.00     0.189 HD
ENDROOT
BRANCH  18  20
HETATM   20  C15 UNL     1      19.882   0.290  51.511  1.00  0.00     0.043 C 
BRANCH  20  21
HETATM   21  C16 UNL     1      19.328   0.561  50.138  1.00  0.00     0.024 C 
BRANCH  21  22
HETATM   22  C17 UNL     1      18.612   1.848  49.963  1.00  0.00     0.117 C 
BRANCH  22  23
HETATM   23  N4  UNL     1      17.717   2.152  51.060  1.00  0.00    -0.409 N 
HETATM   24  C18 UNL     1      16.410   1.614  50.962  1.00  0.00     0.147 C 
HETATM   25  C19 UNL     1      15.513   2.127  52.054  1.00  0.00     0.291 C 
HETATM   26  N5  UNL     1      15.415   3.549  51.961  1.00  0.00     0.087 N 
HETATM   27  C20 UNL     1      14.787   4.014  53.191  1.00  0.00     0.310 C 
HETATM   28  C21 UNL     1      16.615   4.257  51.675  1.00  0.00     0.291 C 
HETATM   29  C22 UNL     1      17.866   3.454  51.592  1.00  0.00     0.147 C 
ENDBRANCH  22  23
ENDBRANCH  21  22
ENDBRANCH  20  21
ENDBRANCH  18  20
BRANCH   1  30
HETATM   30  O1  UNL     1      21.761  -1.295  53.361  1.00  0.00    -0.356 OA
HETATM   31  C1  UNL     1      20.707  -1.568  54.255  1.00  0.00     0.210 C 
ENDBRANCH   1  30
TORSDOF 5
ENDMDL
MODEL 4
REMARK VINA RESULT:      -8.0      4.382      6.418
REMARK  5 active torsions:
REMARK  status: ('A' for Active; 'I' for Inactive)
REMARK    1  A    between atoms: O1_2  and  C2_3 
REMARK    2  A    between atoms: C14_20  and  C15_21 
REMARK    3  A    between atoms: C15_21  and  C16_22 
REMARK    4  A    between atoms: C16_22  and  C17_23 
REMARK    5  A    between atoms: C17_23  and  N4_24 
ROOT
HETATM    1  C2  UNL     1      21.603   0.307  52.492  1.00  0.00     0.072 C 
HETATM    2  C3  UNL     1      22.668  -0.013  53.200  1.00  0.00     0.039 C 
HETATM    3  C4  UNL     1      23.475  -0.807  54.104  1.00  0.00     0.329 C 
HETATM    4  N1  UNL     1      24.632  -0.257  54.264  1.00  0.00    -0.398 NA
HETATM    5  C5  UNL     1      25.674  -0.778  55.091  1.00  0.00     0.215 C 
HETATM    6  N2  UNL     1      26.849  -0.312  54.930  1.00  0.00    -0.171 NA
HETATM    7  N3  UNL     1      27.313   0.651  54.057  1.00  0.00    -0.274 N 
HETATM    8  C6  UNL     1      26.401   1.305  53.164  1.00  0.00     0.088 A 
HETATM    9  C7  UNL     1      25.881   2.216  54.047  1.00  0.00     0.035 A 
HETATM   10  C8  UNL     1      24.868   2.886  53.327  1.00  0.00     0.011 A 
HETATM   11  C9  UNL     1      24.568   2.583  52.000  1.00  0.00    -0.037 A 
HETATM   12  C10 UNL     1      25.196   1.623  51.224  1.00  0.00     0.053 A 
HETATM   13  C11 UNL     1      26.191   0.944  51.886  1.00  0.00     0.144 A 
HETATM   14  F1  UNL     1      26.990  -0.045  51.427  1.00  0.00    -0.204 F 
HETATM   15  C12 UNL     1      23.368   3.224  51.309  1.00  0.00     0.114 C 
HETATM   16 BR1  UNL     1      23.082   4.919  52.190  1.00  0.00    -0.082 Br
HETATM   17  C13 UNL     1      22.194   2.362  51.363  1.00  0.00     0.003 C 
HETATM   18  C14 UNL     1      21.258   1.425  51.578  1.00  0.00    -0.027 C 
HETATM   19  H7  UNL     1      27.982   0.199  54.685  1.00  0.00     0.189 HD
ENDROOT
BRANCH  18  20
HETATM   20  C15 UNL     1      19.879   1.150  51.199  1.00  0.00     0.043 C 
BRANCH  20  21
HETATM   21  C16 UNL     1      19.602   1.166  49.719  1.00  0.00     0.024 C 
BRANCH  21  22
HETATM   22  C17 UNL     1      18.880   2.352  49.200  1.00  0.00     0.117 C 
BRANCH  22  23
HETATM   23  N4  UNL     1      19.709   3.204  48.374  1.00  0.00    -0.409 N 
HETATM   24  C18 UNL     1      20.908   2.624  47.892  1.00  0.00     0.147 C 
HETATM   25  C19 UNL     1      21.776   3.635  47.196  1.00  0.00     0.291 C 
HETATM   26  N5  UNL     1      22.124   4.674  48.112  1.00  0.00     0.087 N 
HETATM   27  C20 UNL     1      22.708   5.755  47.328  1.00  0.00     0.310 C 
HETATM   28  C21 UNL     1      21.094   5.139  48.976  1.00  0.00     0.291 C 
HETATM   29  C22 UNL     1      19.738   4.560  48.776  1.00  0.00     0.147 C 
ENDBRANCH  22  23
ENDBRANCH  21  22
ENDBRANCH  20  21
ENDBRANCH  18  20
BRANCH   1  30
HETATM   30  O1  UNL     1      21.219  -0.864  53.100  1.00  0.00    -0.356 OA
HETATM   31  C1  UNL     1      20.033  -0.928  53.857  1.00  0.00     0.210 C 
ENDBRANCH   1  30
TORSDOF 5
ENDMDL
MODEL 5
REMARK VINA RESULT:      -8.0      1.919      2.565
REMARK  5 active torsions:
REMARK  status: ('A' for Active; 'I' for Inactive)
REMARK    1  A    between atoms: O1_2  and  C2_3 
REMARK    2  A    between atoms: C14_20  and  C15_21 
REMARK    3  A    between atoms: C15_21  and  C16_22 
REMARK    4  A    between atoms: C16_22  and  C17_23 
REMARK    5  A    between atoms: C17_23  and  N4_24 
ROOT
HETATM    1  C2  UNL     1      25.268   2.541  51.388  1.00  0.00     0.072 C 
HETATM    2  C3  UNL     1      24.456   1.768  52.081  1.00  0.00     0.039 C 
HETATM    3  C4  UNL     1      24.053   0.896  53.166  1.00  0.00     0.329 C 
HETATM    4  N1  UNL     1      22.825   0.532  53.009  1.00  0.00    -0.398 NA
HETATM    5  C5  UNL     1      22.110  -0.328  53.899  1.00  0.00     0.215 C 
HETATM    6  N2  UNL     1      20.841  -0.367  53.795  1.00  0.00    -0.171 NA
HETATM    7  N3  UNL     1      19.997   0.308  52.936  1.00  0.00    -0.274 N 
HETATM    8  C6  UNL     1      20.540   1.200  51.954  1.00  0.00     0.088 A 
HETATM    9  C7  UNL     1      20.905   0.264  51.019  1.00  0.00     0.035 A 
HETATM   10  C8  UNL     1      21.565   0.995  50.008  1.00  0.00     0.011 A 
HETATM   11  C9  UNL     1      21.738   2.376  50.075  1.00  0.00    -0.037 A 
HETATM   12  C10 UNL     1      21.302   3.201  51.099  1.00  0.00     0.053 A 
HETATM   13  C11 UNL     1      20.653   2.530  52.107  1.00  0.00     0.144 A 
HETATM   14  F1  UNL     1      20.110   3.027  53.241  1.00  0.00    -0.204 F 
HETATM   15  C12 UNL     1      22.588   3.104  49.037  1.00  0.00     0.114 C 
HETATM   16 BR1  UNL     1      22.506   2.036  47.430  1.00  0.00    -0.082 Br
HETATM   17  C13 UNL     1      23.954   3.302  49.506  1.00  0.00     0.003 C 
HETATM   18  C14 UNL     1      25.139   3.326  50.134  1.00  0.00    -0.027 C 
HETATM   19  H7  UNL     1      19.586  -0.324  53.628  1.00  0.00     0.189 HD
ENDROOT
BRANCH  18  20
HETATM   20  C15 UNL     1      26.467   3.893  49.942  1.00  0.00     0.043 C 
BRANCH  20  21
HETATM   21  C16 UNL     1      26.595   4.859  48.795  1.00  0.00     0.024 C 
BRANCH  21  22
HETATM   22  C17 UNL     1      26.895   6.266  49.154  1.00  0.00     0.117 C 
BRANCH  22  23
HETATM   23  N4  UNL     1      25.707   7.086  49.275  1.00  0.00    -0.409 N 
HETATM   24  C18 UNL     1      25.111   7.128  50.560  1.00  0.00     0.147 C 
HETATM   25  C19 UNL     1      23.798   7.858  50.541  1.00  0.00     0.291 C 
HETATM   26  N5  UNL     1      22.896   7.193  49.655  1.00  0.00     0.087 N 
HETATM   27  C20 UNL     1      21.762   8.086  49.451  1.00  0.00     0.310 C 
HETATM   28  C21 UNL     1      23.434   6.725  48.425  1.00  0.00     0.291 C 
HETATM   29  C22 UNL     1      24.857   7.056  48.145  1.00  0.00     0.147 C 
ENDBRANCH  22  23
ENDBRANCH  21  22
ENDBRANCH  20  21
ENDBRANCH  18  20
BRANCH   1  30
HETATM   30  O1  UNL     1      26.056   2.147  52.442  1.00  0.00    -0.356 OA
HETATM   31  C1  UNL     1      27.312   1.549  52.220  1.00  0.00     0.210 C 
ENDBRANCH   1  30
TORSDOF 5
ENDMDL
MODEL 6
REMARK VINA RESULT:      -8.0      3.996      5.824
REMARK  5 active torsions:
REMARK  status: ('A' for Active; 'I' for Inactive)
REMARK    1  A    between atoms: O1_2  and  C2_3 
REMARK    2  A    between atoms: C14_20  and  C15_21 
REMARK    3  A    between atoms: C15_21  and  C16_22 
REMARK    4  A    between atoms: C16_22  and  C17_23 
REMARK    5  A    between atoms: C17_23  and  N4_24 
ROOT
HETATM    1  C2  UNL     1      21.862   0.403  51.629  1.00  0.00     0.072 C 
HETATM    2  C3  UNL     1      22.544   0.007  52.685  1.00  0.00     0.039 C 
HETATM    3  C4  UNL     1      22.807  -0.749  53.893  1.00  0.00     0.329 C 
HETATM    4  N1  UNL     1      23.965  -0.438  54.368  1.00  0.00    -0.398 NA
HETATM    5  C5  UNL     1      24.538  -0.999  55.551  1.00  0.00     0.215 C 
HETATM    6  N2  UNL     1      25.787  -0.834  55.741  1.00  0.00    -0.171 NA
HETATM    7  N3  UNL     1      26.727  -0.181  54.970  1.00  0.00    -0.274 N 
HETATM    8  C6  UNL     1      26.329   0.466  53.754  1.00  0.00     0.088 A 
HETATM    9  C7  UNL     1      25.830   1.621  54.300  1.00  0.00     0.035 A 
HETATM   10  C8  UNL     1      25.292   2.338  53.209  1.00  0.00     0.011 A 
HETATM   11  C9  UNL     1      25.331   1.853  51.903  1.00  0.00    -0.037 A 
HETATM   12  C10 UNL     1      25.883   0.650  51.499  1.00  0.00     0.053 A 
HETATM   13  C11 UNL     1      26.420  -0.083  52.530  1.00  0.00     0.144 A 
HETATM   14  F1  UNL     1      27.027  -1.290  52.483  1.00  0.00    -0.204 F 
HETATM   15  C12 UNL     1      24.604   2.589  50.780  1.00  0.00     0.114 C 
HETATM   16 BR1  UNL     1      24.529   4.444  51.313  1.00  0.00    -0.082 Br
HETATM   17  C13 UNL     1      23.283   2.024  50.536  1.00  0.00     0.003 C 
HETATM   18  C14 UNL     1      22.113   1.368  50.530  1.00  0.00    -0.027 C 
HETATM   19  H7  UNL     1      27.035  -0.634  55.834  1.00  0.00     0.189 HD
ENDROOT
BRANCH  18  20
HETATM   20  C15 UNL     1      20.887   1.326  49.744  1.00  0.00     0.043 C 
BRANCH  20  21
HETATM   21  C16 UNL     1      20.801   2.334  48.630  1.00  0.00     0.024 C 
BRANCH  21  22
HETATM   22  C17 UNL     1      20.153   3.625  48.963  1.00  0.00     0.117 C 
BRANCH  22  23
HETATM   23  N4  UNL     1      21.079   4.603  49.494  1.00  0.00    -0.409 N 
HETATM   24  C18 UNL     1      20.528   5.565  50.376  1.00  0.00     0.147 C 
HETATM   25  C19 UNL     1      21.526   6.631  50.732  1.00  0.00     0.291 C 
HETATM   26  N5  UNL     1      21.945   7.307  49.546  1.00  0.00     0.087 N 
HETATM   27  C20 UNL     1      23.105   8.114  49.901  1.00  0.00     0.310 C 
HETATM   28  C21 UNL     1      22.189   6.499  48.400  1.00  0.00     0.291 C 
HETATM   29  C22 UNL     1      22.072   5.027  48.579  1.00  0.00     0.147 C 
ENDBRANCH  22  23
ENDBRANCH  21  22
ENDBRANCH  20  21
ENDBRANCH  18  20
BRANCH   1  30
HETATM   30  O1  UNL     1      21.019  -0.519  52.204  1.00  0.00    -0.356 OA
HETATM   31  C1  UNL     1      19.729  -0.148  52.631  1.00  0.00     0.210 C 
ENDBRANCH   1  30
TORSDOF 5
ENDMDL
MODEL 7
REMARK VINA RESULT:      -7.9      3.920      5.652
REMARK  5 active torsions:
REMARK  status: ('A' for Active; 'I' for Inactive)
REMARK    1  A    between atoms: O1_2  and  C2_3 
REMARK    2  A    between atoms: C14_20  and  C15_21 
REMARK    3  A    between atoms: C15_21  and  C16_22 
REMARK    4  A    between atoms: C16_22  and  C17_23 
REMARK    5  A    between atoms: C17_23  and  N4_24 
ROOT
HETATM    1  C2  UNL     1      26.164   6.533  48.833  1.00  0.00     0.072 C 
HETATM    2  C3  UNL     1      24.933   6.644  49.291  1.00  0.00     0.039 C 
HETATM    3  C4  UNL     1      23.683   7.309  49.600  1.00  0.00     0.329 C 
HETATM    4  N1  UNL     1      22.865   6.478  50.152  1.00  0.00    -0.398 NA
HETATM    5  C5  UNL     1      21.541   6.803  50.582  1.00  0.00     0.215 C 
HETATM    6  N2  UNL     1      20.744   5.840  50.830  1.00  0.00    -0.171 NA
HETATM    7  N3  UNL     1      20.943   4.477  50.750  1.00  0.00    -0.274 N 
HETATM    8  C6  UNL     1      22.222   3.963  50.357  1.00  0.00     0.088 A 
HETATM    9  C7  UNL     1      22.862   4.085  51.565  1.00  0.00     0.035 A 
HETATM   10  C8  UNL     1      24.198   3.705  51.310  1.00  0.00     0.011 A 
HETATM   11  C9  UNL     1      24.636   3.309  50.048  1.00  0.00    -0.037 A 
HETATM   12  C10 UNL     1      23.857   3.229  48.906  1.00  0.00     0.053 A 
HETATM   13  C11 UNL     1      22.547   3.591  49.107  1.00  0.00     0.144 A 
HETATM   14  F1  UNL     1      21.533   3.628  48.214  1.00  0.00    -0.204 F 
HETATM   15  C12 UNL     1      26.117   3.053  49.784  1.00  0.00     0.114 C 
HETATM   16 BR1  UNL     1      26.882   2.531  51.480  1.00  0.00    -0.082 Br
HETATM   17  C13 UNL     1      26.771   4.225  49.215  1.00  0.00     0.003 C 
HETATM   18  C14 UNL     1      27.147   5.424  48.747  1.00  0.00    -0.027 C 
HETATM   19  H7  UNL     1      20.022   4.820  51.033  1.00  0.00     0.189 HD
ENDROOT
BRANCH  18  20
HETATM   20  C15 UNL     1      28.328   6.051  48.168  1.00  0.00     0.043 C 
BRANCH  20  21
HETATM   21  C16 UNL     1      29.568   5.198  48.154  1.00  0.00     0.024 C 
BRANCH  21  22
HETATM   22  C17 UNL     1      30.837   5.882  48.498  1.00  0.00     0.117 C 
BRANCH  22  23
HETATM   23  N4  UNL     1      32.010   5.095  48.179  1.00  0.00    -0.409 N 
HETATM   24  C18 UNL     1      33.246   5.786  48.198  1.00  0.00     0.147 C 
HETATM   25  C19 UNL     1      34.372   4.931  47.687  1.00  0.00     0.291 C 
HETATM   26  N5  UNL     1      34.101   4.543  46.339  1.00  0.00     0.087 N 
HETATM   27  C20 UNL     1      35.056   3.497  45.996  1.00  0.00     0.310 C 
HETATM   28  C21 UNL     1      32.764   4.163  46.037  1.00  0.00     0.291 C 
HETATM   29  C22 UNL     1      31.805   4.120  47.174  1.00  0.00     0.147 C 
ENDBRANCH  22  23
ENDBRANCH  21  22
ENDBRANCH  20  21
ENDBRANCH  18  20
BRANCH   1  30
HETATM   30  O1  UNL     1      25.867   7.852  48.583  1.00  0.00    -0.356 OA
HETATM   31  C1  UNL     1      25.997   8.387  47.286  1.00  0.00     0.210 C 
ENDBRANCH   1  30
TORSDOF 5
ENDMDL
MODEL 8
REMARK VINA RESULT:      -7.8      2.306      3.627
REMARK  5 active torsions:
REMARK  status: ('A' for Active; 'I' for Inactive)
REMARK    1  A    between atoms: O1_2  and  C2_3 
REMARK    2  A    between atoms: C14_20  and  C15_21 
REMARK    3  A    between atoms: C15_21  and  C16_22 
REMARK    4  A    between atoms: C16_22  and  C17_23 
REMARK    5  A    between atoms: C17_23  and  N4_24 
ROOT
HETATM    1  C2  UNL     1      26.439   5.244  49.044  1.00  0.00     0.072 C 
HETATM    2  C3  UNL     1      26.274   4.151  49.762  1.00  0.00     0.039 C 
HETATM    3  C4  UNL     1      26.662   2.920  50.421  1.00  0.00     0.329 C 
HETATM    4  N1  UNL     1      25.644   2.397  51.017  1.00  0.00    -0.398 NA
HETATM    5  C5  UNL     1      25.675   1.180  51.765  1.00  0.00     0.215 C 
HETATM    6  N2  UNL     1      24.695   0.934  52.540  1.00  0.00    -0.171 NA
HETATM    7  N3  UNL     1      23.556   1.670  52.797  1.00  0.00    -0.274 N 
HETATM    8  C6  UNL     1      23.341   2.914  52.117  1.00  0.00     0.088 A 
HETATM    9  C7  UNL     1      22.866   2.410  50.932  1.00  0.00     0.035 A 
HETATM   10  C8  UNL     1      22.700   3.536  50.097  1.00  0.00     0.011 A 
HETATM   11  C9  UNL     1      22.995   4.831  50.519  1.00  0.00    -0.037 A 
HETATM   12  C10 UNL     1      23.469   5.189  51.769  1.00  0.00     0.053 A 
HETATM   13  C11 UNL     1      23.647   4.123  52.617  1.00  0.00     0.144 A 
HETATM   14  F1  UNL     1      24.093   4.123  53.893  1.00  0.00    -0.204 F 
HETATM   15  C12 UNL     1      22.945   5.998  49.537  1.00  0.00     0.114 C 
HETATM   16 BR1  UNL     1      21.673   5.498  48.171  1.00  0.00    -0.082 Br
HETATM   17  C13 UNL     1      24.263   6.295  48.989  1.00  0.00     0.003 C 
HETATM   18  C14 UNL     1      25.547   6.345  48.603  1.00  0.00    -0.027 C 
HETATM   19  H7  UNL     1      23.687   0.786  53.294  1.00  0.00     0.189 HD
ENDROOT
BRANCH  18  20
HETATM   20  C15 UNL     1      26.411   7.187  47.787  1.00  0.00     0.043 C 
BRANCH  20  21
HETATM   21  C16 UNL     1      26.600   8.593  48.288  1.00  0.00     0.024 C 
BRANCH  21  22
HETATM   22  C17 UNL     1      27.328   8.739  49.572  1.00  0.00     0.117 C 
BRANCH  22  23
HETATM   23  N4  UNL     1      28.501   9.581  49.466  1.00  0.00    -0.409 N 
HETATM   24  C18 UNL     1      28.285  10.884  48.953  1.00  0.00     0.147 C 
HETATM   25  C19 UNL     1      29.579  11.613  48.719  1.00  0.00     0.291 C 
HETATM   26  N5  UNL     1      30.369  10.890  47.775  1.00  0.00     0.087 N 
HETATM   27  C20 UNL     1      31.706  11.469  47.805  1.00  0.00     0.310 C 
HETATM   28  C21 UNL     1      30.400   9.475  47.913  1.00  0.00     0.291 C 
HETATM   29  C22 UNL     1      29.680   8.899  49.082  1.00  0.00     0.147 C 
ENDBRANCH  22  23
ENDBRANCH  21  22
ENDBRANCH  20  21
ENDBRANCH  18  20
BRANCH   1  30
HETATM   30  O1  UNL     1      27.699   4.695  49.052  1.00  0.00    -0.356 OA
HETATM   31  C1  UNL     1      28.747   5.284  48.318  1.00  0.00     0.210 C 
ENDBRANCH   1  30
TORSDOF 5
ENDMDL
MODEL 9
REMARK VINA RESULT:      -7.8      8.535     11.747
REMARK  5 active torsions:
REMARK  status: ('A' for Active; 'I' for Inactive)
REMARK    1  A    between atoms: O1_2  and  C2_3 
REMARK    2  A    between atoms: C14_20  and  C15_21 
REMARK    3  A    between atoms: C15_21  and  C16_22 
REMARK    4  A    between atoms: C16_22  and  C17_23 
REMARK    5  A    between atoms: C17_23  and  N4_24 
ROOT
HETATM    1  C2  UNL     1      33.196   6.388  44.436  1.00  0.00     0.072 C 
HETATM    2  C3  UNL     1      32.684   7.210  45.330  1.00  0.00     0.039 C 
HETATM    3  C4  UNL     1      32.173   8.464  45.846  1.00  0.00     0.329 C 
HETATM    4  N1  UNL     1      31.812   8.322  47.076  1.00  0.00    -0.398 NA
HETATM    5  C5  UNL     1      31.262   9.361  47.889  1.00  0.00     0.215 C 
HETATM    6  N2  UNL     1      30.677   9.024  48.969  1.00  0.00    -0.171 NA
HETATM    7  N3  UNL     1      30.471   7.774  49.517  1.00  0.00    -0.274 N 
HETATM    8  C6  UNL     1      30.976   6.609  48.851  1.00  0.00     0.088 A 
HETATM    9  C7  UNL     1      32.278   6.689  49.276  1.00  0.00     0.035 A 
HETATM   10  C8  UNL     1      32.946   5.642  48.606  1.00  0.00     0.011 A 
HETATM   11  C9  UNL     1      32.294   4.781  47.725  1.00  0.00    -0.037 A 
HETATM   12  C10 UNL     1      30.950   4.822  47.394  1.00  0.00     0.053 A 
HETATM   13  C11 UNL     1      30.259   5.829  48.024  1.00  0.00     0.144 A 
HETATM   14  F1  UNL     1      28.949   6.146  47.925  1.00  0.00    -0.204 F 
HETATM   15  C12 UNL     1      33.083   3.762  46.908  1.00  0.00     0.114 C 
HETATM   16 BR1  UNL     1      34.672   3.365  47.933  1.00  0.00    -0.082 Br
HETATM   17  C13 UNL     1      33.391   4.265  45.575  1.00  0.00     0.003 C 
HETATM   18  C14 UNL     1      33.583   4.954  44.441  1.00  0.00    -0.027 C 
HETATM   19  H7  UNL     1      30.101   8.590  50.011  1.00  0.00     0.189 HD
ENDROOT
BRANCH  18  20
HETATM   20  C15 UNL     1      34.133   4.739  43.110  1.00  0.00     0.043 C 
BRANCH  20  21
HETATM   21  C16 UNL     1      33.117   4.544  42.016  1.00  0.00     0.024 C 
BRANCH  21  22
HETATM   22  C17 UNL     1      33.638   4.057  40.716  1.00  0.00     0.117 C 
BRANCH  22  23
HETATM   23  N4  UNL     1      32.593   3.797  39.749  1.00  0.00    -0.409 N 
HETATM   24  C18 UNL     1      31.465   4.652  39.808  1.00  0.00     0.147 C 
HETATM   25  C19 UNL     1      30.369   4.195  38.887  1.00  0.00     0.291 C 
HETATM   26  N5  UNL     1      29.950   2.881  39.260  1.00  0.00     0.087 N 
HETATM   27  C20 UNL     1      29.112   2.378  38.179  1.00  0.00     0.310 C 
HETATM   28  C21 UNL     1      30.972   1.958  39.615  1.00  0.00     0.291 C 
HETATM   29  C22 UNL     1      32.378   2.426  39.473  1.00  0.00     0.147 C 
ENDBRANCH  22  23
ENDBRANCH  21  22
ENDBRANCH  20  21
ENDBRANCH  18  20
BRANCH   1  30
HETATM   30  O1  UNL     1      33.098   7.568  43.738  1.00  0.00    -0.356 OA
HETATM   31  C1  UNL     1      34.232   8.146  43.135  1.00  0.00     0.210 C 
ENDBRANCH   1  30
TORSDOF 5
ENDMDL
