MODEL 1
REMARK VINA RESULT:      -7.8      0.000      0.000
REMARK  3 active torsions:
REMARK  status: ('A' for Active; 'I' for Inactive)
REMARK    1  A    between atoms: C10_12  and  O1_13 
REMARK    2  A    between atoms: C14_18  and  C16_20 
REMARK    3  A    between atoms: C16_20  and  N3_21 
ROOT
HETATM    1  C1  UNL     1      27.096  -1.938  52.687  1.00  0.00     0.013 C 
HETATM    2  C2  UNL     1      26.377  -1.267  53.383  1.00  0.00    -0.100 C 
HETATM    3  C3  UNL     1      25.539  -0.473  54.227  1.00  0.00     0.144 C 
HETATM    4  C4  UNL     1      24.155  -0.687  54.132  1.00  0.00    -0.086 C 
HETATM    5  C5  UNL     1      23.064  -0.834  54.047  1.00  0.00    -0.066 C 
HETATM    6  C6  UNL     1      21.684  -0.993  53.929  1.00  0.00     0.171 A 
HETATM    7  N1  UNL     1      20.749  -0.274  53.409  1.00  0.00    -0.336 N 
HETATM    8  C7  UNL     1      19.443  -0.731  53.458  1.00  0.00     0.666 C 
HETATM    9  N2  UNL     1      19.324  -0.260  52.290  1.00  0.00    -0.108 NA
HETATM   10  C8  UNL     1      20.174   0.401  51.430  1.00  0.00     0.525 C 
HETATM   11  C9  UNL     1      20.910   1.030  50.556  1.00  0.00     0.061 C 
HETATM   12  C10 UNL     1      22.215   1.597  50.260  1.00  0.00     0.065 C 
HETATM   13  C11 UNL     1      23.417   1.772  50.793  1.00  0.00     0.042 C 
HETATM   14  C12 UNL     1      23.747   1.303  52.137  1.00  0.00     0.159 C 
HETATM   15  O2  UNL     1      22.560   1.373  52.858  1.00  0.00    -0.362 OA
HETATM   16  C13 UNL     1      22.231   0.249  53.319  1.00  0.00     0.298 A 
HETATM   17  C14 UNL     1      25.102   1.556  52.663  1.00  0.00     0.003 C 
HETATM   18  C15 UNL     1      26.028   1.014  51.583  1.00  0.00     0.020 C 
HETATM   19  C17 UNL     1      25.677   1.073  53.907  1.00  0.00     0.043 C 
ENDROOT
BRANCH  17  20
HETATM   20  C16 UNL     1      25.305   3.035  52.733  1.00  0.00     0.123 C 
BRANCH  20  21
HETATM   21  N3  UNL     1      24.375   3.816  53.458  1.00  0.00    -0.429 N 
HETATM   22  H16 UNL     1      23.485   3.376  53.702  1.00  0.00     0.149 HD
HETATM   23  H17 UNL     1      24.778   4.480  54.137  1.00  0.00     0.149 HD
ENDBRANCH  20  21
ENDBRANCH  17  20
BRANCH  12  24
HETATM   24  O1  UNL     1      22.266   2.167  48.984  1.00  0.00    -0.361 OA
HETATM   25  H6  UNL     1      23.205   2.457  48.700  1.00  0.00     0.217 HD
ENDBRANCH  12  24
TORSDOF 3
ENDMDL
MODEL 2
REMARK VINA RESULT:      -7.3      2.526      3.541
REMARK  3 active torsions:
REMARK  status: ('A' for Active; 'I' for Inactive)
REMARK    1  A    between atoms: C10_12  and  O1_13 
REMARK    2  A    between atoms: C14_18  and  C16_20 
REMARK    3  A    between atoms: C16_20  and  N3_21 
ROOT
HETATM    1  C1  UNL     1      26.854  -2.449  52.399  1.00  0.00     0.013 C 
HETATM    2  C2  UNL     1      26.243  -1.590  52.982  1.00  0.00    -0.100 C 
HETATM    3  C3  UNL     1      25.518  -0.584  53.694  1.00  0.00     0.144 C 
HETATM    4  C4  UNL     1      24.510   0.092  52.988  1.00  0.00    -0.086 C 
HETATM    5  C5  UNL     1      23.730   0.643  52.434  1.00  0.00    -0.066 C 
HETATM    6  C6  UNL     1      22.762   1.363  51.736  1.00  0.00     0.171 A 
HETATM    7  N1  UNL     1      22.712   2.565  51.271  1.00  0.00    -0.336 N 
HETATM    8  C7  UNL     1      21.572   2.981  50.605  1.00  0.00     0.666 C 
HETATM    9  N2  UNL     1      22.355   3.592  49.822  1.00  0.00    -0.108 NA
HETATM   10  C8  UNL     1      23.724   3.726  49.745  1.00  0.00     0.525 C 
HETATM   11  C9  UNL     1      25.009   3.904  49.599  1.00  0.00     0.061 C 
HETATM   12  C10 UNL     1      26.336   3.611  50.113  1.00  0.00     0.065 C 
HETATM   13  C11 UNL     1      26.951   2.950  51.086  1.00  0.00     0.042 C 
HETATM   14  C12 UNL     1      26.215   2.189  52.095  1.00  0.00     0.159 C 
HETATM   15  O2  UNL     1      25.003   2.854  52.252  1.00  0.00    -0.362 OA
HETATM   16  C13 UNL     1      24.026   2.100  52.001  1.00  0.00     0.298 A 
HETATM   17  C14 UNL     1      26.975   1.501  53.155  1.00  0.00     0.003 C 
HETATM   18  C15 UNL     1      28.005   0.673  52.397  1.00  0.00     0.020 C 
HETATM   19  C17 UNL     1      26.462   0.596  54.170  1.00  0.00     0.043 C 
ENDROOT
BRANCH  17  20
HETATM   20  C16 UNL     1      27.714   2.532  53.944  1.00  0.00     0.123 C 
BRANCH  20  21
HETATM   21  N3  UNL     1      29.117   2.412  54.075  1.00  0.00    -0.429 N 
HETATM   22  H16 UNL     1      29.600   1.808  53.405  1.00  0.00     0.149 HD
HETATM   23  H17 UNL     1      29.613   3.259  54.392  1.00  0.00     0.149 HD
ENDBRANCH  20  21
ENDBRANCH  17  20
BRANCH  12  24
HETATM   24  O1  UNL     1      27.342   4.211  49.352  1.00  0.00    -0.361 OA
HETATM   25  H6  UNL     1      28.118   4.577  49.909  1.00  0.00     0.217 HD
ENDBRANCH  12  24
TORSDOF 3
ENDMDL
MODEL 3
REMARK VINA RESULT:      -7.2      2.268      5.689
REMARK  3 active torsions:
REMARK  status: ('A' for Active; 'I' for Inactive)
REMARK    1  A    between atoms: C10_12  and  O1_13 
REMARK    2  A    between atoms: C14_18  and  C16_20 
REMARK    3  A    between atoms: C16_20  and  N3_21 
ROOT
HETATM    1  C1  UNL     1      22.587   2.042  47.410  1.00  0.00     0.013 C 
HETATM    2  C2  UNL     1      22.973   2.764  48.294  1.00  0.00    -0.100 C 
HETATM    3  C3  UNL     1      23.424   3.641  49.329  1.00  0.00     0.144 C 
HETATM    4  C4  UNL     1      24.571   3.250  50.037  1.00  0.00    -0.086 C 
HETATM    5  C5  UNL     1      25.461   2.940  50.613  1.00  0.00    -0.066 C 
HETATM    6  C6  UNL     1      26.567   2.545  51.363  1.00  0.00     0.171 A 
HETATM    7  N1  UNL     1      26.711   2.096  52.564  1.00  0.00    -0.336 N 
HETATM    8  C7  UNL     1      27.981   1.786  53.018  1.00  0.00     0.666 C 
HETATM    9  N2  UNL     1      27.442   0.798  53.595  1.00  0.00    -0.108 NA
HETATM   10  C8  UNL     1      26.152   0.322  53.679  1.00  0.00     0.525 C 
HETATM   11  C9  UNL     1      24.962  -0.195  53.810  1.00  0.00     0.061 C 
HETATM   12  C10 UNL     1      23.553  -0.087  53.472  1.00  0.00     0.065 C 
HETATM   13  C11 UNL     1      22.702   0.673  52.795  1.00  0.00     0.042 C 
HETATM   14  C12 UNL     1      23.134   1.865  52.067  1.00  0.00     0.159 C 
HETATM   15  O2  UNL     1      24.225   2.359  52.775  1.00  0.00    -0.362 OA
HETATM   16  C13 UNL     1      25.256   2.417  52.056  1.00  0.00     0.298 A 
HETATM   17  C14 UNL     1      22.121   2.667  51.357  1.00  0.00     0.003 C 
HETATM   18  C15 UNL     1      21.386   1.655  50.489  1.00  0.00     0.020 C 
HETATM   19  C17 UNL     1      22.343   3.802  50.477  1.00  0.00     0.043 C 
ENDROOT
BRANCH  17  20
HETATM   20  C16 UNL     1      21.150   3.189  52.365  1.00  0.00     0.123 C 
BRANCH  20  21
HETATM   21  N3  UNL     1      19.887   3.646  51.920  1.00  0.00    -0.429 N 
HETATM   22  H16 UNL     1      19.741   4.657  51.883  1.00  0.00     0.149 HD
HETATM   23  H17 UNL     1      19.435   3.075  51.188  1.00  0.00     0.149 HD
ENDBRANCH  20  21
ENDBRANCH  17  20
BRANCH  12  24
HETATM   24  O1  UNL     1      22.794  -1.119  54.032  1.00  0.00    -0.361 OA
HETATM   25  H6  UNL     1      23.059  -2.050  53.704  1.00  0.00     0.217 HD
ENDBRANCH  12  24
TORSDOF 3
ENDMDL
MODEL 4
REMARK VINA RESULT:      -7.1      1.841      4.126
REMARK  3 active torsions:
REMARK  status: ('A' for Active; 'I' for Inactive)
REMARK    1  A    between atoms: C10_12  and  O1_13 
REMARK    2  A    between atoms: C14_18  and  C16_20 
REMARK    3  A    between atoms: C16_20  and  N3_21 
ROOT
HETATM    1  C1  UNL     1      23.817   5.101  53.192  1.00  0.00     0.013 C 
HETATM    2  C2  UNL     1      23.556   4.265  52.365  1.00  0.00    -0.100 C 
HETATM    3  C3  UNL     1      23.254   3.287  51.367  1.00  0.00     0.144 C 
HETATM    4  C4  UNL     1      22.066   2.558  51.530  1.00  0.00    -0.086 C 
HETATM    5  C5  UNL     1      21.143   1.965  51.662  1.00  0.00    -0.066 C 
HETATM    6  C6  UNL     1      19.996   1.193  51.834  1.00  0.00     0.171 A 
HETATM    7  N1  UNL     1      19.793  -0.032  52.179  1.00  0.00    -0.336 N 
HETATM    8  C7  UNL     1      18.494  -0.503  52.260  1.00  0.00     0.666 C 
HETATM    9  N2  UNL     1      18.878  -1.142  53.281  1.00  0.00    -0.108 NA
HETATM   10  C8  UNL     1      20.079  -1.257  53.946  1.00  0.00     0.525 C 
HETATM   11  C9  UNL     1      21.176  -1.422  54.633  1.00  0.00     0.061 C 
HETATM   12  C10 UNL     1      22.582  -1.080  54.766  1.00  0.00     0.065 C 
HETATM   13  C11 UNL     1      23.535  -0.358  54.190  1.00  0.00     0.042 C 
HETATM   14  C12 UNL     1      23.287   0.443  52.994  1.00  0.00     0.159 C 
HETATM   15  O2  UNL     1      22.292  -0.231  52.293  1.00  0.00    -0.362 OA
HETATM   16  C13 UNL     1      21.276   0.492  52.120  1.00  0.00     0.298 A 
HETATM   17  C14 UNL     1      24.406   1.200  52.404  1.00  0.00     0.003 C 
HETATM   18  C15 UNL     1      24.969   2.002  53.570  1.00  0.00     0.020 C 
HETATM   19  C17 UNL     1      24.356   2.149  51.305  1.00  0.00     0.043 C 
ENDROOT
BRANCH  17  20
HETATM   20  C16 UNL     1      25.455   0.225  51.978  1.00  0.00     0.123 C 
BRANCH  20  21
HETATM   21  N3  UNL     1      26.788   0.428  52.407  1.00  0.00    -0.429 N 
HETATM   22  H16 UNL     1      27.533   0.065  51.809  1.00  0.00     0.149 HD
HETATM   23  H17 UNL     1      26.969   1.313  52.907  1.00  0.00     0.149 HD
ENDBRANCH  20  21
ENDBRANCH  17  20
BRANCH  12  24
HETATM   24  O1  UNL     1      23.176  -1.705  55.867  1.00  0.00    -0.361 OA
HETATM   25  H6  UNL     1      22.513  -1.967  56.599  1.00  0.00     0.217 HD
ENDBRANCH  12  24
TORSDOF 3
ENDMDL
MODEL 5
REMARK VINA RESULT:      -6.9      2.537      4.902
REMARK  3 active torsions:
REMARK  status: ('A' for Active; 'I' for Inactive)
REMARK    1  A    between atoms: C10_12  and  O1_13 
REMARK    2  A    between atoms: C14_18  and  C16_20 
REMARK    3  A    between atoms: C16_20  and  N3_21 
ROOT
HETATM    1  C1  UNL     1      22.409   1.749  47.805  1.00  0.00     0.013 C 
HETATM    2  C2  UNL     1      22.514   2.167  48.930  1.00  0.00    -0.100 C 
HETATM    3  C3  UNL     1      22.650   2.682  50.257  1.00  0.00     0.144 C 
HETATM    4  C4  UNL     1      22.894   1.751  51.279  1.00  0.00    -0.086 C 
HETATM    5  C5  UNL     1      23.066   1.022  52.090  1.00  0.00    -0.066 C 
HETATM    6  C6  UNL     1      23.256   0.109  53.126  1.00  0.00     0.171 A 
HETATM    7  N1  UNL     1      22.496  -0.338  54.067  1.00  0.00    -0.336 N 
HETATM    8  C7  UNL     1      23.003  -1.268  54.958  1.00  0.00     0.666 C 
HETATM    9  N2  UNL     1      21.865  -1.817  54.902  1.00  0.00    -0.108 NA
HETATM   10  C8  UNL     1      20.697  -1.539  54.226  1.00  0.00     0.525 C 
HETATM   11  C9  UNL     1      19.555  -1.349  53.625  1.00  0.00     0.061 C 
HETATM   12  C10 UNL     1      18.796  -0.516  52.707  1.00  0.00     0.065 C 
HETATM   13  C11 UNL     1      18.908   0.573  51.957  1.00  0.00     0.042 C 
HETATM   14  C12 UNL     1      20.144   1.350  51.895  1.00  0.00     0.159 C 
HETATM   15  O2  UNL     1      20.742   1.200  53.143  1.00  0.00    -0.362 OA
HETATM   16  C13 UNL     1      21.892   0.699  53.048  1.00  0.00     0.298 A 
HETATM   17  C14 UNL     1      20.178   2.560  51.053  1.00  0.00     0.003 C 
HETATM   18  C15 UNL     1      19.689   2.082  49.693  1.00  0.00     0.020 C 
HETATM   19  C17 UNL     1      21.325   3.399  50.749  1.00  0.00     0.043 C 
ENDROOT
BRANCH  17  20
HETATM   20  C16 UNL     1      19.168   3.526  51.583  1.00  0.00     0.123 C 
BRANCH  20  21
HETATM   21  N3  UNL     1      18.315   4.188  50.670  1.00  0.00    -0.429 N 
HETATM   22  H16 UNL     1      17.860   3.616  49.955  1.00  0.00     0.149 HD
HETATM   23  H17 UNL     1      17.782   4.986  51.051  1.00  0.00     0.149 HD
ENDBRANCH  20  21
ENDBRANCH  17  20
BRANCH  12  24
HETATM   24  O1  UNL     1      17.493  -0.986  52.520  1.00  0.00    -0.361 OA
HETATM   25  H6  UNL     1      16.958  -0.455  51.830  1.00  0.00     0.217 HD
ENDBRANCH  12  24
TORSDOF 3
ENDMDL
MODEL 6
REMARK VINA RESULT:      -6.8      8.053     10.710
REMARK  3 active torsions:
REMARK  status: ('A' for Active; 'I' for Inactive)
REMARK    1  A    between atoms: C10_12  and  O1_13 
REMARK    2  A    between atoms: C14_18  and  C16_20 
REMARK    3  A    between atoms: C16_20  and  N3_21 
ROOT
HETATM    1  C1  UNL     1      24.533   6.574  51.172  1.00  0.00     0.013 C 
HETATM    2  C2  UNL     1      24.976   6.497  50.055  1.00  0.00    -0.100 C 
HETATM    3  C3  UNL     1      25.481   6.399  48.720  1.00  0.00     0.144 C 
HETATM    4  C4  UNL     1      26.802   5.947  48.572  1.00  0.00    -0.086 C 
HETATM    5  C5  UNL     1      27.847   5.613  48.448  1.00  0.00    -0.066 C 
HETATM    6  C6  UNL     1      29.173   5.218  48.282  1.00  0.00     0.171 A 
HETATM    7  N1  UNL     1      30.253   5.844  47.958  1.00  0.00    -0.336 N 
HETATM    8  C7  UNL     1      31.442   5.141  47.882  1.00  0.00     0.666 C 
HETATM    9  N2  UNL     1      31.982   6.163  48.393  1.00  0.00    -0.108 NA
HETATM   10  C8  UNL     1      31.513   7.390  48.809  1.00  0.00     0.525 C 
HETATM   11  C9  UNL     1      31.154   8.572  49.227  1.00  0.00     0.061 C 
HETATM   12  C10 UNL     1      30.056   9.507  49.411  1.00  0.00     0.065 C 
HETATM   13  C11 UNL     1      28.748   9.625  49.222  1.00  0.00     0.042 C 
HETATM   14  C12 UNL     1      27.949   8.551  48.635  1.00  0.00     0.159 C 
HETATM   15  O2  UNL     1      28.804   7.884  47.764  1.00  0.00    -0.362 OA
HETATM   16  C13 UNL     1      28.915   6.667  48.067  1.00  0.00     0.298 A 
HETATM   17  C14 UNL     1      26.504   8.772  48.439  1.00  0.00     0.003 C 
HETATM   18  C15 UNL     1      26.007   9.225  49.805  1.00  0.00     0.020 C 
HETATM   19  C17 UNL     1      25.510   7.808  47.996  1.00  0.00     0.043 C 
ENDROOT
BRANCH  17  20
HETATM   20  C16 UNL     1      26.330   9.914  47.492  1.00  0.00     0.123 C 
BRANCH  20  21
HETATM   21  N3  UNL     1      26.844   9.794  46.179  1.00  0.00    -0.429 N 
HETATM   22  H16 UNL     1      26.631   8.933  45.670  1.00  0.00     0.149 HD
HETATM   23  H17 UNL     1      26.890  10.669  45.633  1.00  0.00     0.149 HD
ENDBRANCH  20  21
ENDBRANCH  17  20
BRANCH  12  24
HETATM   24  O1  UNL     1      30.478  10.712  49.982  1.00  0.00    -0.361 OA
HETATM   25  H6  UNL     1      31.282  11.132  49.510  1.00  0.00     0.217 HD
ENDBRANCH  12  24
TORSDOF 3
ENDMDL
MODEL 7
REMARK VINA RESULT:      -6.7     10.995     13.848
REMARK  3 active torsions:
REMARK  status: ('A' for Active; 'I' for Inactive)
REMARK    1  A    between atoms: C10_12  and  O1_13 
REMARK    2  A    between atoms: C14_18  and  C16_20 
REMARK    3  A    between atoms: C16_20  and  N3_21 
ROOT
HETATM    1  C1  UNL     1      31.842  11.107  44.279  1.00  0.00     0.013 C 
HETATM    2  C2  UNL     1      32.259  11.109  45.409  1.00  0.00    -0.100 C 
HETATM    3  C3  UNL     1      32.757  11.136  46.749  1.00  0.00     0.144 C 
HETATM    4  C4  UNL     1      33.619  10.095  47.128  1.00  0.00    -0.086 C 
HETATM    5  C5  UNL     1      34.281   9.268  47.440  1.00  0.00    -0.066 C 
HETATM    6  C6  UNL     1      35.095   8.215  47.852  1.00  0.00     0.171 A 
HETATM    7  N1  UNL     1      34.910   7.198  48.624  1.00  0.00    -0.336 N 
HETATM    8  C7  UNL     1      35.952   6.311  48.830  1.00  0.00     0.666 C 
HETATM    9  N2  UNL     1      35.075   5.402  48.793  1.00  0.00    -0.108 NA
HETATM   10  C8  UNL     1      33.708   5.393  48.620  1.00  0.00     0.525 C 
HETATM   11  C9  UNL     1      32.416   5.295  48.463  1.00  0.00     0.061 C 
HETATM   12  C10 UNL     1      31.167   6.006  48.247  1.00  0.00     0.065 C 
HETATM   13  C11 UNL     1      30.683   7.232  48.090  1.00  0.00     0.042 C 
HETATM   14  C12 UNL     1      31.541   8.415  48.110  1.00  0.00     0.159 C 
HETATM   15  O2  UNL     1      32.593   8.098  48.964  1.00  0.00    -0.362 OA
HETATM   16  C13 UNL     1      33.704   8.180  48.380  1.00  0.00     0.298 A 
HETATM   17  C14 UNL     1      30.919   9.743  47.949  1.00  0.00     0.003 C 
HETATM   18  C15 UNL     1      30.088   9.613  46.680  1.00  0.00     0.020 C 
HETATM   19  C17 UNL     1      31.588  11.026  47.814  1.00  0.00     0.043 C 
ENDROOT
BRANCH  17  20
HETATM   20  C16 UNL     1      29.977   9.957  49.089  1.00  0.00     0.123 C 
BRANCH  20  21
HETATM   21  N3  UNL     1      30.489   9.948  50.407  1.00  0.00    -0.429 N 
HETATM   22  H16 UNL     1      29.839  10.169  51.164  1.00  0.00     0.149 HD
HETATM   23  H17 UNL     1      31.220   9.245  50.600  1.00  0.00     0.149 HD
ENDBRANCH  20  21
ENDBRANCH  17  20
BRANCH  12  24
HETATM   24  O1  UNL     1      30.072   5.141  48.173  1.00  0.00    -0.361 OA
HETATM   25  H6  UNL     1      29.829   4.865  47.219  1.00  0.00     0.217 HD
ENDBRANCH  12  24
TORSDOF 3
ENDMDL
MODEL 8
REMARK VINA RESULT:      -6.6      2.283      5.068
REMARK  3 active torsions:
REMARK  status: ('A' for Active; 'I' for Inactive)
REMARK    1  A    between atoms: C10_12  and  O1_13 
REMARK    2  A    between atoms: C14_18  and  C16_20 
REMARK    3  A    between atoms: C16_20  and  N3_21 
ROOT
HETATM    1  C1  UNL     1      20.474   0.855  55.140  1.00  0.00     0.013 C 
HETATM    2  C2  UNL     1      21.110   0.162  54.387  1.00  0.00    -0.100 C 
HETATM    3  C3  UNL     1      21.847  -0.678  53.495  1.00  0.00     0.144 C 
HETATM    4  C4  UNL     1      23.243  -0.690  53.642  1.00  0.00    -0.086 C 
HETATM    5  C5  UNL     1      24.343  -0.689  53.737  1.00  0.00    -0.066 C 
HETATM    6  C6  UNL     1      25.734  -0.675  53.830  1.00  0.00     0.171 A 
HETATM    7  N1  UNL     1      26.668  -0.168  53.100  1.00  0.00    -0.336 N 
HETATM    8  C7  UNL     1      27.987  -0.335  53.483  1.00  0.00     0.666 C 
HETATM    9  N2  UNL     1      28.165   0.852  53.085  1.00  0.00    -0.108 NA
HETATM   10  C8  UNL     1      27.347   1.811  52.529  1.00  0.00     0.525 C 
HETATM   11  C9  UNL     1      26.644   2.774  52.001  1.00  0.00     0.061 C 
HETATM   12  C10 UNL     1      25.338   3.196  51.524  1.00  0.00     0.065 C 
HETATM   13  C11 UNL     1      24.094   2.758  51.377  1.00  0.00     0.042 C 
HETATM   14  C12 UNL     1      23.694   1.409  51.772  1.00  0.00     0.159 C 
HETATM   15  O2  UNL     1      24.823   0.617  51.591  1.00  0.00    -0.362 OA
HETATM   16  C13 UNL     1      25.173   0.057  52.662  1.00  0.00     0.298 A 
HETATM   17  C14 UNL     1      22.295   0.994  51.555  1.00  0.00     0.003 C 
HETATM   18  C15 UNL     1      21.474   2.092  52.217  1.00  0.00     0.020 C 
HETATM   19  C17 UNL     1      21.659  -0.241  51.984  1.00  0.00     0.043 C 
ENDROOT
BRANCH  17  20
HETATM   20  C16 UNL     1      22.017   1.041  50.088  1.00  0.00     0.123 C 
BRANCH  20  21
HETATM   21  N3  UNL     1      20.672   1.099  49.653  1.00  0.00    -0.429 N 
HETATM   22  H16 UNL     1      20.079   0.290  49.855  1.00  0.00     0.149 HD
HETATM   23  H17 UNL     1      20.229   2.031  49.684  1.00  0.00     0.149 HD
ENDBRANCH  20  21
ENDBRANCH  17  20
BRANCH  12  24
HETATM   24  O1  UNL     1      25.349   4.509  51.045  1.00  0.00    -0.361 OA
HETATM   25  H6  UNL     1      24.978   4.605  50.096  1.00  0.00     0.217 HD
ENDBRANCH  12  24
TORSDOF 3
ENDMDL
MODEL 9
REMARK VINA RESULT:      -6.5      2.696      5.484
REMARK  3 active torsions:
REMARK  status: ('A' for Active; 'I' for Inactive)
REMARK    1  A    between atoms: C10_12  and  O1_13 
REMARK    2  A    between atoms: C14_18  and  C16_20 
REMARK    3  A    between atoms: C16_20  and  N3_21 
ROOT
HETATM    1  C1  UNL     1      20.935   0.358  54.776  1.00  0.00     0.013 C 
HETATM    2  C2  UNL     1      21.368   0.199  53.664  1.00  0.00    -0.100 C 
HETATM    3  C3  UNL     1      21.877  -0.013  52.344  1.00  0.00     0.144 C 
HETATM    4  C4  UNL     1      22.999   0.740  51.967  1.00  0.00    -0.086 C 
HETATM    5  C5  UNL     1      23.869   1.345  51.656  1.00  0.00    -0.066 C 
HETATM    6  C6  UNL     1      24.950   2.122  51.243  1.00  0.00     0.171 A 
HETATM    7  N1  UNL     1      25.070   3.120  50.435  1.00  0.00    -0.336 N 
HETATM    8  C7  UNL     1      26.319   3.683  50.241  1.00  0.00     0.666 C 
HETATM    9  N2  UNL     1      25.720   4.797  50.218  1.00  0.00    -0.108 NA
HETATM   10  C8  UNL     1      24.402   5.181  50.339  1.00  0.00     0.525 C 
HETATM   11  C9  UNL     1      23.182   5.630  50.445  1.00  0.00     0.061 C 
HETATM   12  C10 UNL     1      21.782   5.292  50.634  1.00  0.00     0.065 C 
HETATM   13  C11 UNL     1      20.979   4.250  50.810  1.00  0.00     0.042 C 
HETATM   14  C12 UNL     1      21.484   2.879  50.857  1.00  0.00     0.159 C 
HETATM   15  O2  UNL     1      22.606   2.867  50.035  1.00  0.00    -0.362 OA
HETATM   16  C13 UNL     1      23.637   2.510  50.663  1.00  0.00     0.298 A 
HETATM   17  C14 UNL     1      20.521   1.776  51.034  1.00  0.00     0.003 C 
HETATM   18  C15 UNL     1      19.721   2.174  52.267  1.00  0.00     0.020 C 
HETATM   19  C17 UNL     1      20.813   0.366  51.234  1.00  0.00     0.043 C 
ENDROOT
BRANCH  17  20
HETATM   20  C16 UNL     1      19.588   1.780  49.867  1.00  0.00     0.123 C 
BRANCH  20  21
HETATM   21  N3  UNL     1      20.131   1.730  48.562  1.00  0.00    -0.429 N 
HETATM   22  H16 UNL     1      19.579   1.257  47.843  1.00  0.00     0.149 HD
HETATM   23  H17 UNL     1      20.680   2.555  48.272  1.00  0.00     0.149 HD
ENDBRANCH  20  21
ENDBRANCH  17  20
BRANCH  12  24
HETATM   24  O1  UNL     1      20.960   6.423  50.641  1.00  0.00    -0.361 OA
HETATM   25  H6  UNL     1      21.476   7.306  50.640  1.00  0.00     0.217 HD
ENDBRANCH  12  24
TORSDOF 3
ENDMDL
