MODEL 1
REMARK VINA RESULT:      -7.7      0.000      0.000
REMARK  4 active torsions:
REMARK  status: ('A' for Active; 'I' for Inactive)
REMARK    1  A    between atoms: O1_2  and  C2_3 
REMARK    2  A    between atoms: C4_5  and  N1_6 
REMARK    3  A    between atoms: N1_6  and  C5_7 
REMARK    4  A    between atoms: C9_12  and  O2_13 
ROOT
HETATM    1  C5  UNL     1      26.430  -0.116  53.064  1.00  0.00     0.054 A 
HETATM    2  C6  UNL     1      27.677   0.258  53.325  1.00  0.00     0.083 A 
HETATM    3  C7  UNL     1      28.148   1.541  53.683  1.00  0.00     0.102 C 
HETATM    4  N2  UNL     1      28.537   2.600  53.999  1.00  0.00    -0.191 NA
HETATM    5  C8  UNL     1      28.566  -0.904  53.185  1.00  0.00     0.009 A 
HETATM    6  C9  UNL     1      29.875  -0.931  53.363  1.00  0.00     0.144 C 
HETATM    7  C10 UNL     1      27.674  -2.013  52.807  1.00  0.00     0.017 A 
HETATM    8  C11 UNL     1      26.461  -1.546  52.743  1.00  0.00     0.032 A 
ENDROOT
BRANCH   1   9
HETATM    9  N1  UNL     1      25.378   0.801  53.125  1.00  0.00    -0.354 N 
HETATM   10  H5  UNL     1      25.739   1.614  53.673  1.00  0.00     0.166 HD
BRANCH   9  11
HETATM   11  C4  UNL     1      24.078   0.760  52.606  1.00  0.00     0.057 A 
HETATM   12  C3  UNL     1      23.141  -0.053  53.221  1.00  0.00     0.069 A 
HETATM   13  C2  UNL     1      21.856  -0.113  52.732  1.00  0.00     0.092 A 
HETATM   14  C14 UNL     1      21.502   0.649  51.612  1.00  0.00     0.069 A 
HETATM   15  C13 UNL     1      22.459   1.459  51.010  1.00  0.00     0.052 A 
HETATM   16 CL2  UNL     1      19.855   0.592  50.960  1.00  0.00    -0.081 Cl
HETATM   17  C12 UNL     1      23.760   1.525  51.499  1.00  0.00     0.062 A 
HETATM   18 CL1  UNL     1      24.905   2.560  50.693  1.00  0.00    -0.082 Cl
BRANCH  13  19
HETATM   19  O1  UNL     1      20.884  -0.907  53.309  1.00  0.00    -0.354 OA
HETATM   20  C1  UNL     1      21.209  -1.601  54.504  1.00  0.00     0.210 C 
ENDBRANCH  13  19
ENDBRANCH   9  11
ENDBRANCH   1   9
BRANCH   6  21
HETATM   21  O2  UNL     1      30.510   0.238  53.718  1.00  0.00    -0.372 OA
HETATM   22  H7  UNL     1      29.950   1.080  53.895  1.00  0.00     0.216 HD
ENDBRANCH   6  21
TORSDOF 4
ENDMDL
MODEL 2
REMARK VINA RESULT:      -7.7      1.785      2.441
REMARK  4 active torsions:
REMARK  status: ('A' for Active; 'I' for Inactive)
REMARK    1  A    between atoms: O1_2  and  C2_3 
REMARK    2  A    between atoms: C4_5  and  N1_6 
REMARK    3  A    between atoms: N1_6  and  C5_7 
REMARK    4  A    between atoms: C9_12  and  O2_13 
ROOT
HETATM    1  C5  UNL     1      26.288  -0.365  53.134  1.00  0.00     0.054 A 
HETATM    2  C6  UNL     1      27.496   0.130  53.375  1.00  0.00     0.083 A 
HETATM    3  C7  UNL     1      27.839   1.442  53.774  1.00  0.00     0.102 C 
HETATM    4  N2  UNL     1      28.123   2.523  54.123  1.00  0.00    -0.191 NA
HETATM    5  C8  UNL     1      28.499  -0.922  53.161  1.00  0.00     0.009 A 
HETATM    6  C9  UNL     1      29.808  -0.815  53.301  1.00  0.00     0.144 C 
HETATM    7  C10 UNL     1      27.718  -2.105  52.762  1.00  0.00     0.017 A 
HETATM    8  C11 UNL     1      26.461  -1.770  52.752  1.00  0.00     0.032 A 
ENDROOT
BRANCH   1   9
HETATM    9  N1  UNL     1      25.147   0.430  53.264  1.00  0.00    -0.354 N 
HETATM   10  H5  UNL     1      25.491   1.414  53.337  1.00  0.00     0.166 HD
BRANCH   9  11
HETATM   11  C4  UNL     1      23.786   0.103  53.300  1.00  0.00     0.057 A 
HETATM   12  C3  UNL     1      22.962   0.567  52.288  1.00  0.00     0.069 A 
HETATM   13  C2  UNL     1      21.620   0.261  52.301  1.00  0.00     0.092 A 
HETATM   14  C14 UNL     1      21.093  -0.518  53.338  1.00  0.00     0.069 A 
HETATM   15  C13 UNL     1      21.939  -0.972  54.344  1.00  0.00     0.052 A 
HETATM   16 CL2  UNL     1      19.369  -0.927  53.378  1.00  0.00    -0.081 Cl
HETATM   17  C12 UNL     1      23.296  -0.667  54.339  1.00  0.00     0.062 A 
HETATM   18 CL1  UNL     1      24.294  -1.271  55.632  1.00  0.00    -0.082 Cl
BRANCH  13  19
HETATM   19  O1  UNL     1      20.756   0.698  51.315  1.00  0.00    -0.354 OA
HETATM   20  C1  UNL     1      21.270   0.869  50.002  1.00  0.00     0.210 C 
ENDBRANCH  13  19
ENDBRANCH   9  11
ENDBRANCH   1   9
BRANCH   6  21
HETATM   21  O2  UNL     1      30.326   0.401  53.687  1.00  0.00    -0.372 OA
HETATM   22  H7  UNL     1      30.506   0.577  54.682  1.00  0.00     0.216 HD
ENDBRANCH   6  21
TORSDOF 4
ENDMDL
MODEL 3
REMARK VINA RESULT:      -7.5      2.234      6.711
REMARK  4 active torsions:
REMARK  status: ('A' for Active; 'I' for Inactive)
REMARK    1  A    between atoms: O1_2  and  C2_3 
REMARK    2  A    between atoms: C4_5  and  N1_6 
REMARK    3  A    between atoms: N1_6  and  C5_7 
REMARK    4  A    between atoms: C9_12  and  O2_13 
ROOT
HETATM    1  C5  UNL     1      22.944  -0.334  53.216  1.00  0.00     0.054 A 
HETATM    2  C6  UNL     1      21.758  -0.204  52.634  1.00  0.00     0.083 A 
HETATM    3  C7  UNL     1      21.468   0.284  51.340  1.00  0.00     0.102 C 
HETATM    4  N2  UNL     1      21.228   0.670  50.261  1.00  0.00    -0.191 NA
HETATM    5  C8  UNL     1      20.715  -0.660  53.564  1.00  0.00     0.009 A 
HETATM    6  C9  UNL     1      19.412  -0.685  53.347  1.00  0.00     0.144 C 
HETATM    7  C10 UNL     1      21.447  -1.076  54.771  1.00  0.00     0.017 A 
HETATM    8  C11 UNL     1      22.716  -0.884  54.556  1.00  0.00     0.032 A 
ENDROOT
BRANCH   1   9
HETATM    9  N1  UNL     1      24.115   0.030  52.547  1.00  0.00    -0.354 N 
HETATM   10  H5  UNL     1      23.906  -0.072  51.529  1.00  0.00     0.166 HD
BRANCH   9  11
HETATM   11  C4  UNL     1      25.362   0.458  53.021  1.00  0.00     0.057 A 
HETATM   12  C3  UNL     1      26.303  -0.495  53.372  1.00  0.00     0.069 A 
HETATM   13  C2  UNL     1      27.536  -0.102  53.841  1.00  0.00     0.092 A 
HETATM   14  C14 UNL     1      27.833   1.260  53.963  1.00  0.00     0.069 A 
HETATM   15  C13 UNL     1      26.873   2.200  53.605  1.00  0.00     0.052 A 
HETATM   16 CL2  UNL     1      29.413   1.794  54.565  1.00  0.00    -0.081 Cl
HETATM   17  C12 UNL     1      25.624   1.811  53.130  1.00  0.00     0.062 A 
HETATM   18 CL1  UNL     1      24.470   3.044  52.702  1.00  0.00    -0.082 Cl
BRANCH  13  19
HETATM   19  O1  UNL     1      28.511  -1.012  54.204  1.00  0.00    -0.354 OA
HETATM   20  C1  UNL     1      29.122  -1.783  53.179  1.00  0.00     0.210 C 
ENDBRANCH  13  19
ENDBRANCH   9  11
ENDBRANCH   1   9
BRANCH   6  21
HETATM   21  O2  UNL     1      18.943  -0.242  52.131  1.00  0.00    -0.372 OA
HETATM   22  H7  UNL     1      18.652  -0.928  51.425  1.00  0.00     0.216 HD
ENDBRANCH   6  21
TORSDOF 4
ENDMDL
MODEL 4
REMARK VINA RESULT:      -7.5      2.513      3.599
REMARK  4 active torsions:
REMARK  status: ('A' for Active; 'I' for Inactive)
REMARK    1  A    between atoms: O1_2  and  C2_3 
REMARK    2  A    between atoms: C4_5  and  N1_6 
REMARK    3  A    between atoms: N1_6  and  C5_7 
REMARK    4  A    between atoms: C9_12  and  O2_13 
ROOT
HETATM    1  C5  UNL     1      26.437   0.023  52.939  1.00  0.00     0.054 A 
HETATM    2  C6  UNL     1      27.685   0.348  53.250  1.00  0.00     0.083 A 
HETATM    3  C7  UNL     1      28.199   1.620  53.590  1.00  0.00     0.102 C 
HETATM    4  N2  UNL     1      28.621   2.671  53.889  1.00  0.00    -0.191 NA
HETATM    5  C8  UNL     1      28.525  -0.857  53.195  1.00  0.00     0.009 A 
HETATM    6  C9  UNL     1      29.820  -0.937  53.441  1.00  0.00     0.144 C 
HETATM    7  C10 UNL     1      27.601  -1.937  52.809  1.00  0.00     0.017 A 
HETATM    8  C11 UNL     1      26.416  -1.418  52.668  1.00  0.00     0.032 A 
ENDROOT
BRANCH   1   9
HETATM    9  N1  UNL     1      25.428   0.989  52.916  1.00  0.00    -0.354 N 
HETATM   10  H5  UNL     1      25.177   1.163  53.914  1.00  0.00     0.166 HD
BRANCH   9  11
HETATM   11  C4  UNL     1      24.804   1.655  51.854  1.00  0.00     0.057 A 
HETATM   12  C3  UNL     1      25.542   2.561  51.110  1.00  0.00     0.069 A 
HETATM   13  C2  UNL     1      24.953   3.230  50.062  1.00  0.00     0.092 A 
HETATM   14  C14 UNL     1      23.608   2.993  49.752  1.00  0.00     0.069 A 
HETATM   15  C13 UNL     1      22.886   2.080  50.512  1.00  0.00     0.052 A 
HETATM   16 CL2  UNL     1      22.824   3.842  48.407  1.00  0.00    -0.081 Cl
HETATM   17  C12 UNL     1      23.474   1.399  51.574  1.00  0.00     0.062 A 
HETATM   18 CL1  UNL     1      22.508   0.271  52.482  1.00  0.00    -0.082 Cl
BRANCH  13  19
HETATM   19  O1  UNL     1      25.645   4.142  49.288  1.00  0.00    -0.354 OA
HETATM   20  C1  UNL     1      25.773   5.471  49.775  1.00  0.00     0.210 C 
ENDBRANCH  13  19
ENDBRANCH   9  11
ENDBRANCH   1   9
BRANCH   6  21
HETATM   21  O2  UNL     1      30.491   0.213  53.788  1.00  0.00    -0.372 OA
HETATM   22  H7  UNL     1      30.632   0.433  54.781  1.00  0.00     0.216 HD
ENDBRANCH   6  21
TORSDOF 4
ENDMDL
MODEL 5
REMARK VINA RESULT:      -7.3      1.638      2.392
REMARK  4 active torsions:
REMARK  status: ('A' for Active; 'I' for Inactive)
REMARK    1  A    between atoms: O1_2  and  C2_3 
REMARK    2  A    between atoms: C4_5  and  N1_6 
REMARK    3  A    between atoms: N1_6  and  C5_7 
REMARK    4  A    between atoms: C9_12  and  O2_13 
ROOT
HETATM    1  C5  UNL     1      27.100   0.759  52.609  1.00  0.00     0.054 A 
HETATM    2  C6  UNL     1      27.651  -0.433  52.801  1.00  0.00     0.083 A 
HETATM    3  C7  UNL     1      27.181  -1.694  52.370  1.00  0.00     0.102 C 
HETATM    4  N2  UNL     1      26.800  -2.737  51.997  1.00  0.00    -0.191 NA
HETATM    5  C8  UNL     1      28.894  -0.270  53.568  1.00  0.00     0.009 A 
HETATM    6  C9  UNL     1      29.723  -1.224  53.954  1.00  0.00     0.144 C 
HETATM    7  C10 UNL     1      29.000   1.180  53.802  1.00  0.00     0.017 A 
HETATM    8  C11 UNL     1      27.970   1.751  53.248  1.00  0.00     0.032 A 
ENDROOT
BRANCH   1   9
HETATM    9  N1  UNL     1      25.901   0.890  51.904  1.00  0.00    -0.354 N 
HETATM   10  H5  UNL     1      26.171   1.012  50.902  1.00  0.00     0.166 HD
BRANCH   9  11
HETATM   11  C4  UNL     1      24.567   0.878  52.328  1.00  0.00     0.057 A 
HETATM   12  C3  UNL     1      24.155  -0.114  53.202  1.00  0.00     0.069 A 
HETATM   13  C2  UNL     1      22.848  -0.149  53.634  1.00  0.00     0.092 A 
HETATM   14  C14 UNL     1      21.941   0.819  53.187  1.00  0.00     0.069 A 
HETATM   15  C13 UNL     1      22.377   1.806  52.310  1.00  0.00     0.052 A 
HETATM   16 CL2  UNL     1      20.253   0.798  53.728  1.00  0.00    -0.081 Cl
HETATM   17  C12 UNL     1      23.695   1.849  51.868  1.00  0.00     0.062 A 
HETATM   18 CL1  UNL     1      24.169   3.114  50.769  1.00  0.00    -0.082 Cl
BRANCH  13  19
HETATM   19  O1  UNL     1      22.386  -1.116  54.506  1.00  0.00    -0.354 OA
HETATM   20  C1  UNL     1      23.204  -1.463  55.614  1.00  0.00     0.210 C 
ENDBRANCH  13  19
ENDBRANCH   9  11
ENDBRANCH   1   9
BRANCH   6  21
HETATM   21  O2  UNL     1      29.421  -2.525  53.621  1.00  0.00    -0.372 OA
HETATM   22  H7  UNL     1      30.173  -3.153  53.316  1.00  0.00     0.216 HD
ENDBRANCH   6  21
TORSDOF 4
ENDMDL
MODEL 6
REMARK VINA RESULT:      -7.2      2.568      3.534
REMARK  4 active torsions:
REMARK  status: ('A' for Active; 'I' for Inactive)
REMARK    1  A    between atoms: O1_2  and  C2_3 
REMARK    2  A    between atoms: C4_5  and  N1_6 
REMARK    3  A    between atoms: N1_6  and  C5_7 
REMARK    4  A    between atoms: C9_12  and  O2_13 
ROOT
HETATM    1  C5  UNL     1      24.691   1.089  52.782  1.00  0.00     0.054 A 
HETATM    2  C6  UNL     1      25.552   0.270  53.372  1.00  0.00     0.083 A 
HETATM    3  C7  UNL     1      25.343  -0.549  54.505  1.00  0.00     0.102 C 
HETATM    4  N2  UNL     1      25.165  -1.242  55.432  1.00  0.00    -0.191 NA
HETATM    5  C8  UNL     1      26.834   0.322  52.657  1.00  0.00     0.009 A 
HETATM    6  C9  UNL     1      27.934  -0.351  52.943  1.00  0.00     0.144 C 
HETATM    7  C10 UNL     1      26.612   1.284  51.564  1.00  0.00     0.017 A 
HETATM    8  C11 UNL     1      25.385   1.711  51.650  1.00  0.00     0.032 A 
ENDROOT
BRANCH   1   9
HETATM    9  N1  UNL     1      23.388   1.231  53.264  1.00  0.00    -0.354 N 
HETATM   10  H5  UNL     1      23.479   1.670  54.208  1.00  0.00     0.166 HD
BRANCH   9  11
HETATM   11  C4  UNL     1      22.148   0.898  52.705  1.00  0.00     0.057 A 
HETATM   12  C3  UNL     1      21.837   1.375  51.442  1.00  0.00     0.069 A 
HETATM   13  C2  UNL     1      20.625   1.063  50.869  1.00  0.00     0.092 A 
HETATM   14  C14 UNL     1      19.710   0.265  51.567  1.00  0.00     0.069 A 
HETATM   15  C13 UNL     1      20.043  -0.203  52.833  1.00  0.00     0.052 A 
HETATM   16 CL2  UNL     1      18.142  -0.152  50.852  1.00  0.00    -0.081 Cl
HETATM   17  C12 UNL     1      21.266   0.108  53.419  1.00  0.00     0.062 A 
HETATM   18 CL1  UNL     1      21.613  -0.513  55.009  1.00  0.00    -0.082 Cl
BRANCH  13  19
HETATM   19  O1  UNL     1      20.267   1.512  49.613  1.00  0.00    -0.354 OA
HETATM   20  C1  UNL     1      21.245   1.469  48.583  1.00  0.00     0.210 C 
ENDBRANCH  13  19
ENDBRANCH   9  11
ENDBRANCH   1   9
BRANCH   6  21
HETATM   21  O2  UNL     1      27.915  -1.204  54.023  1.00  0.00    -0.372 OA
HETATM   22  H7  UNL     1      27.668  -0.836  54.949  1.00  0.00     0.216 HD
ENDBRANCH   6  21
TORSDOF 4
ENDMDL
MODEL 7
REMARK VINA RESULT:      -7.2      2.614      3.328
REMARK  4 active torsions:
REMARK  status: ('A' for Active; 'I' for Inactive)
REMARK    1  A    between atoms: O1_2  and  C2_3 
REMARK    2  A    between atoms: C4_5  and  N1_6 
REMARK    3  A    between atoms: N1_6  and  C5_7 
REMARK    4  A    between atoms: C9_12  and  O2_13 
ROOT
HETATM    1  C5  UNL     1      25.812   0.529  53.094  1.00  0.00     0.054 A 
HETATM    2  C6  UNL     1      26.773   1.400  52.815  1.00  0.00     0.083 A 
HETATM    3  C7  UNL     1      26.869   2.272  51.707  1.00  0.00     0.102 C 
HETATM    4  N2  UNL     1      26.939   3.009  50.799  1.00  0.00    -0.191 NA
HETATM    5  C8  UNL     1      27.795   1.343  53.871  1.00  0.00     0.009 A 
HETATM    6  C9  UNL     1      28.903   2.059  53.946  1.00  0.00     0.144 C 
HETATM    7  C10 UNL     1      27.304   0.320  54.809  1.00  0.00     0.017 A 
HETATM    8  C11 UNL     1      26.173  -0.134  54.351  1.00  0.00     0.032 A 
ENDROOT
BRANCH   1   9
HETATM    9  N1  UNL     1      24.711   0.379  52.247  1.00  0.00    -0.354 N 
HETATM   10  H5  UNL     1      24.985  -0.349  51.549  1.00  0.00     0.166 HD
BRANCH   9  11
HETATM   11  C4  UNL     1      23.459   1.006  52.230  1.00  0.00     0.057 A 
HETATM   12  C3  UNL     1      23.285   2.126  51.435  1.00  0.00     0.069 A 
HETATM   13  C2  UNL     1      22.065   2.761  51.400  1.00  0.00     0.092 A 
HETATM   14  C14 UNL     1      21.004   2.273  52.172  1.00  0.00     0.069 A 
HETATM   15  C13 UNL     1      21.201   1.147  52.964  1.00  0.00     0.052 A 
HETATM   16 CL2  UNL     1      19.421   3.072  52.147  1.00  0.00    -0.081 Cl
HETATM   17  C12 UNL     1      22.432   0.499  53.004  1.00  0.00     0.062 A 
HETATM   18 CL1  UNL     1      22.605  -0.905  54.020  1.00  0.00    -0.082 Cl
BRANCH  13  19
HETATM   19  O1  UNL     1      21.838   3.881  50.623  1.00  0.00    -0.354 OA
HETATM   20  C1  UNL     1      22.222   5.145  51.143  1.00  0.00     0.210 C 
ENDBRANCH  13  19
ENDBRANCH   9  11
ENDBRANCH   1   9
BRANCH   6  21
HETATM   21  O2  UNL     1      29.163   2.967  52.945  1.00  0.00    -0.372 OA
HETATM   22  H7  UNL     1      29.910   2.771  52.270  1.00  0.00     0.216 HD
ENDBRANCH   6  21
TORSDOF 4
ENDMDL
MODEL 8
REMARK VINA RESULT:      -7.1      2.880      4.264
REMARK  4 active torsions:
REMARK  status: ('A' for Active; 'I' for Inactive)
REMARK    1  A    between atoms: O1_2  and  C2_3 
REMARK    2  A    between atoms: C4_5  and  N1_6 
REMARK    3  A    between atoms: N1_6  and  C5_7 
REMARK    4  A    between atoms: C9_12  and  O2_13 
ROOT
HETATM    1  C5  UNL     1      27.303   1.605  53.510  1.00  0.00     0.054 A 
HETATM    2  C6  UNL     1      27.650   0.328  53.418  1.00  0.00     0.083 A 
HETATM    3  C7  UNL     1      26.827  -0.783  53.125  1.00  0.00     0.102 C 
HETATM    4  N2  UNL     1      26.149  -1.702  52.865  1.00  0.00    -0.191 NA
HETATM    5  C8  UNL     1      29.091   0.201  53.676  1.00  0.00     0.009 A 
HETATM    6  C9  UNL     1      29.806  -0.910  53.675  1.00  0.00     0.144 C 
HETATM    7  C10 UNL     1      29.546   1.578  53.932  1.00  0.00     0.017 A 
HETATM    8  C11 UNL     1      28.515   2.365  53.833  1.00  0.00     0.032 A 
ENDROOT
BRANCH   1   9
HETATM    9  N1  UNL     1      25.980   2.006  53.309  1.00  0.00    -0.354 N 
HETATM   10  H5  UNL     1      25.550   2.059  54.259  1.00  0.00     0.166 HD
BRANCH   9  11
HETATM   11  C4  UNL     1      25.267   2.304  52.141  1.00  0.00     0.057 A 
HETATM   12  C3  UNL     1      25.804   3.214  51.246  1.00  0.00     0.069 A 
HETATM   13  C2  UNL     1      25.123   3.525  50.091  1.00  0.00     0.092 A 
HETATM   14  C14 UNL     1      23.888   2.919  49.826  1.00  0.00     0.069 A 
HETATM   15  C13 UNL     1      23.368   2.009  50.738  1.00  0.00     0.052 A 
HETATM   16 CL2  UNL     1      22.990   3.301  48.346  1.00  0.00    -0.081 Cl
HETATM   17  C12 UNL     1      24.050   1.689  51.908  1.00  0.00     0.062 A 
HETATM   18 CL1  UNL     1      23.336   0.540  53.005  1.00  0.00    -0.082 Cl
BRANCH  13  19
HETATM   19  O1  UNL     1      25.615   4.425  49.165  1.00  0.00    -0.354 OA
HETATM   20  C1  UNL     1      27.022   4.502  48.990  1.00  0.00     0.210 C 
ENDBRANCH  13  19
ENDBRANCH   9  11
ENDBRANCH   1   9
BRANCH   6  21
HETATM   21  O2  UNL     1      29.165  -2.098  53.407  1.00  0.00    -0.372 OA
HETATM   22  H7  UNL     1      29.431  -2.941  53.929  1.00  0.00     0.216 HD
ENDBRANCH   6  21
TORSDOF 4
ENDMDL
MODEL 9
REMARK VINA RESULT:      -7.1      2.428      3.518
REMARK  4 active torsions:
REMARK  status: ('A' for Active; 'I' for Inactive)
REMARK    1  A    between atoms: O1_2  and  C2_3 
REMARK    2  A    between atoms: C4_5  and  N1_6 
REMARK    3  A    between atoms: N1_6  and  C5_7 
REMARK    4  A    between atoms: C9_12  and  O2_13 
ROOT
HETATM    1  C5  UNL     1      26.705   0.966  52.619  1.00  0.00     0.054 A 
HETATM    2  C6  UNL     1      27.596   0.049  52.973  1.00  0.00     0.083 A 
HETATM    3  C7  UNL     1      27.484  -1.357  52.891  1.00  0.00     0.102 C 
HETATM    4  N2  UNL     1      27.398  -2.522  52.806  1.00  0.00    -0.191 NA
HETATM    5  C8  UNL     1      28.795   0.720  53.495  1.00  0.00     0.009 A 
HETATM    6  C9  UNL     1      29.896   0.146  53.946  1.00  0.00     0.144 C 
HETATM    7  C10 UNL     1      28.489   2.157  53.401  1.00  0.00     0.017 A 
HETATM    8  C11 UNL     1      27.294   2.280  52.899  1.00  0.00     0.032 A 
ENDROOT
BRANCH   1   9
HETATM    9  N1  UNL     1      25.467   0.597  52.087  1.00  0.00    -0.354 N 
HETATM   10  H5  UNL     1      25.625  -0.316  51.604  1.00  0.00     0.166 HD
BRANCH   9  11
HETATM   11  C4  UNL     1      24.215   1.223  52.124  1.00  0.00     0.057 A 
HETATM   12  C3  UNL     1      24.019   2.364  51.364  1.00  0.00     0.069 A 
HETATM   13  C2  UNL     1      22.798   3.000  51.383  1.00  0.00     0.092 A 
HETATM   14  C14 UNL     1      21.760   2.490  52.172  1.00  0.00     0.069 A 
HETATM   15  C13 UNL     1      21.979   1.344  52.926  1.00  0.00     0.052 A 
HETATM   16 CL2  UNL     1      20.178   3.289  52.214  1.00  0.00    -0.081 Cl
HETATM   17  C12 UNL     1      23.210   0.695  52.913  1.00  0.00     0.062 A 
HETATM   18 CL1  UNL     1      23.413  -0.736  53.885  1.00  0.00    -0.082 Cl
BRANCH  13  19
HETATM   19  O1  UNL     1      22.550   4.140  50.643  1.00  0.00    -0.354 OA
HETATM   20  C1  UNL     1      23.259   5.324  50.980  1.00  0.00     0.210 C 
ENDBRANCH  13  19
ENDBRANCH   9  11
ENDBRANCH   1   9
BRANCH   6  21
HETATM   21  O2  UNL     1      29.964  -1.229  53.942  1.00  0.00    -0.372 OA
HETATM   22  H7  UNL     1      29.888  -1.738  54.830  1.00  0.00     0.216 HD
ENDBRANCH   6  21
TORSDOF 4
ENDMDL
