MODEL 1
REMARK VINA RESULT:      -8.8      0.000      0.000
REMARK  1 active torsions:
REMARK  status: ('A' for Active; 'I' for Inactive)
REMARK    1  A    between atoms: C16_19  and  O1_20 
ROOT
HETATM    1  N1  UNL     1      21.960   5.226  52.133  1.00  0.00    -0.302 NA
HETATM    2  C1  UNL     1      21.688   3.949  51.978  1.00  0.00     0.056 C 
HETATM    3  C2  UNL     1      20.252   3.711  52.079  1.00  0.00     0.178 C 
HETATM    4  N2  UNL     1      19.721   3.328  50.757  1.00  0.00    -0.392 N 
HETATM    5  C3  UNL     1      18.356   2.939  50.684  1.00  0.00     0.095 C 
HETATM    6  C4  UNL     1      18.123   1.665  50.838  1.00  0.00    -0.009 C 
HETATM    7  C5  UNL     1      18.857   0.857  50.127  1.00  0.00     0.013 C 
HETATM    8  C6  UNL     1      20.128   0.770  50.780  1.00  0.00     0.001 C 
HETATM    9  C7  UNL     1      21.166   0.246  51.419  1.00  0.00     0.001 C 
HETATM   10  C8  UNL     1      22.474   0.456  52.028  1.00  0.00     0.012 C 
HETATM   11  C9  UNL     1      23.069   1.636  52.090  1.00  0.00    -0.022 C 
HETATM   12  C10 UNL     1      24.353   1.303  52.779  1.00  0.00     0.026 C 
HETATM   13  C11 UNL     1      25.615   1.715  52.506  1.00  0.00    -0.005 C 
HETATM   14  C12 UNL     1      26.747   1.298  53.280  1.00  0.00     0.011 A 
HETATM   15  C13 UNL     1      27.972   1.830  52.965  1.00  0.00     0.034 A 
HETATM   16  C14 UNL     1      29.123   1.489  53.636  1.00  0.00     0.117 A 
HETATM   17  N3  UNL     1      29.134   0.595  54.668  1.00  0.00    -0.270 NA
HETATM   18  C15 UNL     1      27.961   0.046  55.016  1.00  0.00     0.153 A 
HETATM   19  C16 UNL     1      26.833   0.413  54.319  1.00  0.00     0.094 A 
HETATM   20  C17 UNL     1      25.885   2.582  51.339  1.00  0.00     0.128 C 
HETATM   21  N4  UNL     1      25.121   3.487  50.772  1.00  0.00    -0.271 NA
HETATM   22  C18 UNL     1      23.790   3.851  51.183  1.00  0.00     0.130 C 
HETATM   23  C19 UNL     1      22.861   3.068  51.760  1.00  0.00     0.017 C 
HETATM   24  H1  UNL     1      21.219   5.914  52.299  1.00  0.00     0.186 HD
HETATM   25  H4  UNL     1      19.869   3.196  49.724  1.00  0.00     0.159 HD
ENDROOT
BRANCH  19  26
HETATM   26  O1  UNL     1      25.696  -0.213  54.762  1.00  0.00    -0.358 OA
HETATM   27  H14 UNL     1      25.059  -0.592  54.067  1.00  0.00     0.217 HD
ENDBRANCH  19  26
TORSDOF 1
ENDMDL
MODEL 2
REMARK VINA RESULT:      -8.6      3.400      4.334
REMARK  1 active torsions:
REMARK  status: ('A' for Active; 'I' for Inactive)
REMARK    1  A    between atoms: C16_19  and  O1_20 
ROOT
HETATM    1  N1  UNL     1      23.962   5.640  50.904  1.00  0.00    -0.302 NA
HETATM    2  C1  UNL     1      23.334   4.773  50.141  1.00  0.00     0.056 C 
HETATM    3  C2  UNL     1      22.524   5.458  49.139  1.00  0.00     0.178 C 
HETATM    4  N2  UNL     1      23.109   5.246  47.802  1.00  0.00    -0.392 N 
HETATM    5  C3  UNL     1      22.387   5.740  46.682  1.00  0.00     0.095 C 
HETATM    6  C4  UNL     1      21.544   4.904  46.141  1.00  0.00    -0.009 C 
HETATM    7  C5  UNL     1      22.000   3.711  45.887  1.00  0.00     0.013 C 
HETATM    8  C6  UNL     1      22.009   2.999  47.129  1.00  0.00     0.001 C 
HETATM    9  C7  UNL     1      21.714   2.080  48.039  1.00  0.00     0.001 C 
HETATM   10  C8  UNL     1      21.918   1.571  49.390  1.00  0.00     0.012 C 
HETATM   11  C9  UNL     1      22.706   2.154  50.278  1.00  0.00    -0.022 C 
HETATM   12  C10 UNL     1      22.573   1.248  51.459  1.00  0.00     0.026 C 
HETATM   13  C11 UNL     1      23.523   0.774  52.299  1.00  0.00    -0.005 C 
HETATM   14  C12 UNL     1      23.219  -0.094  53.399  1.00  0.00     0.011 A 
HETATM   15  C13 UNL     1      24.246  -0.460  54.233  1.00  0.00     0.034 A 
HETATM   16  C14 UNL     1      24.064  -1.296  55.309  1.00  0.00     0.117 A 
HETATM   17  N3  UNL     1      22.848  -1.827  55.629  1.00  0.00    -0.270 NA
HETATM   18  C15 UNL     1      21.810  -1.501  54.845  1.00  0.00     0.153 A 
HETATM   19  C16 UNL     1      22.034  -0.662  53.779  1.00  0.00     0.094 A 
HETATM   20  C17 UNL     1      24.950   1.093  52.075  1.00  0.00     0.128 C 
HETATM   21  N4  UNL     1      25.497   2.160  51.539  1.00  0.00    -0.271 NA
HETATM   22  C18 UNL     1      24.792   3.309  51.031  1.00  0.00     0.130 C 
HETATM   23  C19 UNL     1      23.570   3.346  50.468  1.00  0.00     0.017 C 
HETATM   24  H1  UNL     1      23.855   6.650  50.764  1.00  0.00     0.186 HD
HETATM   25  H4  UNL     1      23.890   4.876  47.202  1.00  0.00     0.159 HD
ENDROOT
BRANCH  19  26
HETATM   26  O1  UNL     1      20.902  -0.400  53.049  1.00  0.00    -0.358 OA
HETATM   27  H14 UNL     1      20.436   0.491  53.196  1.00  0.00     0.217 HD
ENDBRANCH  19  26
TORSDOF 1
ENDMDL
MODEL 3
REMARK VINA RESULT:      -8.4      1.924      7.317
REMARK  1 active torsions:
REMARK  status: ('A' for Active; 'I' for Inactive)
REMARK    1  A    between atoms: C16_19  and  O1_20 
ROOT
HETATM    1  N1  UNL     1      25.921   4.031  50.677  1.00  0.00    -0.302 NA
HETATM    2  C1  UNL     1      25.675   3.003  51.458  1.00  0.00     0.056 C 
HETATM    3  C2  UNL     1      26.853   2.151  51.579  1.00  0.00     0.178 C 
HETATM    4  N2  UNL     1      27.393   2.247  52.948  1.00  0.00    -0.392 N 
HETATM    5  C3  UNL     1      28.475   1.391  53.290  1.00  0.00     0.095 C 
HETATM    6  C4  UNL     1      28.143   0.238  53.800  1.00  0.00    -0.009 C 
HETATM    7  C5  UNL     1      27.273   0.266  54.769  1.00  0.00     0.013 C 
HETATM    8  C6  UNL     1      25.987   0.444  54.165  1.00  0.00     0.001 C 
HETATM    9  C7  UNL     1      24.736   0.189  53.804  1.00  0.00     0.001 C 
HETATM   10  C8  UNL     1      23.544   0.631  53.089  1.00  0.00     0.012 C 
HETATM   11  C9  UNL     1      23.477   1.767  52.415  1.00  0.00    -0.022 C 
HETATM   12  C10 UNL     1      22.074   1.744  51.900  1.00  0.00     0.026 C 
HETATM   13  C11 UNL     1      21.151   2.734  51.855  1.00  0.00    -0.005 C 
HETATM   14  C12 UNL     1      19.836   2.540  51.317  1.00  0.00     0.011 A 
HETATM   15  C13 UNL     1      19.002   3.628  51.251  1.00  0.00     0.034 A 
HETATM   16  C14 UNL     1      17.718   3.548  50.764  1.00  0.00     0.117 A 
HETATM   17  N3  UNL     1      17.176   2.380  50.309  1.00  0.00    -0.270 NA
HETATM   18  C15 UNL     1      17.951   1.287  50.353  1.00  0.00     0.153 A 
HETATM   19  C16 UNL     1      19.229   1.408  50.847  1.00  0.00     0.094 A 
HETATM   20  C17 UNL     1      21.451   4.067  52.422  1.00  0.00     0.128 C 
HETATM   21  N4  UNL     1      22.598   4.699  52.516  1.00  0.00    -0.271 NA
HETATM   22  C18 UNL     1      23.876   4.210  52.063  1.00  0.00     0.130 C 
HETATM   23  C19 UNL     1      24.299   2.934  52.008  1.00  0.00     0.017 C 
HETATM   24  H1  UNL     1      26.839   4.161  50.240  1.00  0.00     0.186 HD
HETATM   25  H4  UNL     1      27.376   2.694  53.900  1.00  0.00     0.159 HD
ENDROOT
BRANCH  19  26
HETATM   26  O1  UNL     1      19.926   0.227  50.844  1.00  0.00    -0.358 OA
HETATM   27  H14 UNL     1      20.522   0.028  50.045  1.00  0.00     0.217 HD
ENDBRANCH  19  26
TORSDOF 1
ENDMDL
MODEL 4
REMARK VINA RESULT:      -8.4      3.702      6.777
REMARK  1 active torsions:
REMARK  status: ('A' for Active; 'I' for Inactive)
REMARK    1  A    between atoms: C16_19  and  O1_20 
ROOT
HETATM    1  N1  UNL     1      21.911   2.569  52.489  1.00  0.00    -0.302 NA
HETATM    2  C1  UNL     1      23.180   2.296  52.285  1.00  0.00     0.056 C 
HETATM    3  C2  UNL     1      23.718   1.492  53.377  1.00  0.00     0.178 C 
HETATM    4  N2  UNL     1      24.008   0.130  52.890  1.00  0.00    -0.392 N 
HETATM    5  C3  UNL     1      24.652  -0.766  53.786  1.00  0.00     0.095 C 
HETATM    6  C4  UNL     1      25.955  -0.771  53.738  1.00  0.00    -0.009 C 
HETATM    7  C5  UNL     1      26.487  -0.866  52.552  1.00  0.00     0.013 C 
HETATM    8  C6  UNL     1      26.405   0.434  51.958  1.00  0.00     0.001 C 
HETATM    9  C7  UNL     1      26.792   1.585  51.423  1.00  0.00     0.001 C 
HETATM   10  C8  UNL     1      26.410   2.868  50.847  1.00  0.00     0.012 C 
HETATM   11  C9  UNL     1      25.155   3.269  50.727  1.00  0.00    -0.022 C 
HETATM   12  C10 UNL     1      25.314   4.609  50.083  1.00  0.00     0.026 C 
HETATM   13  C11 UNL     1      24.619   5.167  49.063  1.00  0.00    -0.005 C 
HETATM   14  C12 UNL     1      24.903   6.481  48.564  1.00  0.00     0.011 A 
HETATM   15  C13 UNL     1      24.093   6.983  47.576  1.00  0.00     0.034 A 
HETATM   16  C14 UNL     1      24.284   8.226  47.021  1.00  0.00     0.117 A 
HETATM   17  N3  UNL     1      25.296   9.056  47.410  1.00  0.00    -0.270 NA
HETATM   18  C15 UNL     1      26.117   8.612  48.374  1.00  0.00     0.153 A 
HETATM   19  C16 UNL     1      25.892   7.364  48.903  1.00  0.00     0.094 A 
HETATM   20  C17 UNL     1      23.556   4.405  48.372  1.00  0.00     0.128 C 
HETATM   21  N4  UNL     1      22.754   3.475  48.836  1.00  0.00    -0.271 NA
HETATM   22  C18 UNL     1      22.733   2.971  50.186  1.00  0.00     0.130 C 
HETATM   23  C19 UNL     1      23.763   2.861  51.043  1.00  0.00     0.017 C 
HETATM   24  H1  UNL     1      21.419   2.232  53.323  1.00  0.00     0.186 HD
HETATM   25  H4  UNL     1      23.957  -0.589  52.124  1.00  0.00     0.159 HD
ENDROOT
BRANCH  19  26
HETATM   26  O1  UNL     1      26.793   7.018  49.877  1.00  0.00    -0.358 OA
HETATM   27  H14 UNL     1      27.777   7.196  49.701  1.00  0.00     0.217 HD
ENDBRANCH  19  26
TORSDOF 1
ENDMDL
MODEL 5
REMARK VINA RESULT:      -8.4      5.112      6.587
REMARK  1 active torsions:
REMARK  status: ('A' for Active; 'I' for Inactive)
REMARK    1  A    between atoms: C16_19  and  O1_20 
ROOT
HETATM    1  N1  UNL     1      23.808   7.661  51.421  1.00  0.00    -0.302 NA
HETATM    2  C1  UNL     1      24.108   6.433  51.062  1.00  0.00     0.056 C 
HETATM    3  C2  UNL     1      23.513   5.466  51.980  1.00  0.00     0.178 C 
HETATM    4  N2  UNL     1      22.442   4.725  51.289  1.00  0.00    -0.392 N 
HETATM    5  C3  UNL     1      21.825   3.653  51.990  1.00  0.00     0.095 C 
HETATM    6  C4  UNL     1      22.368   2.480  51.819  1.00  0.00    -0.009 C 
HETATM    7  C5  UNL     1      22.603   2.129  50.586  1.00  0.00     0.013 C 
HETATM    8  C6  UNL     1      23.795   2.813  50.182  1.00  0.00     0.001 C 
HETATM    9  C7  UNL     1      25.042   3.003  49.773  1.00  0.00     0.001 C 
HETATM   10  C8  UNL     1      26.093   3.949  49.415  1.00  0.00     0.012 C 
HETATM   11  C9  UNL     1      25.942   5.262  49.469  1.00  0.00    -0.022 C 
HETATM   12  C10 UNL     1      27.274   5.750  48.999  1.00  0.00     0.026 C 
HETATM   13  C11 UNL     1      27.575   6.749  48.135  1.00  0.00    -0.005 C 
HETATM   14  C12 UNL     1      28.924   7.093  47.793  1.00  0.00     0.011 A 
HETATM   15  C13 UNL     1      29.122   8.169  46.963  1.00  0.00     0.034 A 
HETATM   16  C14 UNL     1      30.373   8.576  46.565  1.00  0.00     0.117 A 
HETATM   17  N3  UNL     1      31.514   7.942  46.964  1.00  0.00    -0.270 NA
HETATM   18  C15 UNL     1      31.375   6.883  47.777  1.00  0.00     0.153 A 
HETATM   19  C16 UNL     1      30.107   6.508  48.152  1.00  0.00     0.094 A 
HETATM   20  C17 UNL     1      26.499   7.500  47.451  1.00  0.00     0.128 C 
HETATM   21  N4  UNL     1      25.284   7.784  47.860  1.00  0.00    -0.271 NA
HETATM   22  C18 UNL     1      24.706   7.408  49.125  1.00  0.00     0.130 C 
HETATM   23  C19 UNL     1      24.965   6.310  49.858  1.00  0.00     0.017 C 
HETATM   24  H1  UNL     1      23.228   7.851  52.245  1.00  0.00     0.186 HD
HETATM   25  H4  UNL     1      21.834   4.589  50.441  1.00  0.00     0.159 HD
ENDROOT
BRANCH  19  26
HETATM   26  O1  UNL     1      30.088   5.415  48.980  1.00  0.00    -0.358 OA
HETATM   27  H14 UNL     1      30.643   4.606  48.715  1.00  0.00     0.217 HD
ENDBRANCH  19  26
TORSDOF 1
ENDMDL
MODEL 6
REMARK VINA RESULT:      -8.3      3.158      3.723
REMARK  1 active torsions:
REMARK  status: ('A' for Active; 'I' for Inactive)
REMARK    1  A    between atoms: C16_19  and  O1_20 
ROOT
HETATM    1  N1  UNL     1      24.458   6.579  50.072  1.00  0.00    -0.302 NA
HETATM    2  C1  UNL     1      23.832   5.572  49.505  1.00  0.00     0.056 C 
HETATM    3  C2  UNL     1      22.680   6.042  48.743  1.00  0.00     0.178 C 
HETATM    4  N2  UNL     1      22.935   5.863  47.301  1.00  0.00    -0.392 N 
HETATM    5  C3  UNL     1      21.872   6.156  46.403  1.00  0.00     0.095 C 
HETATM    6  C4  UNL     1      21.092   5.154  46.107  1.00  0.00    -0.009 C 
HETATM    7  C5  UNL     1      21.685   4.049  45.752  1.00  0.00     0.013 C 
HETATM    8  C6  UNL     1      22.143   3.422  46.955  1.00  0.00     0.001 C 
HETATM    9  C7  UNL     1      22.267   2.517  47.917  1.00  0.00     0.001 C 
HETATM   10  C8  UNL     1      22.899   2.130  49.173  1.00  0.00     0.012 C 
HETATM   11  C9  UNL     1      23.763   2.894  49.821  1.00  0.00    -0.022 C 
HETATM   12  C10 UNL     1      24.107   2.046  51.003  1.00  0.00     0.026 C 
HETATM   13  C11 UNL     1      25.311   1.798  51.570  1.00  0.00    -0.005 C 
HETATM   14  C12 UNL     1      25.465   0.953  52.717  1.00  0.00     0.011 A 
HETATM   15  C13 UNL     1      26.720   0.825  53.259  1.00  0.00     0.034 A 
HETATM   16  C14 UNL     1      26.978   0.032  54.351  1.00  0.00     0.117 A 
HETATM   17  N3  UNL     1      26.005  -0.690  54.981  1.00  0.00    -0.270 NA
HETATM   18  C15 UNL     1      24.760  -0.600  54.491  1.00  0.00     0.153 A 
HETATM   19  C16 UNL     1      24.544   0.204  53.397  1.00  0.00     0.094 A 
HETATM   20  C17 UNL     1      26.548   2.356  50.980  1.00  0.00     0.128 C 
HETATM   21  N4  UNL     1      26.730   3.472  50.313  1.00  0.00    -0.271 NA
HETATM   22  C18 UNL     1      25.716   4.445  49.996  1.00  0.00     0.130 C 
HETATM   23  C19 UNL     1      24.407   4.231  49.770  1.00  0.00     0.017 C 
HETATM   24  H1  UNL     1      24.131   7.544  49.957  1.00  0.00     0.186 HD
HETATM   25  H4  UNL     1      23.593   5.607  46.522  1.00  0.00     0.159 HD
ENDROOT
BRANCH  19  26
HETATM   26  O1  UNL     1      23.236   0.217  52.985  1.00  0.00    -0.358 OA
HETATM   27  H14 UNL     1      22.718  -0.657  53.014  1.00  0.00     0.217 HD
ENDBRANCH  19  26
TORSDOF 1
ENDMDL
MODEL 7
REMARK VINA RESULT:      -8.2      3.028      4.303
REMARK  1 active torsions:
REMARK  status: ('A' for Active; 'I' for Inactive)
REMARK    1  A    between atoms: C16_19  and  O1_20 
ROOT
HETATM    1  N1  UNL     1      21.581   0.982  48.208  1.00  0.00    -0.302 NA
HETATM    2  C1  UNL     1      22.240   2.110  48.356  1.00  0.00     0.056 C 
HETATM    3  C2  UNL     1      22.274   2.858  47.104  1.00  0.00     0.178 C 
HETATM    4  N2  UNL     1      21.444   4.069  47.229  1.00  0.00    -0.392 N 
HETATM    5  C3  UNL     1      21.452   4.988  46.144  1.00  0.00     0.095 C 
HETATM    6  C4  UNL     1      22.349   5.933  46.212  1.00  0.00    -0.009 C 
HETATM    7  C5  UNL     1      22.423   6.576  47.342  1.00  0.00     0.013 C 
HETATM    8  C6  UNL     1      23.144   5.735  48.250  1.00  0.00     0.001 C 
HETATM    9  C7  UNL     1      24.103   5.322  49.068  1.00  0.00     0.001 C 
HETATM   10  C8  UNL     1      24.607   4.274  49.948  1.00  0.00     0.012 C 
HETATM   11  C9  UNL     1      23.984   3.125  50.146  1.00  0.00    -0.022 C 
HETATM   12  C10 UNL     1      24.891   2.438  51.115  1.00  0.00     0.026 C 
HETATM   13  C11 UNL     1      24.592   1.733  52.232  1.00  0.00    -0.005 C 
HETATM   14  C12 UNL     1      25.597   1.129  53.056  1.00  0.00     0.011 A 
HETATM   15  C13 UNL     1      25.184   0.375  54.125  1.00  0.00     0.034 A 
HETATM   16  C14 UNL     1      26.065  -0.238  54.984  1.00  0.00     0.117 A 
HETATM   17  N3  UNL     1      27.419  -0.142  54.839  1.00  0.00    -0.270 NA
HETATM   18  C15 UNL     1      27.875   0.585  53.808  1.00  0.00     0.153 A 
HETATM   19  C16 UNL     1      26.961   1.181  52.972  1.00  0.00     0.094 A 
HETATM   20  C17 UNL     1      23.189   1.605  52.685  1.00  0.00     0.128 C 
HETATM   21  N4  UNL     1      22.080   1.584  51.984  1.00  0.00    -0.271 NA
HETATM   22  C18 UNL     1      21.981   1.684  50.550  1.00  0.00     0.130 C 
HETATM   23  C19 UNL     1      22.793   2.352  49.711  1.00  0.00     0.017 C 
HETATM   24  H1  UNL     1      21.169   0.719  47.306  1.00  0.00     0.186 HD
HETATM   25  H4  UNL     1      20.764   4.649  47.784  1.00  0.00     0.159 HD
ENDROOT
BRANCH  19  26
HETATM   26  O1  UNL     1      27.543   1.898  51.957  1.00  0.00    -0.358 OA
HETATM   27  H14 UNL     1      28.557   1.891  51.889  1.00  0.00     0.217 HD
ENDBRANCH  19  26
TORSDOF 1
ENDMDL
MODEL 8
REMARK VINA RESULT:      -8.1      4.143      7.465
REMARK  1 active torsions:
REMARK  status: ('A' for Active; 'I' for Inactive)
REMARK    1  A    between atoms: C16_19  and  O1_20 
ROOT
HETATM    1  N1  UNL     1      27.162   3.597  50.712  1.00  0.00    -0.302 NA
HETATM    2  C1  UNL     1      26.040   2.923  50.838  1.00  0.00     0.056 C 
HETATM    3  C2  UNL     1      26.286   1.620  51.447  1.00  0.00     0.178 C 
HETATM    4  N2  UNL     1      25.708   1.592  52.804  1.00  0.00    -0.392 N 
HETATM    5  C3  UNL     1      25.744   0.359  53.509  1.00  0.00     0.095 C 
HETATM    6  C4  UNL     1      24.705  -0.412  53.351  1.00  0.00    -0.009 C 
HETATM    7  C5  UNL     1      23.541   0.154  53.501  1.00  0.00     0.013 C 
HETATM    8  C6  UNL     1      23.273   0.874  52.293  1.00  0.00     0.001 C 
HETATM    9  C7  UNL     1      22.674   1.232  51.165  1.00  0.00     0.001 C 
HETATM   10  C8  UNL     1      22.650   2.121  50.009  1.00  0.00     0.012 C 
HETATM   11  C9  UNL     1      23.560   3.056  49.788  1.00  0.00    -0.022 C 
HETATM   12  C10 UNL     1      23.075   3.671  48.515  1.00  0.00     0.026 C 
HETATM   13  C11 UNL     1      22.988   4.975  48.161  1.00  0.00    -0.005 C 
HETATM   14  C12 UNL     1      22.498   5.397  46.882  1.00  0.00     0.011 A 
HETATM   15  C13 UNL     1      22.519   6.739  46.596  1.00  0.00     0.034 A 
HETATM   16  C14 UNL     1      22.062   7.250  45.404  1.00  0.00     0.117 A 
HETATM   17  N3  UNL     1      21.552   6.460  44.414  1.00  0.00    -0.270 NA
HETATM   18  C15 UNL     1      21.509   5.140  44.644  1.00  0.00     0.153 A 
HETATM   19  C16 UNL     1      21.976   4.669  45.848  1.00  0.00     0.094 A 
HETATM   20  C17 UNL     1      23.349   6.040  49.123  1.00  0.00     0.128 C 
HETATM   21  N4  UNL     1      24.232   6.028  50.095  1.00  0.00    -0.271 NA
HETATM   22  C18 UNL     1      25.084   4.922  50.453  1.00  0.00     0.130 C 
HETATM   23  C19 UNL     1      24.824   3.608  50.337  1.00  0.00     0.017 C 
HETATM   24  H1  UNL     1      28.058   3.205  51.020  1.00  0.00     0.186 HD
HETATM   25  H4  UNL     1      25.239   2.095  53.600  1.00  0.00     0.159 HD
ENDROOT
BRANCH  19  26
HETATM   26  O1  UNL     1      21.882   3.306  45.971  1.00  0.00    -0.358 OA
HETATM   27  H14 UNL     1      21.358   2.933  46.757  1.00  0.00     0.217 HD
ENDBRANCH  19  26
TORSDOF 1
ENDMDL
MODEL 9
REMARK VINA RESULT:      -8.0      3.415      5.846
REMARK  1 active torsions:
REMARK  status: ('A' for Active; 'I' for Inactive)
REMARK    1  A    between atoms: C16_19  and  O1_20 
ROOT
HETATM    1  N1  UNL     1      19.786   1.689  50.931  1.00  0.00    -0.302 NA
HETATM    2  C1  UNL     1      20.883   1.604  51.649  1.00  0.00     0.056 C 
HETATM    3  C2  UNL     1      20.643   0.847  52.872  1.00  0.00     0.178 C 
HETATM    4  N2  UNL     1      21.354  -0.444  52.801  1.00  0.00    -0.392 N 
HETATM    5  C3  UNL     1      21.335  -1.270  53.957  1.00  0.00     0.095 C 
HETATM    6  C4  UNL     1      22.318  -1.091  54.795  1.00  0.00    -0.009 C 
HETATM    7  C5  UNL     1      23.515  -1.071  54.280  1.00  0.00     0.013 C 
HETATM    8  C6  UNL     1      23.691   0.224  53.695  1.00  0.00     0.001 C 
HETATM    9  C7  UNL     1      24.188   1.435  53.479  1.00  0.00     0.001 C 
HETATM   10  C8  UNL     1      24.134   2.671  52.707  1.00  0.00     0.012 C 
HETATM   11  C9  UNL     1      23.249   2.896  51.751  1.00  0.00    -0.022 C 
HETATM   12  C10 UNL     1      23.629   4.265  51.287  1.00  0.00     0.026 C 
HETATM   13  C11 UNL     1      23.737   4.755  50.029  1.00  0.00    -0.005 C 
HETATM   14  C12 UNL     1      24.113   6.112  49.759  1.00  0.00     0.011 A 
HETATM   15  C13 UNL     1      24.123   6.528  48.451  1.00  0.00     0.034 A 
HETATM   16  C14 UNL     1      24.479   7.804  48.082  1.00  0.00     0.117 A 
HETATM   17  N3  UNL     1      24.851   8.754  48.989  1.00  0.00    -0.270 NA
HETATM   18  C15 UNL     1      24.858   8.397  50.282  1.00  0.00     0.153 A 
HETATM   19  C16 UNL     1      24.496   7.112  50.610  1.00  0.00     0.094 A 
HETATM   20  C17 UNL     1      23.522   3.875  48.860  1.00  0.00     0.128 C 
HETATM   21  N4  UNL     1      22.742   2.827  48.731  1.00  0.00    -0.271 NA
HETATM   22  C18 UNL     1      21.882   2.279  49.750  1.00  0.00     0.130 C 
HETATM   23  C19 UNL     1      22.072   2.287  51.081  1.00  0.00     0.017 C 
HETATM   24  H1  UNL     1      18.909   1.259  51.242  1.00  0.00     0.186 HD
HETATM   25  H4  UNL     1      21.923  -1.137  52.250  1.00  0.00     0.159 HD
ENDROOT
BRANCH  19  26
HETATM   26  O1  UNL     1      24.542   6.863  51.957  1.00  0.00    -0.358 OA
HETATM   27  H14 UNL     1      24.144   7.557  52.584  1.00  0.00     0.217 HD
ENDBRANCH  19  26
TORSDOF 1
ENDMDL
