MODEL 1
REMARK VINA RESULT:      -8.3      0.000      0.000
REMARK  8 active torsions:
REMARK  status: ('A' for Active; 'I' for Inactive)
REMARK    1  A    between atoms: C2_2  and  N1_3 
REMARK       I    between atoms: N1_3  and  C3_4 
REMARK    2  A    between atoms: C3_4  and  C4_6 
REMARK    3  A    between atoms: C5_7  and  C6_8 
REMARK    4  A    between atoms: C6_8  and  N2_9 
REMARK    5  A    between atoms: C9_12  and  C10_13 
REMARK    6  A    between atoms: C9_12  and  C23_29 
REMARK    7  A    between atoms: C15_19  and  N4_20 
REMARK    8  A    between atoms: N4_20  and  C16_21 
ROOT
HETATM    1  C10 UNL     1      21.572  -0.009  53.131  1.00  0.00     0.039 C 
HETATM    2  C11 UNL     1      22.656  -0.527  53.633  1.00  0.00     0.042 C 
HETATM    3  C12 UNL     1      22.390  -1.047  55.025  1.00  0.00     0.105 C 
HETATM    4  C13 UNL     1      23.571  -1.580  55.689  1.00  0.00     0.090 C 
HETATM    5  N3  UNL     1      24.843  -1.355  55.739  1.00  0.00    -0.298 NA
HETATM    6  C14 UNL     1      25.449  -0.296  54.965  1.00  0.00     0.226 C 
HETATM    7  C15 UNL     1      25.101  -0.551  53.517  1.00  0.00     0.124 C 
HETATM    8  N5  UNL     1      23.919  -0.639  53.005  1.00  0.00    -0.238 NA
ENDROOT
BRANCH   1   9
HETATM    9  C9  UNL     1      21.138   0.640  51.907  1.00  0.00    -0.006 C 
HETATM   10  C2  UNL     1      21.810   1.343  51.019  1.00  0.00     0.017 C 
HETATM   11  C1  UNL     1      21.210   1.945  49.826  1.00  0.00     0.069 C 
BRANCH  10  12
HETATM   12  N1  UNL     1      23.179   1.620  51.122  1.00  0.00    -0.327 N 
HETATM   13  C3  UNL     1      24.127   2.523  51.536  1.00  0.00     0.245 C 
HETATM   14  O1  UNL     1      23.494   3.531  52.022  1.00  0.00    -0.268 OA
HETATM   15  H4  UNL     1      23.799   0.830  50.749  1.00  0.00     0.169 HD
BRANCH  13  16
HETATM   16  C4  UNL     1      25.573   2.490  51.498  1.00  0.00     0.072 C 
HETATM   17  C5  UNL     1      26.144   3.182  50.538  1.00  0.00     0.008 C 
BRANCH  17  18
HETATM   18  C6  UNL     1      25.976   4.050  49.386  1.00  0.00     0.299 C 
BRANCH  18  19
HETATM   19  N2  UNL     1      26.170   5.464  49.719  1.00  0.00     0.083 N 
HETATM   20  C7  UNL     1      24.902   6.123  49.931  1.00  0.00     0.309 C 
HETATM   21  C8  UNL     1      26.814   6.110  48.579  1.00  0.00     0.309 C 
ENDBRANCH  18  19
ENDBRANCH  17  18
ENDBRANCH  13  16
ENDBRANCH  10  12
BRANCH   9  22
HETATM   22  C23 UNL     1      19.745   0.228  51.821  1.00  0.00     0.262 C 
HETATM   23  F1  UNL     1      19.294  -0.694  52.726  1.00  0.00    -0.251 F 
ENDBRANCH   9  22
ENDBRANCH   1   9
BRANCH   7  24
HETATM   24  N4  UNL     1      26.198  -0.748  52.648  1.00  0.00    -0.343 N 
HETATM   25  H21 UNL     1      25.999  -1.247  51.739  1.00  0.00     0.167 HD
BRANCH  24  26
HETATM   26  C16 UNL     1      27.487  -0.276  53.011  1.00  0.00     0.039 A 
HETATM   27  C17 UNL     1      28.053   0.943  53.264  1.00  0.00     0.030 A 
HETATM   28  C18 UNL     1      29.381   1.089  53.580  1.00  0.00     0.002 A 
HETATM   29  C19 UNL     1      30.238   0.027  53.668  1.00  0.00     0.001 A 
HETATM   30  C20 UNL     1      29.692  -1.220  53.417  1.00  0.00     0.009 A 
HETATM   31  C21 UNL     1      28.346  -1.380  53.096  1.00  0.00    -0.035 A 
HETATM   32  C22 UNL     1      28.000  -2.828  52.866  1.00  0.00     0.050 C 
ENDBRANCH  24  26
ENDBRANCH   7  24
TORSDOF 8
ENDMDL
MODEL 2
REMARK VINA RESULT:      -8.3      1.509      6.033
REMARK  8 active torsions:
REMARK  status: ('A' for Active; 'I' for Inactive)
REMARK    1  A    between atoms: C2_2  and  N1_3 
REMARK       I    between atoms: N1_3  and  C3_4 
REMARK    2  A    between atoms: C3_4  and  C4_6 
REMARK    3  A    between atoms: C5_7  and  C6_8 
REMARK    4  A    between atoms: C6_8  and  N2_9 
REMARK    5  A    between atoms: C9_12  and  C10_13 
REMARK    6  A    between atoms: C9_12  and  C23_29 
REMARK    7  A    between atoms: C15_19  and  N4_20 
REMARK    8  A    between atoms: N4_20  and  C16_21 
ROOT
HETATM    1  C10 UNL     1      21.002   0.297  51.568  1.00  0.00     0.039 C 
HETATM    2  C11 UNL     1      21.353   1.266  50.774  1.00  0.00     0.042 C 
HETATM    3  C12 UNL     1      20.555   1.208  49.494  1.00  0.00     0.105 C 
HETATM    4  C13 UNL     1      20.936   2.217  48.517  1.00  0.00     0.090 C 
HETATM    5  N3  UNL     1      21.999   2.840  48.126  1.00  0.00    -0.298 NA
HETATM    6  C14 UNL     1      23.286   2.582  48.733  1.00  0.00     0.226 C 
HETATM    7  C15 UNL     1      23.136   2.847  50.214  1.00  0.00     0.124 C 
HETATM    8  N5  UNL     1      22.316   2.272  51.027  1.00  0.00    -0.238 NA
ENDROOT
BRANCH   1   9
HETATM    9  C9  UNL     1      21.346  -0.216  52.882  1.00  0.00    -0.006 C 
HETATM   10  C2  UNL     1      22.517  -0.406  53.455  1.00  0.00     0.017 C 
HETATM   11  C1  UNL     1      22.692  -0.948  54.804  1.00  0.00     0.069 C 
BRANCH  10  12
HETATM   12  N1  UNL     1      23.740  -0.131  52.830  1.00  0.00    -0.327 N 
HETATM   13  C3  UNL     1      24.757   0.778  52.674  1.00  0.00     0.245 C 
HETATM   14  O1  UNL     1      24.455   1.800  53.395  1.00  0.00    -0.268 OA
HETATM   15  H4  UNL     1      24.086  -0.932  52.209  1.00  0.00     0.169 HD
BRANCH  13  16
HETATM   16  C4  UNL     1      25.975   0.740  51.896  1.00  0.00     0.072 C 
HETATM   17  C5  UNL     1      26.998   0.125  52.447  1.00  0.00     0.008 C 
BRANCH  17  18
HETATM   18  C6  UNL     1      27.517  -0.607  53.589  1.00  0.00     0.299 C 
BRANCH  18  19
HETATM   19  N2  UNL     1      28.770  -0.040  54.092  1.00  0.00     0.083 N 
HETATM   20  C7  UNL     1      28.910   1.340  53.690  1.00  0.00     0.309 C 
HETATM   21  C8  UNL     1      29.874  -0.785  53.492  1.00  0.00     0.309 C 
ENDBRANCH  18  19
ENDBRANCH  17  18
ENDBRANCH  13  16
ENDBRANCH  10  12
BRANCH   9  22
HETATM   22  C23 UNL     1      20.037  -0.383  53.496  1.00  0.00     0.262 C 
HETATM   23  F1  UNL     1      19.631  -1.653  53.802  1.00  0.00    -0.251 F 
ENDBRANCH   9  22
ENDBRANCH   1   9
BRANCH   7  24
HETATM   24  N4  UNL     1      23.968   3.860  50.742  1.00  0.00    -0.343 N 
HETATM   25  H21 UNL     1      23.683   4.269  51.673  1.00  0.00     0.167 HD
BRANCH  24  26
HETATM   26  C16 UNL     1      25.123   4.276  50.029  1.00  0.00     0.039 A 
HETATM   27  C17 UNL     1      26.314   3.708  49.669  1.00  0.00     0.030 A 
HETATM   28  C18 UNL     1      27.280   4.395  48.977  1.00  0.00     0.002 A 
HETATM   29  C19 UNL     1      27.126   5.699  48.594  1.00  0.00     0.001 A 
HETATM   30  C20 UNL     1      25.929   6.300  48.946  1.00  0.00     0.009 A 
HETATM   31  C21 UNL     1      24.942   5.612  49.647  1.00  0.00    -0.035 A 
HETATM   32  C22 UNL     1      23.741   6.484  49.911  1.00  0.00     0.050 C 
ENDBRANCH  24  26
ENDBRANCH   7  24
TORSDOF 8
ENDMDL
MODEL 3
REMARK VINA RESULT:      -7.9      2.207      5.025
REMARK  8 active torsions:
REMARK  status: ('A' for Active; 'I' for Inactive)
REMARK    1  A    between atoms: C2_2  and  N1_3 
REMARK       I    between atoms: N1_3  and  C3_4 
REMARK    2  A    between atoms: C3_4  and  C4_6 
REMARK    3  A    between atoms: C5_7  and  C6_8 
REMARK    4  A    between atoms: C6_8  and  N2_9 
REMARK    5  A    between atoms: C9_12  and  C10_13 
REMARK    6  A    between atoms: C9_12  and  C23_29 
REMARK    7  A    between atoms: C15_19  and  N4_20 
REMARK    8  A    between atoms: N4_20  and  C16_21 
ROOT
HETATM    1  C10 UNL     1      23.421  -0.582  53.316  1.00  0.00     0.039 C 
HETATM    2  C11 UNL     1      24.389   0.150  52.842  1.00  0.00     0.042 C 
HETATM    3  C12 UNL     1      25.700  -0.593  52.936  1.00  0.00     0.105 C 
HETATM    4  C13 UNL     1      26.848   0.184  52.493  1.00  0.00     0.090 C 
HETATM    5  N3  UNL     1      27.250   1.412  52.494  1.00  0.00    -0.298 NA
HETATM    6  C14 UNL     1      26.442   2.466  53.064  1.00  0.00     0.226 C 
HETATM    7  C15 UNL     1      25.110   2.436  52.349  1.00  0.00     0.124 C 
HETATM    8  N5  UNL     1      24.284   1.446  52.285  1.00  0.00    -0.238 NA
ENDROOT
BRANCH   1   9
HETATM    9  C9  UNL     1      21.988  -0.493  53.525  1.00  0.00    -0.006 C 
HETATM   10  C2  UNL     1      21.008  -0.236  52.683  1.00  0.00     0.017 C 
HETATM   11  C1  UNL     1      19.595  -0.175  53.064  1.00  0.00     0.069 C 
BRANCH  10  12
HETATM   12  N1  UNL     1      21.203   0.033  51.323  1.00  0.00    -0.327 N 
HETATM   13  C3  UNL     1      21.250   1.003  50.352  1.00  0.00     0.245 C 
HETATM   14  O1  UNL     1      21.006   2.124  50.934  1.00  0.00    -0.268 OA
HETATM   15  H4  UNL     1      21.424  -0.843  50.746  1.00  0.00     0.169 HD
BRANCH  13  16
HETATM   16  C4  UNL     1      21.504   0.934  48.930  1.00  0.00     0.072 C 
HETATM   17  C5  UNL     1      22.102   1.976  48.396  1.00  0.00     0.008 C 
BRANCH  17  18
HETATM   18  C6  UNL     1      22.682   3.292  48.596  1.00  0.00     0.299 C 
BRANCH  18  19
HETATM   19  N2  UNL     1      21.950   4.340  47.880  1.00  0.00     0.083 N 
HETATM   20  C7  UNL     1      20.575   4.401  48.317  1.00  0.00     0.309 C 
HETATM   21  C8  UNL     1      21.943   3.993  46.461  1.00  0.00     0.309 C 
ENDBRANCH  18  19
ENDBRANCH  17  18
ENDBRANCH  13  16
ENDBRANCH  10  12
BRANCH   9  22
HETATM   22  C23 UNL     1      21.859  -0.878  54.923  1.00  0.00     0.262 C 
HETATM   23  F1  UNL     1      23.002  -1.191  55.607  1.00  0.00    -0.251 F 
ENDBRANCH   9  22
ENDBRANCH   1   9
BRANCH   7  24
HETATM   24  N4  UNL     1      24.761   3.616  51.654  1.00  0.00    -0.343 N 
HETATM   25  H21 UNL     1      23.872   4.100  51.958  1.00  0.00     0.167 HD
BRANCH  24  26
HETATM   26  C16 UNL     1      25.592   4.099  50.610  1.00  0.00     0.039 A 
HETATM   27  C17 UNL     1      26.632   3.605  49.872  1.00  0.00     0.030 A 
HETATM   28  C18 UNL     1      27.275   4.346  48.912  1.00  0.00     0.002 A 
HETATM   29  C19 UNL     1      26.925   5.636  48.621  1.00  0.00     0.001 A 
HETATM   30  C20 UNL     1      25.875   6.163  49.353  1.00  0.00     0.009 A 
HETATM   31  C21 UNL     1      25.215   5.419  50.328  1.00  0.00    -0.035 A 
HETATM   32  C22 UNL     1      24.116   6.215  50.983  1.00  0.00     0.050 C 
ENDBRANCH  24  26
ENDBRANCH   7  24
TORSDOF 8
ENDMDL
MODEL 4
REMARK VINA RESULT:      -7.7      2.130      5.339
REMARK  8 active torsions:
REMARK  status: ('A' for Active; 'I' for Inactive)
REMARK    1  A    between atoms: C2_2  and  N1_3 
REMARK       I    between atoms: N1_3  and  C3_4 
REMARK    2  A    between atoms: C3_4  and  C4_6 
REMARK    3  A    between atoms: C5_7  and  C6_8 
REMARK    4  A    between atoms: C6_8  and  N2_9 
REMARK    5  A    between atoms: C9_12  and  C10_13 
REMARK    6  A    between atoms: C9_12  and  C23_29 
REMARK    7  A    between atoms: C15_19  and  N4_20 
REMARK    8  A    between atoms: N4_20  and  C16_21 
ROOT
HETATM    1  C10 UNL     1      23.733  -0.465  53.559  1.00  0.00     0.039 C 
HETATM    2  C11 UNL     1      24.828   0.027  53.055  1.00  0.00     0.042 C 
HETATM    3  C12 UNL     1      25.987  -0.905  53.314  1.00  0.00     0.105 C 
HETATM    4  C13 UNL     1      27.267  -0.395  52.846  1.00  0.00     0.090 C 
HETATM    5  N3  UNL     1      27.875   0.739  52.719  1.00  0.00    -0.298 NA
HETATM    6  C14 UNL     1      27.241   1.978  53.109  1.00  0.00     0.226 C 
HETATM    7  C15 UNL     1      25.950   2.078  52.329  1.00  0.00     0.124 C 
HETATM    8  N5  UNL     1      24.969   1.239  52.338  1.00  0.00    -0.238 NA
ENDROOT
BRANCH   1   9
HETATM    9  C9  UNL     1      22.330  -0.112  53.673  1.00  0.00    -0.006 C 
HETATM   10  C2  UNL     1      21.556   0.615  52.892  1.00  0.00     0.017 C 
HETATM   11  C1  UNL     1      20.142   0.884  53.161  1.00  0.00     0.069 C 
BRANCH  10  12
HETATM   12  N1  UNL     1      22.002   1.237  51.720  1.00  0.00    -0.327 N 
HETATM   13  C3  UNL     1      21.978   1.224  50.347  1.00  0.00     0.245 C 
HETATM   14  O1  UNL     1      21.251   0.222  49.998  1.00  0.00    -0.268 OA
HETATM   15  H4  UNL     1      22.614   2.096  51.905  1.00  0.00     0.169 HD
BRANCH  13  16
HETATM   16  C4  UNL     1      22.594   2.086  49.363  1.00  0.00     0.072 C 
HETATM   17  C5  UNL     1      21.790   2.910  48.728  1.00  0.00     0.008 C 
BRANCH  17  18
HETATM   18  C6  UNL     1      20.435   3.400  48.543  1.00  0.00     0.299 C 
BRANCH  18  19
HETATM   19  N2  UNL     1      19.968   4.191  49.684  1.00  0.00     0.083 N 
HETATM   20  C7  UNL     1      19.054   3.427  50.502  1.00  0.00     0.309 C 
HETATM   21  C8  UNL     1      19.233   5.341  49.163  1.00  0.00     0.309 C 
ENDBRANCH  18  19
ENDBRANCH  17  18
ENDBRANCH  13  16
ENDBRANCH  10  12
BRANCH   9  22
HETATM   22  C23 UNL     1      21.920  -0.868  54.848  1.00  0.00     0.262 C 
HETATM   23  F1  UNL     1      21.127  -1.966  54.656  1.00  0.00    -0.251 F 
ENDBRANCH   9  22
ENDBRANCH   1   9
BRANCH   7  24
HETATM   24  N4  UNL     1      25.834   3.198  51.476  1.00  0.00    -0.343 N 
HETATM   25  H21 UNL     1      26.632   3.367  50.804  1.00  0.00     0.167 HD
BRANCH  24  26
HETATM   26  C16 UNL     1      24.685   4.029  51.543  1.00  0.00     0.039 A 
HETATM   27  C17 UNL     1      23.626   4.176  52.395  1.00  0.00     0.030 A 
HETATM   28  C18 UNL     1      22.619   5.082  52.174  1.00  0.00     0.002 A 
HETATM   29  C19 UNL     1      22.598   5.908  51.084  1.00  0.00     0.001 A 
HETATM   30  C20 UNL     1      23.658   5.781  50.202  1.00  0.00     0.009 A 
HETATM   31  C21 UNL     1      24.685   4.865  50.418  1.00  0.00    -0.035 A 
HETATM   32  C22 UNL     1      25.714   4.917  49.318  1.00  0.00     0.050 C 
ENDBRANCH  24  26
ENDBRANCH   7  24
TORSDOF 8
ENDMDL
MODEL 5
REMARK VINA RESULT:      -7.7      2.007      6.207
REMARK  8 active torsions:
REMARK  status: ('A' for Active; 'I' for Inactive)
REMARK    1  A    between atoms: C2_2  and  N1_3 
REMARK       I    between atoms: N1_3  and  C3_4 
REMARK    2  A    between atoms: C3_4  and  C4_6 
REMARK    3  A    between atoms: C5_7  and  C6_8 
REMARK    4  A    between atoms: C6_8  and  N2_9 
REMARK    5  A    between atoms: C9_12  and  C10_13 
REMARK    6  A    between atoms: C9_12  and  C23_29 
REMARK    7  A    between atoms: C15_19  and  N4_20 
REMARK    8  A    between atoms: N4_20  and  C16_21 
ROOT
HETATM    1  C10 UNL     1      21.893  -0.064  52.265  1.00  0.00     0.039 C 
HETATM    2  C11 UNL     1      21.935   0.939  51.436  1.00  0.00     0.042 C 
HETATM    3  C12 UNL     1      20.803   0.842  50.441  1.00  0.00     0.105 C 
HETATM    4  C13 UNL     1      20.819   1.889  49.430  1.00  0.00     0.090 C 
HETATM    5  N3  UNL     1      21.680   2.590  48.769  1.00  0.00    -0.298 NA
HETATM    6  C14 UNL     1      23.101   2.415  48.968  1.00  0.00     0.226 C 
HETATM    7  C15 UNL     1      23.373   2.649  50.437  1.00  0.00     0.124 C 
HETATM    8  N5  UNL     1      22.864   2.007  51.434  1.00  0.00    -0.238 NA
ENDROOT
BRANCH   1   9
HETATM    9  C9  UNL     1      22.636  -0.569  53.405  1.00  0.00    -0.006 C 
HETATM   10  C2  UNL     1      23.898  -0.414  53.749  1.00  0.00     0.017 C 
HETATM   11  C1  UNL     1      24.501  -1.009  54.944  1.00  0.00     0.069 C 
BRANCH  10  12
HETATM   12  N1  UNL     1      24.823   0.320  52.997  1.00  0.00    -0.327 N 
HETATM   13  C3  UNL     1      25.963   0.269  52.233  1.00  0.00     0.245 C 
HETATM   14  O1  UNL     1      26.335  -0.962  52.203  1.00  0.00    -0.268 OA
HETATM   15  H4  UNL     1      24.595   1.366  52.953  1.00  0.00     0.169 HD
BRANCH  13  16
HETATM   16  C4  UNL     1      26.709   1.297  51.543  1.00  0.00     0.072 C 
HETATM   17  C5  UNL     1      27.493   2.045  52.287  1.00  0.00     0.008 C 
BRANCH  17  18
HETATM   18  C6  UNL     1      28.004   2.342  53.614  1.00  0.00     0.299 C 
BRANCH  18  19
HETATM   19  N2  UNL     1      29.057   1.411  54.027  1.00  0.00     0.083 N 
HETATM   20  C7  UNL     1      28.513   0.339  54.829  1.00  0.00     0.309 C 
HETATM   21  C8  UNL     1      30.004   2.145  54.862  1.00  0.00     0.309 C 
ENDBRANCH  18  19
ENDBRANCH  17  18
ENDBRANCH  13  16
ENDBRANCH  10  12
BRANCH   9  22
HETATM   22  C23 UNL     1      21.595  -1.231  54.178  1.00  0.00     0.262 C 
HETATM   23  F1  UNL     1      20.879  -0.475  55.064  1.00  0.00    -0.251 F 
ENDBRANCH   9  22
ENDBRANCH   1   9
BRANCH   7  24
HETATM   24  N4  UNL     1      24.257   3.710  50.735  1.00  0.00    -0.343 N 
HETATM   25  H21 UNL     1      24.962   3.539  51.503  1.00  0.00     0.167 HD
BRANCH  24  26
HETATM   26  C16 UNL     1      24.175   4.929  50.012  1.00  0.00     0.039 A 
HETATM   27  C17 UNL     1      23.226   5.894  49.813  1.00  0.00     0.030 A 
HETATM   28  C18 UNL     1      23.439   6.986  49.011  1.00  0.00     0.002 A 
HETATM   29  C19 UNL     1      24.617   7.195  48.348  1.00  0.00     0.001 A 
HETATM   30  C20 UNL     1      25.597   6.234  48.530  1.00  0.00     0.009 A 
HETATM   31  C21 UNL     1      25.391   5.122  49.343  1.00  0.00    -0.035 A 
HETATM   32  C22 UNL     1      26.603   4.226  49.374  1.00  0.00     0.050 C 
ENDBRANCH  24  26
ENDBRANCH   7  24
TORSDOF 8
ENDMDL
MODEL 6
REMARK VINA RESULT:      -7.7      1.656      2.251
REMARK  8 active torsions:
REMARK  status: ('A' for Active; 'I' for Inactive)
REMARK    1  A    between atoms: C2_2  and  N1_3 
REMARK       I    between atoms: N1_3  and  C3_4 
REMARK    2  A    between atoms: C3_4  and  C4_6 
REMARK    3  A    between atoms: C5_7  and  C6_8 
REMARK    4  A    between atoms: C6_8  and  N2_9 
REMARK    5  A    between atoms: C9_12  and  C10_13 
REMARK    6  A    between atoms: C9_12  and  C23_29 
REMARK    7  A    between atoms: C15_19  and  N4_20 
REMARK    8  A    between atoms: N4_20  and  C16_21 
ROOT
HETATM    1  C10 UNL     1      21.146  -0.155  53.644  1.00  0.00     0.039 C 
HETATM    2  C11 UNL     1      22.352  -0.542  53.946  1.00  0.00     0.042 C 
HETATM    3  C12 UNL     1      22.348  -1.281  55.263  1.00  0.00     0.105 C 
HETATM    4  C13 UNL     1      23.671  -1.688  55.712  1.00  0.00     0.090 C 
HETATM    5  N3  UNL     1      24.889  -1.258  55.665  1.00  0.00    -0.298 NA
HETATM    6  C14 UNL     1      25.221  -0.016  55.004  1.00  0.00     0.226 C 
HETATM    7  C15 UNL     1      24.736  -0.132  53.577  1.00  0.00     0.124 C 
HETATM    8  N5  UNL     1      23.527  -0.351  53.182  1.00  0.00    -0.238 NA
ENDROOT
BRANCH   1   9
HETATM    9  C9  UNL     1      20.466   0.568  52.585  1.00  0.00    -0.006 C 
HETATM   10  C2  UNL     1      20.757   1.709  51.994  1.00  0.00     0.017 C 
HETATM   11  C1  UNL     1      19.949   2.313  50.932  1.00  0.00     0.069 C 
BRANCH  10  12
HETATM   12  N1  UNL     1      21.867   2.495  52.328  1.00  0.00    -0.327 N 
HETATM   13  C3  UNL     1      23.173   2.801  52.032  1.00  0.00     0.245 C 
HETATM   14  O1  UNL     1      23.516   2.049  51.047  1.00  0.00    -0.268 OA
HETATM   15  H4  UNL     1      21.679   3.168  53.140  1.00  0.00     0.169 HD
BRANCH  13  16
HETATM   16  C4  UNL     1      24.100   3.743  52.618  1.00  0.00     0.072 C 
HETATM   17  C5  UNL     1      24.153   4.931  52.058  1.00  0.00     0.008 C 
BRANCH  17  18
HETATM   18  C6  UNL     1      23.659   5.819  51.020  1.00  0.00     0.299 C 
BRANCH  18  19
HETATM   19  N2  UNL     1      22.220   5.666  50.792  1.00  0.00     0.083 N 
HETATM   20  C7  UNL     1      21.961   5.112  49.483  1.00  0.00     0.309 C 
HETATM   21  C8  UNL     1      21.615   6.994  50.833  1.00  0.00     0.309 C 
ENDBRANCH  18  19
ENDBRANCH  17  18
ENDBRANCH  13  16
ENDBRANCH  10  12
BRANCH   9  22
HETATM   22  C23 UNL     1      19.393  -0.349  52.230  1.00  0.00     0.262 C 
HETATM   23  F1  UNL     1      18.996  -1.262  53.168  1.00  0.00    -0.251 F 
ENDBRANCH   9  22
ENDBRANCH   1   9
BRANCH   7  24
HETATM   24  N4  UNL     1      25.731  -0.019  52.580  1.00  0.00    -0.343 N 
HETATM   25  H21 UNL     1      25.436   0.410  51.661  1.00  0.00     0.167 HD
BRANCH  24  26
HETATM   26  C16 UNL     1      27.054  -0.465  52.841  1.00  0.00     0.039 A 
HETATM   27  C17 UNL     1      27.682  -1.676  52.939  1.00  0.00     0.030 A 
HETATM   28  C18 UNL     1      29.016  -1.794  53.238  1.00  0.00     0.002 A 
HETATM   29  C19 UNL     1      29.820  -0.709  53.460  1.00  0.00     0.001 A 
HETATM   30  C20 UNL     1      29.210   0.531  53.368  1.00  0.00     0.009 A 
HETATM   31  C21 UNL     1      27.857   0.661  53.065  1.00  0.00    -0.035 A 
HETATM   32  C22 UNL     1      27.435   2.108  53.026  1.00  0.00     0.050 C 
ENDBRANCH  24  26
ENDBRANCH   7  24
TORSDOF 8
ENDMDL
MODEL 7
REMARK VINA RESULT:      -7.7      2.133      6.973
REMARK  8 active torsions:
REMARK  status: ('A' for Active; 'I' for Inactive)
REMARK    1  A    between atoms: C2_2  and  N1_3 
REMARK       I    between atoms: N1_3  and  C3_4 
REMARK    2  A    between atoms: C3_4  and  C4_6 
REMARK    3  A    between atoms: C5_7  and  C6_8 
REMARK    4  A    between atoms: C6_8  and  N2_9 
REMARK    5  A    between atoms: C9_12  and  C10_13 
REMARK    6  A    between atoms: C9_12  and  C23_29 
REMARK    7  A    between atoms: C15_19  and  N4_20 
REMARK    8  A    between atoms: N4_20  and  C16_21 
ROOT
HETATM    1  C10 UNL     1      21.492   0.109  51.388  1.00  0.00     0.039 C 
HETATM    2  C11 UNL     1      21.678   1.165  50.649  1.00  0.00     0.042 C 
HETATM    3  C12 UNL     1      21.346   0.859  49.208  1.00  0.00     0.105 C 
HETATM    4  C13 UNL     1      21.595   1.969  48.299  1.00  0.00     0.090 C 
HETATM    5  N3  UNL     1      22.427   2.949  48.167  1.00  0.00    -0.298 NA
HETATM    6  C14 UNL     1      23.494   3.162  49.118  1.00  0.00     0.226 C 
HETATM    7  C15 UNL     1      22.852   3.306  50.479  1.00  0.00     0.124 C 
HETATM    8  N5  UNL     1      22.101   2.445  51.079  1.00  0.00    -0.238 NA
ENDROOT
BRANCH   1   9
HETATM    9  C9  UNL     1      21.616  -0.285  52.779  1.00  0.00    -0.006 C 
HETATM   10  C2  UNL     1      22.679  -0.557  53.508  1.00  0.00     0.017 C 
HETATM   11  C1  UNL     1      22.628  -0.953  54.917  1.00  0.00     0.069 C 
BRANCH  10  12
HETATM   12  N1  UNL     1      23.988  -0.522  53.013  1.00  0.00    -0.327 N 
HETATM   13  C3  UNL     1      25.062   0.273  52.696  1.00  0.00     0.245 C 
HETATM   14  O1  UNL     1      24.717   1.484  52.954  1.00  0.00    -0.268 OA
HETATM   15  H4  UNL     1      24.375  -1.492  52.774  1.00  0.00     0.169 HD
BRANCH  13  16
HETATM   16  C4  UNL     1      26.372  -0.040  52.169  1.00  0.00     0.072 C 
HETATM   17  C5  UNL     1      27.345  -0.131  53.048  1.00  0.00     0.008 C 
BRANCH  17  18
HETATM   18  C6  UNL     1      27.749  -0.057  54.441  1.00  0.00     0.299 C 
BRANCH  18  19
HETATM   19  N2  UNL     1      29.151   0.337  54.596  1.00  0.00     0.083 N 
HETATM   20  C7  UNL     1      29.312   1.760  54.407  1.00  0.00     0.309 C 
HETATM   21  C8  UNL     1      29.924  -0.333  53.553  1.00  0.00     0.309 C 
ENDBRANCH  18  19
ENDBRANCH  17  18
ENDBRANCH  13  16
ENDBRANCH  10  12
BRANCH   9  22
HETATM   22  C23 UNL     1      20.238  -0.202  53.242  1.00  0.00     0.262 C 
HETATM   23  F1  UNL     1      19.940   0.726  54.201  1.00  0.00    -0.251 F 
ENDBRANCH   9  22
ENDBRANCH   1   9
BRANCH   7  24
HETATM   24  N4  UNL     1      23.079   4.536  51.137  1.00  0.00    -0.343 N 
HETATM   25  H21 UNL     1      23.758   4.522  51.946  1.00  0.00     0.167 HD
BRANCH  24  26
HETATM   26  C16 UNL     1      22.414   5.711  50.698  1.00  0.00     0.039 A 
HETATM   27  C17 UNL     1      21.131   6.052  50.374  1.00  0.00     0.030 A 
HETATM   28  C18 UNL     1      20.786   7.309  49.943  1.00  0.00     0.002 A 
HETATM   29  C19 UNL     1      21.701   8.317  49.806  1.00  0.00     0.001 A 
HETATM   30  C20 UNL     1      23.010   8.000  50.127  1.00  0.00     0.009 A 
HETATM   31  C21 UNL     1      23.370   6.728  50.565  1.00  0.00    -0.035 A 
HETATM   32  C22 UNL     1      24.848   6.636  50.845  1.00  0.00     0.050 C 
ENDBRANCH  24  26
ENDBRANCH   7  24
TORSDOF 8
ENDMDL
MODEL 8
REMARK VINA RESULT:      -7.6      3.260      5.896
REMARK  8 active torsions:
REMARK  status: ('A' for Active; 'I' for Inactive)
REMARK    1  A    between atoms: C2_2  and  N1_3 
REMARK       I    between atoms: N1_3  and  C3_4 
REMARK    2  A    between atoms: C3_4  and  C4_6 
REMARK    3  A    between atoms: C5_7  and  C6_8 
REMARK    4  A    between atoms: C6_8  and  N2_9 
REMARK    5  A    between atoms: C9_12  and  C10_13 
REMARK    6  A    between atoms: C9_12  and  C23_29 
REMARK    7  A    between atoms: C15_19  and  N4_20 
REMARK    8  A    between atoms: N4_20  and  C16_21 
ROOT
HETATM    1  C10 UNL     1      25.093   4.446  49.071  1.00  0.00     0.039 C 
HETATM    2  C11 UNL     1      24.759   3.520  49.924  1.00  0.00     0.042 C 
HETATM    3  C12 UNL     1      23.461   2.871  49.509  1.00  0.00     0.105 C 
HETATM    4  C13 UNL     1      22.977   1.871  50.449  1.00  0.00     0.090 C 
HETATM    5  N3  UNL     1      22.975   1.656  51.724  1.00  0.00    -0.298 NA
HETATM    6  C14 UNL     1      23.596   2.582  52.643  1.00  0.00     0.226 C 
HETATM    7  C15 UNL     1      25.040   2.722  52.220  1.00  0.00     0.124 C 
HETATM    8  N5  UNL     1      25.480   3.119  51.074  1.00  0.00    -0.238 NA
ENDROOT
BRANCH   1   9
HETATM    9  C9  UNL     1      26.157   5.412  48.870  1.00  0.00    -0.006 C 
HETATM   10  C2  UNL     1      26.117   6.719  48.709  1.00  0.00     0.017 C 
HETATM   11  C1  UNL     1      27.301   7.557  48.506  1.00  0.00     0.069 C 
BRANCH  10  12
HETATM   12  N1  UNL     1      24.930   7.462  48.690  1.00  0.00    -0.327 N 
HETATM   13  C3  UNL     1      24.077   8.258  49.415  1.00  0.00     0.245 C 
HETATM   14  O1  UNL     1      24.570   8.350  50.599  1.00  0.00    -0.268 OA
HETATM   15  H4  UNL     1      24.443   7.456  47.736  1.00  0.00     0.169 HD
BRANCH  13  16
HETATM   16  C4  UNL     1      22.842   8.922  49.060  1.00  0.00     0.072 C 
HETATM   17  C5  UNL     1      21.742   8.416  49.570  1.00  0.00     0.008 C 
BRANCH  17  18
HETATM   18  C6  UNL     1      21.137   7.396  50.410  1.00  0.00     0.299 C 
BRANCH  18  19
HETATM   19  N2  UNL     1      21.597   6.048  50.069  1.00  0.00     0.083 N 
HETATM   20  C7  UNL     1      21.122   5.655  48.762  1.00  0.00     0.309 C 
HETATM   21  C8  UNL     1      21.025   5.119  51.040  1.00  0.00     0.309 C 
ENDBRANCH  18  19
ENDBRANCH  17  18
ENDBRANCH  13  16
ENDBRANCH  10  12
BRANCH   9  22
HETATM   22  C23 UNL     1      27.348   4.585  48.999  1.00  0.00     0.262 C 
HETATM   23  F1  UNL     1      28.355   4.768  48.091  1.00  0.00    -0.251 F 
ENDBRANCH   9  22
ENDBRANCH   1   9
BRANCH   7  24
HETATM   24  N4  UNL     1      26.001   2.340  53.184  1.00  0.00    -0.343 N 
HETATM   25  H21 UNL     1      26.219   3.045  53.940  1.00  0.00     0.167 HD
BRANCH  24  26
HETATM   26  C16 UNL     1      26.614   1.062  53.110  1.00  0.00     0.039 A 
HETATM   27  C17 UNL     1      26.199  -0.215  52.854  1.00  0.00     0.030 A 
HETATM   28  C18 UNL     1      27.054  -1.289  52.879  1.00  0.00     0.002 A 
HETATM   29  C19 UNL     1      28.386  -1.163  53.161  1.00  0.00     0.001 A 
HETATM   30  C20 UNL     1      28.835   0.120  53.424  1.00  0.00     0.009 A 
HETATM   31  C21 UNL     1      27.977   1.216  53.401  1.00  0.00    -0.035 A 
HETATM   32  C22 UNL     1      28.704   2.496  53.723  1.00  0.00     0.050 C 
ENDBRANCH  24  26
ENDBRANCH   7  24
TORSDOF 8
ENDMDL
MODEL 9
REMARK VINA RESULT:      -7.6      2.422      4.993
REMARK  8 active torsions:
REMARK  status: ('A' for Active; 'I' for Inactive)
REMARK    1  A    between atoms: C2_2  and  N1_3 
REMARK       I    between atoms: N1_3  and  C3_4 
REMARK    2  A    between atoms: C3_4  and  C4_6 
REMARK    3  A    between atoms: C5_7  and  C6_8 
REMARK    4  A    between atoms: C6_8  and  N2_9 
REMARK    5  A    between atoms: C9_12  and  C10_13 
REMARK    6  A    between atoms: C9_12  and  C23_29 
REMARK    7  A    between atoms: C15_19  and  N4_20 
REMARK    8  A    between atoms: N4_20  and  C16_21 
ROOT
HETATM    1  C10 UNL     1      22.424   1.588  52.878  1.00  0.00     0.039 C 
HETATM    2  C11 UNL     1      22.868   0.501  53.439  1.00  0.00     0.042 C 
HETATM    3  C12 UNL     1      21.804  -0.101  54.326  1.00  0.00     0.105 C 
HETATM    4  C13 UNL     1      22.243  -1.284  55.051  1.00  0.00     0.090 C 
HETATM    5  N3  UNL     1      23.320  -1.748  55.594  1.00  0.00    -0.298 NA
HETATM    6  C14 UNL     1      24.557  -1.000  55.566  1.00  0.00     0.226 C 
HETATM    7  C15 UNL     1      24.875  -0.726  54.114  1.00  0.00     0.124 C 
HETATM    8  N5  UNL     1      24.140  -0.094  53.263  1.00  0.00    -0.238 NA
ENDROOT
BRANCH   1   9
HETATM    9  C9  UNL     1      22.893   2.614  51.964  1.00  0.00    -0.006 C 
HETATM   10  C2  UNL     1      22.291   3.212  50.956  1.00  0.00     0.017 C 
HETATM   11  C1  UNL     1      22.918   4.235  50.117  1.00  0.00     0.069 C 
BRANCH  10  12
HETATM   12  N1  UNL     1      20.981   2.923  50.553  1.00  0.00    -0.327 N 
HETATM   13  C3  UNL     1      19.649   3.012  50.872  1.00  0.00     0.245 C 
HETATM   14  O1  UNL     1      19.579   3.594  52.017  1.00  0.00    -0.268 OA
HETATM   15  H4  UNL     1      20.930   2.441  49.598  1.00  0.00     0.169 HD
BRANCH  13  16
HETATM   16  C4  UNL     1      18.458   2.584  50.172  1.00  0.00     0.072 C 
HETATM   17  C5  UNL     1      18.068   1.348  50.391  1.00  0.00     0.008 C 
BRANCH  17  18
HETATM   18  C6  UNL     1      18.306   0.092  51.081  1.00  0.00     0.299 C 
BRANCH  18  19
HETATM   19  N2  UNL     1      17.312  -0.168  52.125  1.00  0.00     0.083 N 
HETATM   20  C7  UNL     1      17.744  -1.240  52.992  1.00  0.00     0.309 C 
HETATM   21  C8  UNL     1      16.079  -0.602  51.474  1.00  0.00     0.309 C 
ENDBRANCH  18  19
ENDBRANCH  17  18
ENDBRANCH  13  16
ENDBRANCH  10  12
BRANCH   9  22
HETATM   22  C23 UNL     1      24.208   2.926  52.504  1.00  0.00     0.262 C 
HETATM   23  F1  UNL     1      24.274   3.446  53.767  1.00  0.00    -0.251 F 
ENDBRANCH   9  22
ENDBRANCH   1   9
BRANCH   7  24
HETATM   24  N4  UNL     1      26.098  -1.256  53.645  1.00  0.00    -0.343 N 
HETATM   25  H21 UNL     1      26.065  -2.224  53.224  1.00  0.00     0.167 HD
BRANCH  24  26
HETATM   26  C16 UNL     1      27.290  -0.491  53.745  1.00  0.00     0.039 A 
HETATM   27  C17 UNL     1      27.610   0.791  54.097  1.00  0.00     0.030 A 
HETATM   28  C18 UNL     1      28.898   1.265  54.072  1.00  0.00     0.002 A 
HETATM   29  C19 UNL     1      29.960   0.491  53.693  1.00  0.00     0.001 A 
HETATM   30  C20 UNL     1      29.666  -0.812  53.330  1.00  0.00     0.009 A 
HETATM   31  C21 UNL     1      28.363  -1.304  53.353  1.00  0.00    -0.035 A 
HETATM   32  C22 UNL     1      28.306  -2.744  52.913  1.00  0.00     0.050 C 
ENDBRANCH  24  26
ENDBRANCH   7  24
TORSDOF 8
ENDMDL
