MODEL 1
REMARK VINA RESULT:      -8.3      0.000      0.000
REMARK  0 active torsions:
REMARK  status: ('A' for Active; 'I' for Inactive)
ROOT
HETATM    1  C1  UNL     1      25.310  -0.183  53.359  1.00  0.00     0.057 C 
HETATM    2  C2  UNL     1      25.390   0.740  52.443  1.00  0.00    -0.016 C 
HETATM    3  C3  UNL     1      24.000   1.173  52.460  1.00  0.00     0.071 C 
HETATM    4  C4  UNL     1      23.067   0.435  53.394  1.00  0.00     0.126 C 
HETATM    5  N1  UNL     1      21.743   1.013  53.388  1.00  0.00    -0.384 N 
HETATM    6  C5  UNL     1      20.623   1.221  52.587  1.00  0.00     0.203 C 
HETATM    7  N2  UNL     1      19.565   1.887  52.439  1.00  0.00    -0.246 NA
HETATM    8  C6  UNL     1      18.666   1.701  51.324  1.00  0.00     0.070 C 
HETATM    9  C7  UNL     1      18.251   0.507  51.034  1.00  0.00     0.122 C 
HETATM   10  C8  UNL     1      17.388  -0.110  50.050  1.00  0.00     0.090 C 
HETATM   11  N3  UNL     1      16.701  -0.583  49.274  1.00  0.00    -0.192 NA
HETATM   12  C9  UNL     1      18.411   3.097  50.732  1.00  0.00     0.204 C 
HETATM   13  C10 UNL     1      17.424   3.762  51.595  1.00  0.00     0.077 C 
HETATM   14  N4  UNL     1      16.640   4.286  52.298  1.00  0.00    -0.196 NA
HETATM   15  C11 UNL     1      19.686   3.882  50.877  1.00  0.00     0.100 A 
HETATM   16  N5  UNL     1      20.484   4.736  51.216  1.00  0.00    -0.243 NA
HETATM   17  C12 UNL     1      21.792   4.652  50.909  1.00  0.00     0.075 A 
HETATM   18  C13 UNL     1      22.820   5.459  51.329  1.00  0.00     0.033 A 
HETATM   19  C14 UNL     1      24.110   5.065  50.984  1.00  0.00     0.010 A 
HETATM   20  C15 UNL     1      24.493   3.928  50.246  1.00  0.00    -0.050 A 
HETATM   21  C16 UNL     1      23.419   3.102  49.803  1.00  0.00     0.029 A 
HETATM   22  C17 UNL     1      22.179   3.545  50.182  1.00  0.00     0.036 A 
HETATM   23  S1  UNL     1      20.762   2.606  49.905  1.00  0.00    -0.071 SA
HETATM   24  C18 UNL     1      25.793   3.265  49.884  1.00  0.00     0.103 C 
HETATM   25  C19 UNL     1      26.248   2.236  50.682  1.00  0.00     0.071 C 
HETATM   26  N6  UNL     1      26.505   1.186  51.679  1.00  0.00    -0.395 N 
HETATM   27  H7  UNL     1      21.360   1.476  54.234  1.00  0.00     0.160 HD
HETATM   28  H16 UNL     1      27.406   0.744  51.882  1.00  0.00     0.159 HD
ENDROOT
TORSDOF 0
ENDMDL
MODEL 2
REMARK VINA RESULT:      -8.2      2.957      5.810
REMARK  0 active torsions:
REMARK  status: ('A' for Active; 'I' for Inactive)
ROOT
HETATM    1  C1  UNL     1      27.440  -0.287  53.256  1.00  0.00     0.057 C 
HETATM    2  C2  UNL     1      26.169  -0.290  53.546  1.00  0.00    -0.016 C 
HETATM    3  C3  UNL     1      25.711   0.596  52.486  1.00  0.00     0.071 C 
HETATM    4  C4  UNL     1      26.770   1.172  51.572  1.00  0.00     0.126 C 
HETATM    5  N1  UNL     1      26.185   1.958  50.511  1.00  0.00    -0.384 N 
HETATM    6  C5  UNL     1      25.466   3.123  50.255  1.00  0.00     0.203 C 
HETATM    7  N2  UNL     1      24.750   3.735  49.420  1.00  0.00    -0.246 NA
HETATM    8  C6  UNL     1      24.192   5.044  49.669  1.00  0.00     0.070 C 
HETATM    9  C7  UNL     1      24.967   5.999  50.080  1.00  0.00     0.122 C 
HETATM   10  C8  UNL     1      24.839   7.394  50.438  1.00  0.00     0.090 C 
HETATM   11  N3  UNL     1      24.727   8.495  50.711  1.00  0.00    -0.192 NA
HETATM   12  C9  UNL     1      22.692   4.948  49.344  1.00  0.00     0.204 C 
HETATM   13  C10 UNL     1      22.559   5.019  47.881  1.00  0.00     0.077 C 
HETATM   14  N4  UNL     1      22.468   5.068  46.710  1.00  0.00    -0.196 NA
HETATM   15  C11 UNL     1      22.238   3.568  49.736  1.00  0.00     0.100 A 
HETATM   16  N5  UNL     1      21.800   2.435  49.671  1.00  0.00    -0.243 NA
HETATM   17  C12 UNL     1      21.801   1.607  50.733  1.00  0.00     0.075 A 
HETATM   18  C13 UNL     1      21.466   0.277  50.777  1.00  0.00     0.033 A 
HETATM   19  C14 UNL     1      21.698  -0.390  51.978  1.00  0.00     0.010 A 
HETATM   20  C15 UNL     1      22.238   0.141  53.166  1.00  0.00    -0.050 A 
HETATM   21  C16 UNL     1      22.571   1.526  53.115  1.00  0.00     0.029 A 
HETATM   22  C17 UNL     1      22.323   2.117  51.904  1.00  0.00     0.036 A 
HETATM   23  S1  UNL     1      22.815   3.734  51.571  1.00  0.00    -0.071 SA
HETATM   24  C18 UNL     1      22.680  -0.413  54.491  1.00  0.00     0.103 C 
HETATM   25  C19 UNL     1      24.014  -0.724  54.659  1.00  0.00     0.071 C 
HETATM   26  N6  UNL     1      25.461  -0.967  54.578  1.00  0.00    -0.395 N 
HETATM   27  H7  UNL     1      26.257   1.654  49.521  1.00  0.00     0.160 HD
HETATM   28  H16 UNL     1      26.013  -1.577  55.188  1.00  0.00     0.159 HD
ENDROOT
TORSDOF 0
ENDMDL
MODEL 3
REMARK VINA RESULT:      -8.0      2.660      4.848
REMARK  0 active torsions:
REMARK  status: ('A' for Active; 'I' for Inactive)
ROOT
HETATM    1  C1  UNL     1      19.303  -0.240  52.899  1.00  0.00     0.057 C 
HETATM    2  C2  UNL     1      20.600  -0.133  52.961  1.00  0.00    -0.016 C 
HETATM    3  C3  UNL     1      20.747   1.080  52.170  1.00  0.00     0.071 C 
HETATM    4  C4  UNL     1      19.483   1.672  51.587  1.00  0.00     0.126 C 
HETATM    5  N1  UNL     1      19.746   2.917  50.903  1.00  0.00    -0.384 N 
HETATM    6  C5  UNL     1      20.397   3.466  49.802  1.00  0.00     0.203 C 
HETATM    7  N2  UNL     1      20.847   4.522  49.285  1.00  0.00    -0.246 NA
HETATM    8  C6  UNL     1      21.505   4.553  47.999  1.00  0.00     0.070 C 
HETATM    9  C7  UNL     1      20.930   4.001  46.977  1.00  0.00     0.122 C 
HETATM   10  C8  UNL     1      21.215   3.805  45.572  1.00  0.00     0.090 C 
HETATM   11  N3  UNL     1      21.449   3.663  44.466  1.00  0.00    -0.192 NA
HETATM   12  C9  UNL     1      22.829   5.308  48.205  1.00  0.00     0.204 C 
HETATM   13  C10 UNL     1      22.511   6.744  48.230  1.00  0.00     0.077 C 
HETATM   14  N4  UNL     1      22.242   7.888  48.258  1.00  0.00    -0.196 NA
HETATM   15  C11 UNL     1      23.327   4.968  49.583  1.00  0.00     0.100 A 
HETATM   16  N5  UNL     1      23.680   5.076  50.742  1.00  0.00    -0.243 NA
HETATM   17  C12 UNL     1      23.971   4.004  51.503  1.00  0.00     0.075 A 
HETATM   18  C13 UNL     1      24.251   3.962  52.846  1.00  0.00     0.033 A 
HETATM   19  C14 UNL     1      24.371   2.701  53.424  1.00  0.00     0.010 A 
HETATM   20  C15 UNL     1      24.241   1.449  52.791  1.00  0.00    -0.050 A 
HETATM   21  C16 UNL     1      23.963   1.502  51.394  1.00  0.00     0.029 A 
HETATM   22  C17 UNL     1      23.852   2.772  50.894  1.00  0.00     0.036 A 
HETATM   23  S1  UNL     1      23.345   3.062  49.272  1.00  0.00    -0.071 SA
HETATM   24  C18 UNL     1      24.204   0.014  53.237  1.00  0.00     0.103 C 
HETATM   25  C19 UNL     1      22.974  -0.572  53.456  1.00  0.00     0.071 C 
HETATM   26  N6  UNL     1      21.563  -0.951  53.616  1.00  0.00    -0.395 N 
HETATM   27  H7  UNL     1      19.362   3.814  51.261  1.00  0.00     0.160 HD
HETATM   28  H16 UNL     1      21.200  -1.743  54.154  1.00  0.00     0.159 HD
ENDROOT
TORSDOF 0
ENDMDL
MODEL 4
REMARK VINA RESULT:      -7.7      2.663      4.600
REMARK  0 active torsions:
REMARK  status: ('A' for Active; 'I' for Inactive)
ROOT
HETATM    1  C1  UNL     1      21.909   3.653  46.207  1.00  0.00     0.057 C 
HETATM    2  C2  UNL     1      22.158   4.382  47.258  1.00  0.00    -0.016 C 
HETATM    3  C3  UNL     1      21.986   3.353  48.272  1.00  0.00     0.071 C 
HETATM    4  C4  UNL     1      21.574   1.979  47.788  1.00  0.00     0.126 C 
HETATM    5  N1  UNL     1      21.525   1.027  48.873  1.00  0.00    -0.384 N 
HETATM    6  C5  UNL     1      20.848   0.712  50.048  1.00  0.00     0.203 C 
HETATM    7  N2  UNL     1      20.889   0.059  51.124  1.00  0.00    -0.246 NA
HETATM    8  C6  UNL     1      19.825   0.082  52.101  1.00  0.00     0.070 C 
HETATM    9  C7  UNL     1      18.606  -0.144  51.719  1.00  0.00     0.122 C 
HETATM   10  C8  UNL     1      17.296  -0.214  52.329  1.00  0.00     0.090 C 
HETATM   11  N3  UNL     1      16.270  -0.274  52.821  1.00  0.00    -0.192 NA
HETATM   12  C9  UNL     1      20.484   0.387  53.457  1.00  0.00     0.204 C 
HETATM   13  C10 UNL     1      21.086  -0.864  53.939  1.00  0.00     0.077 C 
HETATM   14  N4  UNL     1      21.571  -1.870  54.309  1.00  0.00    -0.196 NA
HETATM   15  C11 UNL     1      21.629   1.326  53.194  1.00  0.00     0.100 A 
HETATM   16  N5  UNL     1      22.755   1.783  53.125  1.00  0.00    -0.243 NA
HETATM   17  C12 UNL     1      23.010   2.967  52.537  1.00  0.00     0.075 A 
HETATM   18  C13 UNL     1      24.227   3.543  52.270  1.00  0.00     0.033 A 
HETATM   19  C14 UNL     1      24.218   4.712  51.514  1.00  0.00     0.010 A 
HETATM   20  C15 UNL     1      23.098   5.385  50.985  1.00  0.00    -0.050 A 
HETATM   21  C16 UNL     1      21.837   4.788  51.278  1.00  0.00     0.029 A 
HETATM   22  C17 UNL     1      21.921   3.639  52.020  1.00  0.00     0.036 A 
HETATM   23  S1  UNL     1      20.535   2.664  52.333  1.00  0.00    -0.071 SA
HETATM   24  C18 UNL     1      22.878   6.550  50.062  1.00  0.00     0.103 C 
HETATM   25  C19 UNL     1      22.683   6.295  48.720  1.00  0.00     0.071 C 
HETATM   26  N6  UNL     1      22.503   5.758  47.363  1.00  0.00    -0.395 N 
HETATM   27  H7  UNL     1      22.187   0.228  48.911  1.00  0.00     0.160 HD
HETATM   28  H16 UNL     1      22.604   6.274  46.484  1.00  0.00     0.159 HD
ENDROOT
TORSDOF 0
ENDMDL
MODEL 5
REMARK VINA RESULT:      -7.7      2.435      6.893
REMARK  0 active torsions:
REMARK  status: ('A' for Active; 'I' for Inactive)
ROOT
HETATM    1  C1  UNL     1      15.375   3.588  51.773  1.00  0.00     0.057 C 
HETATM    2  C2  UNL     1      15.933   2.418  51.906  1.00  0.00    -0.016 C 
HETATM    3  C3  UNL     1      17.277   2.778  51.478  1.00  0.00     0.071 C 
HETATM    4  C4  UNL     1      17.492   4.209  51.035  1.00  0.00     0.126 C 
HETATM    5  N1  UNL     1      18.879   4.465  50.722  1.00  0.00    -0.384 N 
HETATM    6  C5  UNL     1      19.899   4.136  49.834  1.00  0.00     0.203 C 
HETATM    7  N2  UNL     1      21.143   4.139  49.638  1.00  0.00    -0.246 NA
HETATM    8  C6  UNL     1      21.752   3.628  48.432  1.00  0.00     0.070 C 
HETATM    9  C7  UNL     1      21.318   4.032  47.279  1.00  0.00     0.122 C 
HETATM   10  C8  UNL     1      21.619   3.794  45.884  1.00  0.00     0.090 C 
HETATM   11  N3  UNL     1      21.870   3.602  44.789  1.00  0.00    -0.192 NA
HETATM   12  C9  UNL     1      22.859   2.659  48.879  1.00  0.00     0.204 C 
HETATM   13  C10 UNL     1      24.014   3.475  49.282  1.00  0.00     0.077 C 
HETATM   14  N4  UNL     1      24.928   4.139  49.609  1.00  0.00    -0.196 NA
HETATM   15  C11 UNL     1      22.376   1.977  50.130  1.00  0.00     0.100 A 
HETATM   16  N5  UNL     1      22.297   1.608  51.287  1.00  0.00    -0.243 NA
HETATM   17  C12 UNL     1      21.248   0.895  51.738  1.00  0.00     0.075 A 
HETATM   18  C13 UNL     1      20.960   0.525  53.028  1.00  0.00     0.033 A 
HETATM   19  C14 UNL     1      19.727  -0.085  53.247  1.00  0.00     0.010 A 
HETATM   20  C15 UNL     1      18.731  -0.376  52.295  1.00  0.00    -0.050 A 
HETATM   21  C16 UNL     1      19.044  -0.001  50.956  1.00  0.00     0.029 A 
HETATM   22  C17 UNL     1      20.267   0.599  50.814  1.00  0.00     0.036 A 
HETATM   23  S1  UNL     1      20.766   1.288  49.316  1.00  0.00    -0.071 SA
HETATM   24  C18 UNL     1      17.321  -0.895  52.334  1.00  0.00     0.103 C 
HETATM   25  C19 UNL     1      16.287   0.019  52.344  1.00  0.00     0.071 C 
HETATM   26  N6  UNL     1      15.386   1.181  52.347  1.00  0.00    -0.395 N 
HETATM   27  H7  UNL     1      19.442   5.122  51.297  1.00  0.00     0.160 HD
HETATM   28  H16 UNL     1      14.404   1.192  52.638  1.00  0.00     0.159 HD
ENDROOT
TORSDOF 0
ENDMDL
MODEL 6
REMARK VINA RESULT:      -7.6      2.621      5.732
REMARK  0 active torsions:
REMARK  status: ('A' for Active; 'I' for Inactive)
ROOT
HETATM    1  C1  UNL     1      24.770   8.244  50.118  1.00  0.00     0.057 C 
HETATM    2  C2  UNL     1      24.103   7.540  49.248  1.00  0.00    -0.016 C 
HETATM    3  C3  UNL     1      23.736   6.430  50.116  1.00  0.00     0.071 C 
HETATM    4  C4  UNL     1      24.253   6.475  51.537  1.00  0.00     0.126 C 
HETATM    5  N1  UNL     1      23.749   5.371  52.320  1.00  0.00    -0.384 N 
HETATM    6  C5  UNL     1      23.793   3.985  52.448  1.00  0.00     0.203 C 
HETATM    7  N2  UNL     1      23.228   2.972  52.938  1.00  0.00    -0.246 NA
HETATM    8  C6  UNL     1      23.723   1.627  52.753  1.00  0.00     0.070 C 
HETATM    9  C7  UNL     1      24.967   1.366  53.010  1.00  0.00     0.122 C 
HETATM   10  C8  UNL     1      25.844   0.217  52.967  1.00  0.00     0.090 C 
HETATM   11  N3  UNL     1      26.524  -0.697  52.935  1.00  0.00    -0.192 NA
HETATM   12  C9  UNL     1      22.530   0.786  52.266  1.00  0.00     0.204 C 
HETATM   13  C10 UNL     1      21.710   0.471  53.445  1.00  0.00     0.077 C 
HETATM   14  N4  UNL     1      21.059   0.233  54.395  1.00  0.00    -0.196 NA
HETATM   15  C11 UNL     1      21.684   1.675  51.397  1.00  0.00     0.100 A 
HETATM   16  N5  UNL     1      20.741   2.319  50.976  1.00  0.00    -0.243 NA
HETATM   17  C12 UNL     1      20.847   3.115  49.895  1.00  0.00     0.075 A 
HETATM   18  C13 UNL     1      19.920   3.991  49.387  1.00  0.00     0.033 A 
HETATM   19  C14 UNL     1      20.336   4.810  48.340  1.00  0.00     0.010 A 
HETATM   20  C15 UNL     1      21.606   4.848  47.731  1.00  0.00    -0.050 A 
HETATM   21  C16 UNL     1      22.558   3.926  48.255  1.00  0.00     0.029 A 
HETATM   22  C17 UNL     1      22.084   3.157  49.286  1.00  0.00     0.036 A 
HETATM   23  S1  UNL     1      23.118   2.108  50.178  1.00  0.00    -0.071 SA
HETATM   24  C18 UNL     1      22.286   5.715  46.709  1.00  0.00     0.103 C 
HETATM   25  C19 UNL     1      23.063   6.765  47.153  1.00  0.00     0.071 C 
HETATM   26  N6  UNL     1      23.819   7.796  47.878  1.00  0.00    -0.395 N 
HETATM   27  H7  UNL     1      23.104   5.534  53.118  1.00  0.00     0.160 HD
HETATM   28  H16 UNL     1      24.160   8.684  47.498  1.00  0.00     0.159 HD
ENDROOT
TORSDOF 0
ENDMDL
MODEL 7
REMARK VINA RESULT:      -7.5      2.928      5.656
REMARK  0 active torsions:
REMARK  status: ('A' for Active; 'I' for Inactive)
ROOT
HETATM    1  C1  UNL     1      21.281   5.458  45.574  1.00  0.00     0.057 C 
HETATM    2  C2  UNL     1      21.362   6.221  46.627  1.00  0.00    -0.016 C 
HETATM    3  C3  UNL     1      21.804   5.215  47.581  1.00  0.00     0.071 C 
HETATM    4  C4  UNL     1      21.939   3.799  47.066  1.00  0.00     0.126 C 
HETATM    5  N1  UNL     1      22.470   2.915  48.078  1.00  0.00    -0.384 N 
HETATM    6  C5  UNL     1      22.185   2.337  49.313  1.00  0.00     0.203 C 
HETATM    7  N2  UNL     1      22.667   1.763  50.324  1.00  0.00    -0.246 NA
HETATM    8  C6  UNL     1      21.863   1.326  51.442  1.00  0.00     0.070 C 
HETATM    9  C7  UNL     1      20.810   0.602  51.223  1.00  0.00     0.122 C 
HETATM   10  C8  UNL     1      19.767  -0.024  52.006  1.00  0.00     0.090 C 
HETATM   11  N3  UNL     1      18.955  -0.517  52.635  1.00  0.00    -0.192 NA
HETATM   12  C9  UNL     1      22.538   1.881  52.707  1.00  0.00     0.204 C 
HETATM   13  C10 UNL     1      23.681   1.007  53.010  1.00  0.00     0.077 C 
HETATM   14  N4  UNL     1      24.596   0.305  53.236  1.00  0.00    -0.196 NA
HETATM   15  C11 UNL     1      23.122   3.221  52.351  1.00  0.00     0.100 A 
HETATM   16  N5  UNL     1      23.923   4.115  52.154  1.00  0.00    -0.243 NA
HETATM   17  C12 UNL     1      23.557   5.296  51.619  1.00  0.00     0.075 A 
HETATM   18  C13 UNL     1      24.358   6.337  51.222  1.00  0.00     0.033 A 
HETATM   19  C14 UNL     1      23.736   7.392  50.558  1.00  0.00     0.010 A 
HETATM   20  C15 UNL     1      22.370   7.522  50.243  1.00  0.00    -0.050 A 
HETATM   21  C16 UNL     1      21.543   6.443  50.670  1.00  0.00     0.029 A 
HETATM   22  C17 UNL     1      22.220   5.438  51.310  1.00  0.00     0.036 A 
HETATM   23  S1  UNL     1      21.444   3.964  51.750  1.00  0.00    -0.071 SA
HETATM   24  C18 UNL     1      21.534   8.483  49.444  1.00  0.00     0.103 C 
HETATM   25  C19 UNL     1      21.255   8.171  48.130  1.00  0.00     0.071 C 
HETATM   26  N6  UNL     1      21.106   7.613  46.778  1.00  0.00    -0.395 N 
HETATM   27  H7  UNL     1      23.404   2.475  47.965  1.00  0.00     0.160 HD
HETATM   28  H16 UNL     1      20.839   8.124  45.932  1.00  0.00     0.159 HD
ENDROOT
TORSDOF 0
ENDMDL
MODEL 8
REMARK VINA RESULT:      -7.4      2.259      6.154
REMARK  0 active torsions:
REMARK  status: ('A' for Active; 'I' for Inactive)
ROOT
HETATM    1  C1  UNL     1      21.661   7.283  49.884  1.00  0.00     0.057 C 
HETATM    2  C2  UNL     1      21.072   6.357  49.182  1.00  0.00    -0.016 C 
HETATM    3  C3  UNL     1      21.240   5.250  50.112  1.00  0.00     0.071 C 
HETATM    4  C4  UNL     1      22.001   5.540  51.387  1.00  0.00     0.126 C 
HETATM    5  N1  UNL     1      22.023   4.393  52.265  1.00  0.00    -0.384 N 
HETATM    6  C5  UNL     1      22.505   3.092  52.385  1.00  0.00     0.203 C 
HETATM    7  N2  UNL     1      22.383   1.994  52.989  1.00  0.00    -0.246 NA
HETATM    8  C6  UNL     1      23.209   0.843  52.706  1.00  0.00     0.070 C 
HETATM    9  C7  UNL     1      24.499   0.975  52.688  1.00  0.00     0.122 C 
HETATM   10  C8  UNL     1      25.652   0.131  52.459  1.00  0.00     0.090 C 
HETATM   11  N3  UNL     1      26.552  -0.545  52.284  1.00  0.00    -0.192 NA
HETATM   12  C9  UNL     1      22.250  -0.340  52.492  1.00  0.00     0.204 C 
HETATM   13  C10 UNL     1      21.823  -0.800  53.822  1.00  0.00     0.077 C 
HETATM   14  N4  UNL     1      21.483  -1.152  54.891  1.00  0.00    -0.196 NA
HETATM   15  C11 UNL     1      21.016   0.202  51.824  1.00  0.00     0.100 A 
HETATM   16  N5  UNL     1      19.859   0.513  51.614  1.00  0.00    -0.243 NA
HETATM   17  C12 UNL     1      19.496   1.230  50.534  1.00  0.00     0.075 A 
HETATM   18  C13 UNL     1      18.266   1.760  50.236  1.00  0.00     0.033 A 
HETATM   19  C14 UNL     1      18.193   2.592  49.121  1.00  0.00     0.010 A 
HETATM   20  C15 UNL     1      19.239   2.957  48.251  1.00  0.00    -0.050 A 
HETATM   21  C16 UNL     1      20.510   2.391  48.560  1.00  0.00     0.029 A 
HETATM   22  C17 UNL     1      20.510   1.589  49.671  1.00  0.00     0.036 A 
HETATM   23  S1  UNL     1      21.972   0.950  50.322  1.00  0.00    -0.071 SA
HETATM   24  C18 UNL     1      19.402   3.913  47.103  1.00  0.00     0.103 C 
HETATM   25  C19 UNL     1      19.903   5.171  47.365  1.00  0.00     0.071 C 
HETATM   26  N6  UNL     1      20.448   6.425  47.905  1.00  0.00    -0.395 N 
HETATM   27  H7  UNL     1      21.538   4.415  53.183  1.00  0.00     0.160 HD
HETATM   28  H16 UNL     1      20.422   7.346  47.457  1.00  0.00     0.159 HD
ENDROOT
TORSDOF 0
ENDMDL
MODEL 9
REMARK VINA RESULT:      -7.3      9.884     13.219
REMARK  0 active torsions:
REMARK  status: ('A' for Active; 'I' for Inactive)
ROOT
HETATM    1  C1  UNL     1      34.834   3.841  47.593  1.00  0.00     0.057 C 
HETATM    2  C2  UNL     1      34.684   4.490  46.474  1.00  0.00    -0.016 C 
HETATM    3  C3  UNL     1      34.013   5.669  47.005  1.00  0.00     0.071 C 
HETATM    4  C4  UNL     1      33.723   5.678  48.489  1.00  0.00     0.126 C 
HETATM    5  N1  UNL     1      33.141   6.932  48.909  1.00  0.00    -0.384 N 
HETATM    6  C5  UNL     1      32.009   7.733  48.778  1.00  0.00     0.203 C 
HETATM    7  N2  UNL     1      31.539   8.892  48.920  1.00  0.00    -0.246 NA
HETATM    8  C6  UNL     1      30.171   9.232  48.606  1.00  0.00     0.070 C 
HETATM    9  C7  UNL     1      29.208   8.512  49.093  1.00  0.00     0.122 C 
HETATM   10  C8  UNL     1      27.763   8.491  49.040  1.00  0.00     0.090 C 
HETATM   11  N3  UNL     1      26.624   8.489  48.996  1.00  0.00    -0.192 NA
HETATM   12  C9  UNL     1      30.226  10.475  47.702  1.00  0.00     0.204 C 
HETATM   13  C10 UNL     1      30.460  11.636  48.574  1.00  0.00     0.077 C 
HETATM   14  N4  UNL     1      30.655  12.555  49.281  1.00  0.00    -0.196 NA
HETATM   15  C11 UNL     1      31.455  10.347  46.843  1.00  0.00     0.100 A 
HETATM   16  N5  UNL     1      32.541  10.568  46.342  1.00  0.00    -0.243 NA
HETATM   17  C12 UNL     1      33.122   9.705  45.488  1.00  0.00     0.075 A 
HETATM   18  C13 UNL     1      34.384   9.754  44.952  1.00  0.00     0.033 A 
HETATM   19  C14 UNL     1      34.795   8.651  44.207  1.00  0.00     0.010 A 
HETATM   20  C15 UNL     1      34.064   7.480  43.931  1.00  0.00    -0.050 A 
HETATM   21  C16 UNL     1      32.749   7.442  44.480  1.00  0.00     0.029 A 
HETATM   22  C17 UNL     1      32.413   8.555  45.205  1.00  0.00     0.036 A 
HETATM   23  S1  UNL     1      30.943   8.639  46.100  1.00  0.00    -0.071 SA
HETATM   24  C18 UNL     1      34.353   6.156  43.280  1.00  0.00     0.103 C 
HETATM   25  C19 UNL     1      34.715   5.096  44.085  1.00  0.00     0.071 C 
HETATM   26  N6  UNL     1      35.073   4.147  45.149  1.00  0.00    -0.395 N 
HETATM   27  H7  UNL     1      33.653   7.570  49.548  1.00  0.00     0.160 HD
HETATM   28  H16 UNL     1      35.577   3.262  45.035  1.00  0.00     0.159 HD
ENDROOT
TORSDOF 0
ENDMDL
