MODEL 1
REMARK VINA RESULT:      -8.9      0.000      0.000
REMARK  2 active torsions:
REMARK  status: ('A' for Active; 'I' for Inactive)
REMARK    1  A    between atoms: C2_2  and  N1_3 
REMARK    2  A    between atoms: C10_13  and  C11_14 
ROOT
HETATM    1  N1  UNL     1      25.276   5.839  48.921  1.00  0.00     0.089 N 
HETATM    2  C3  UNL     1      25.453   6.508  50.212  1.00  0.00     0.292 C 
HETATM    3  C4  UNL     1      24.365   7.433  50.693  1.00  0.00     0.151 C 
HETATM    4  N2  UNL     1      23.192   6.617  50.808  1.00  0.00    -0.372 N 
HETATM    5  C5  UNL     1      22.055   5.830  50.919  1.00  0.00     0.081 A 
HETATM    6  O1  UNL     1      21.433   6.915  51.272  1.00  0.00    -0.301 OA
HETATM    7  C6  UNL     1      20.841   5.127  51.067  1.00  0.00     0.239 C 
HETATM    8  C7  UNL     1      21.106   3.791  50.633  1.00  0.00    -0.060 C 
HETATM    9  C8  UNL     1      19.622   3.646  51.003  1.00  0.00     0.045 C 
HETATM   10  C9  UNL     1      21.764   2.571  49.853  1.00  0.00    -0.030 C 
HETATM   11  C10 UNL     1      21.038   1.452  50.236  1.00  0.00     0.030 C 
HETATM   12  C19 UNL     1      22.467   3.397  49.198  1.00  0.00    -0.072 C 
HETATM   13  C20 UNL     1      23.083   2.206  48.473  1.00  0.00     0.044 C 
HETATM   14  C21 UNL     1      23.077   4.566  48.629  1.00  0.00     0.065 C 
HETATM   15  C22 UNL     1      24.506   4.625  49.051  1.00  0.00     0.276 C 
HETATM   16  H10 UNL     1      23.316   5.599  50.883  1.00  0.00     0.235 HD
ENDROOT
BRANCH  11  17
HETATM   17  C11 UNL     1      20.403   0.863  51.197  1.00  0.00     0.045 A 
HETATM   18  C12 UNL     1      19.102   0.347  51.541  1.00  0.00     0.257 A 
HETATM   19  O2  UNL     1      18.097   0.602  50.861  1.00  0.00    -0.267 OA
HETATM   20  N3  UNL     1      19.232  -0.410  52.695  1.00  0.00    -0.322 N 
HETATM   21  C13 UNL     1      20.605  -0.366  53.077  1.00  0.00     0.046 A 
HETATM   22  H16 UNL     1      18.400  -0.876  53.099  1.00  0.00     0.169 HD
HETATM   23  C14 UNL     1      21.085  -1.028  54.191  1.00  0.00     0.032 A 
HETATM   24  C18 UNL     1      21.372   0.380  52.229  1.00  0.00     0.008 A 
HETATM   25  C15 UNL     1      22.442  -0.923  54.460  1.00  0.00     0.026 A 
HETATM   26  C16 UNL     1      23.228  -0.199  53.652  1.00  0.00     0.035 A 
HETATM   27 CL1  UNL     1      24.947  -0.045  53.956  1.00  0.00    -0.084 Cl
HETATM   28  C17 UNL     1      22.740   0.454  52.550  1.00  0.00     0.038 A 
ENDBRANCH  11  17
BRANCH   1  29
HETATM   29  C2  UNL     1      26.677   5.226  48.795  1.00  0.00     0.268 C 
HETATM   30  C1  UNL     1      26.746   3.878  49.380  1.00  0.00     0.037 C 
ENDBRANCH   1  29
TORSDOF 2
ENDMDL
MODEL 2
REMARK VINA RESULT:      -8.7      2.910      7.436
REMARK  2 active torsions:
REMARK  status: ('A' for Active; 'I' for Inactive)
REMARK    1  A    between atoms: C2_2  and  N1_3 
REMARK    2  A    between atoms: C10_13  and  C11_14 
ROOT
HETATM    1  N1  UNL     1      19.456  -0.035  51.916  1.00  0.00     0.089 N 
HETATM    2  C3  UNL     1      19.484   0.402  53.315  1.00  0.00     0.292 C 
HETATM    3  C4  UNL     1      20.580  -0.123  54.206  1.00  0.00     0.151 C 
HETATM    4  N2  UNL     1      21.805   0.321  53.609  1.00  0.00    -0.372 N 
HETATM    5  C5  UNL     1      22.993   0.750  53.033  1.00  0.00     0.081 A 
HETATM    6  O1  UNL     1      23.596   0.108  53.988  1.00  0.00    -0.301 OA
HETATM    7  C6  UNL     1      24.257   1.129  52.535  1.00  0.00     0.239 C 
HETATM    8  C7  UNL     1      24.003   1.829  51.315  1.00  0.00    -0.060 C 
HETATM    9  C8  UNL     1      25.537   1.916  51.341  1.00  0.00     0.045 C 
HETATM   10  C9  UNL     1      23.291   2.283  49.966  1.00  0.00    -0.030 C 
HETATM   11  C10 UNL     1      24.150   3.206  49.387  1.00  0.00     0.030 C 
HETATM   12  C19 UNL     1      22.423   1.378  50.146  1.00  0.00    -0.072 C 
HETATM   13  C20 UNL     1      21.761   1.840  48.854  1.00  0.00     0.044 C 
HETATM   14  C21 UNL     1      21.639   0.272  50.619  1.00  0.00     0.065 C 
HETATM   15  C22 UNL     1      20.316   0.776  51.087  1.00  0.00     0.276 C 
HETATM   16  H10 UNL     1      21.766   1.117  52.959  1.00  0.00     0.235 HD
ENDROOT
BRANCH  11  17
HETATM   17  C11 UNL     1      24.994   4.163  49.595  1.00  0.00     0.045 A 
HETATM   18  C12 UNL     1      26.383   4.504  49.415  1.00  0.00     0.257 A 
HETATM   19  O2  UNL     1      27.230   3.652  49.104  1.00  0.00    -0.267 OA
HETATM   20  N3  UNL     1      26.528   5.861  49.657  1.00  0.00    -0.322 N 
HETATM   21  C13 UNL     1      25.240   6.370  49.993  1.00  0.00     0.046 A 
HETATM   22  H16 UNL     1      27.461   6.301  49.568  1.00  0.00     0.169 HD
HETATM   23  C14 UNL     1      25.023   7.702  50.287  1.00  0.00     0.032 A 
HETATM   24  C18 UNL     1      24.266   5.412  49.980  1.00  0.00     0.008 A 
HETATM   25  C15 UNL     1      23.725   8.087  50.590  1.00  0.00     0.026 A 
HETATM   26  C16 UNL     1      22.742   7.176  50.589  1.00  0.00     0.035 A 
HETATM   27 CL1  UNL     1      21.090   7.623  50.963  1.00  0.00    -0.084 Cl
HETATM   28  C17 UNL     1      22.969   5.856  50.296  1.00  0.00     0.038 A 
ENDBRANCH  11  17
BRANCH   1  29
HETATM   29  C2  UNL     1      18.101   0.567  51.523  1.00  0.00     0.268 C 
HETATM   30  C1  UNL     1      17.874   0.519  50.070  1.00  0.00     0.037 C 
ENDBRANCH   1  29
TORSDOF 2
ENDMDL
MODEL 3
REMARK VINA RESULT:      -8.5      3.179      4.132
REMARK  2 active torsions:
REMARK  status: ('A' for Active; 'I' for Inactive)
REMARK    1  A    between atoms: C2_2  and  N1_3 
REMARK    2  A    between atoms: C10_13  and  C11_14 
ROOT
HETATM    1  N1  UNL     1      22.051   6.361  46.901  1.00  0.00     0.089 N 
HETATM    2  C3  UNL     1      23.116   7.365  46.979  1.00  0.00     0.292 C 
HETATM    3  C4  UNL     1      23.177   8.250  48.197  1.00  0.00     0.151 C 
HETATM    4  N2  UNL     1      23.363   7.362  49.307  1.00  0.00    -0.372 N 
HETATM    5  C5  UNL     1      23.544   6.504  50.383  1.00  0.00     0.081 A 
HETATM    6  O1  UNL     1      23.497   7.564  51.134  1.00  0.00    -0.301 OA
HETATM    7  C6  UNL     1      23.725   5.728  51.547  1.00  0.00     0.239 C 
HETATM    8  C7  UNL     1      23.718   4.366  51.114  1.00  0.00    -0.060 C 
HETATM    9  C8  UNL     1      23.921   4.151  52.623  1.00  0.00     0.045 C 
HETATM   10  C9  UNL     1      23.401   3.068  50.251  1.00  0.00    -0.030 C 
HETATM   11  C10 UNL     1      23.985   2.014  50.938  1.00  0.00     0.030 C 
HETATM   12  C19 UNL     1      22.637   3.768  49.521  1.00  0.00    -0.072 C 
HETATM   13  C20 UNL     1      22.358   2.509  48.709  1.00  0.00     0.044 C 
HETATM   14  C21 UNL     1      21.848   4.808  48.923  1.00  0.00     0.065 C 
HETATM   15  C22 UNL     1      22.416   5.144  47.586  1.00  0.00     0.276 C 
HETATM   16  H10 UNL     1      23.734   6.422  49.118  1.00  0.00     0.235 HD
ENDROOT
BRANCH  11  17
HETATM   17  C11 UNL     1      24.982   1.630  51.667  1.00  0.00     0.045 A 
HETATM   18  C12 UNL     1      26.363   1.935  51.942  1.00  0.00     0.257 A 
HETATM   19  O2  UNL     1      27.020   2.701  51.220  1.00  0.00    -0.267 OA
HETATM   20  N3  UNL     1      26.740   1.235  53.078  1.00  0.00    -0.322 N 
HETATM   21  C13 UNL     1      25.604   0.490  53.511  1.00  0.00     0.046 A 
HETATM   22  H16 UNL     1      27.704   1.332  53.444  1.00  0.00     0.169 HD
HETATM   23  C14 UNL     1      25.632  -0.318  54.631  1.00  0.00     0.032 A 
HETATM   24  C18 UNL     1      24.510   0.672  52.714  1.00  0.00     0.008 A 
HETATM   25  C15 UNL     1      24.463  -0.989  54.964  1.00  0.00     0.026 A 
HETATM   26  C16 UNL     1      23.369  -0.837  54.206  1.00  0.00     0.035 A 
HETATM   27 CL1  UNL     1      21.874  -1.664  54.595  1.00  0.00    -0.084 Cl
HETATM   28  C17 UNL     1      23.354  -0.032  53.096  1.00  0.00     0.038 A 
ENDBRANCH  11  17
BRANCH   1  29
HETATM   29  C2  UNL     1      22.282   5.906  45.455  1.00  0.00     0.268 C 
HETATM   30  C1  UNL     1      21.910   4.497  45.252  1.00  0.00     0.037 C 
ENDBRANCH   1  29
TORSDOF 2
ENDMDL
MODEL 4
REMARK VINA RESULT:      -8.1      2.455      3.453
REMARK  2 active torsions:
REMARK  status: ('A' for Active; 'I' for Inactive)
REMARK    1  A    between atoms: C2_2  and  N1_3 
REMARK    2  A    between atoms: C10_13  and  C11_14 
ROOT
HETATM    1  N1  UNL     1      23.490   7.512  47.130  1.00  0.00     0.089 N 
HETATM    2  C3  UNL     1      22.230   7.393  46.392  1.00  0.00     0.292 C 
HETATM    3  C4  UNL     1      22.014   6.172  45.537  1.00  0.00     0.151 C 
HETATM    4  N2  UNL     1      22.072   5.059  46.438  1.00  0.00    -0.372 N 
HETATM    5  C5  UNL     1      22.128   3.978  47.308  1.00  0.00     0.081 A 
HETATM    6  O1  UNL     1      21.961   3.227  46.261  1.00  0.00    -0.301 OA
HETATM    7  C6  UNL     1      22.167   2.811  48.098  1.00  0.00     0.239 C 
HETATM    8  C7  UNL     1      22.466   3.247  49.426  1.00  0.00    -0.060 C 
HETATM    9  C8  UNL     1      22.370   1.733  49.672  1.00  0.00     0.045 C 
HETATM   10  C9  UNL     1      23.038   4.124  50.623  1.00  0.00    -0.030 C 
HETATM   11  C10 UNL     1      22.731   3.419  51.778  1.00  0.00     0.030 C 
HETATM   12  C19 UNL     1      23.598   4.879  49.773  1.00  0.00    -0.072 C 
HETATM   13  C20 UNL     1      24.125   5.703  50.942  1.00  0.00     0.044 C 
HETATM   14  C21 UNL     1      24.110   5.502  48.586  1.00  0.00     0.065 C 
HETATM   15  C22 UNL     1      23.435   6.817  48.395  1.00  0.00     0.276 C 
HETATM   16  H10 UNL     1      21.916   5.236  47.438  1.00  0.00     0.235 HD
ENDROOT
BRANCH  11  17
HETATM   17  C11 UNL     1      21.873   2.656  52.373  1.00  0.00     0.045 A 
HETATM   18  C12 UNL     1      20.454   2.469  52.541  1.00  0.00     0.257 A 
HETATM   19  O2  UNL     1      19.634   3.329  52.183  1.00  0.00    -0.267 OA
HETATM   20  N3  UNL     1      20.250   1.236  53.142  1.00  0.00    -0.322 N 
HETATM   21  C13 UNL     1      21.534   0.655  53.357  1.00  0.00     0.046 A 
HETATM   22  H16 UNL     1      19.286   0.914  53.339  1.00  0.00     0.169 HD
HETATM   23  C14 UNL     1      21.696  -0.589  53.936  1.00  0.00     0.032 A 
HETATM   24  C18 UNL     1      22.559   1.447  52.924  1.00  0.00     0.008 A 
HETATM   25  C15 UNL     1      22.994  -1.060  54.085  1.00  0.00     0.026 A 
HETATM   26  C16 UNL     1      24.026  -0.312  53.674  1.00  0.00     0.035 A 
HETATM   27 CL1  UNL     1      25.677  -0.872  53.842  1.00  0.00    -0.084 Cl
HETATM   28  C17 UNL     1      23.853   0.922  53.101  1.00  0.00     0.038 A 
ENDBRANCH  11  17
BRANCH   1  29
HETATM   29  C2  UNL     1      23.318   8.950  47.634  1.00  0.00     0.268 C 
HETATM   30  C1  UNL     1      22.653   9.001  48.945  1.00  0.00     0.037 C 
ENDBRANCH   1  29
TORSDOF 2
ENDMDL
MODEL 5
REMARK VINA RESULT:      -8.0      4.004      6.830
REMARK  2 active torsions:
REMARK  status: ('A' for Active; 'I' for Inactive)
REMARK    1  A    between atoms: C2_2  and  N1_3 
REMARK    2  A    between atoms: C10_13  and  C11_14 
ROOT
HETATM    1  N1  UNL     1      26.891   0.187  53.610  1.00  0.00     0.089 N 
HETATM    2  C3  UNL     1      26.067  -1.022  53.690  1.00  0.00     0.292 C 
HETATM    3  C4  UNL     1      24.726  -0.930  54.370  1.00  0.00     0.151 C 
HETATM    4  N2  UNL     1      23.978   0.031  53.613  1.00  0.00    -0.372 N 
HETATM    5  C5  UNL     1      23.252   0.962  52.883  1.00  0.00     0.081 A 
HETATM    6  O1  UNL     1      22.300   0.781  53.749  1.00  0.00    -0.301 OA
HETATM    7  C6  UNL     1      22.425   1.891  52.218  1.00  0.00     0.239 C 
HETATM    8  C7  UNL     1      23.223   2.442  51.168  1.00  0.00    -0.060 C 
HETATM    9  C8  UNL     1      21.918   3.218  50.928  1.00  0.00     0.045 C 
HETATM   10  C9  UNL     1      24.497   2.932  50.352  1.00  0.00    -0.030 C 
HETATM   11  C10 UNL     1      23.996   3.514  49.196  1.00  0.00     0.030 C 
HETATM   12  C19 UNL     1      25.220   2.644  51.352  1.00  0.00    -0.072 C 
HETATM   13  C20 UNL     1      26.423   3.115  50.542  1.00  0.00     0.044 C 
HETATM   14  C21 UNL     1      25.736   2.248  52.632  1.00  0.00     0.065 C 
HETATM   15  C22 UNL     1      26.535   1.000  52.472  1.00  0.00     0.276 C 
HETATM   16  H10 UNL     1      24.278   0.229  52.651  1.00  0.00     0.235 HD
ENDROOT
BRANCH  11  17
HETATM   17  C11 UNL     1      23.078   3.473  48.286  1.00  0.00     0.045 A 
HETATM   18  C12 UNL     1      22.110   2.582  47.697  1.00  0.00     0.257 A 
HETATM   19  O2  UNL     1      22.127   1.361  47.917  1.00  0.00    -0.267 OA
HETATM   20  N3  UNL     1      21.257   3.337  46.906  1.00  0.00    -0.322 N 
HETATM   21  C13 UNL     1      21.690   4.692  46.992  1.00  0.00     0.046 A 
HETATM   22  H16 UNL     1      20.481   2.872  46.402  1.00  0.00     0.169 HD
HETATM   23  C14 UNL     1      21.049   5.718  46.324  1.00  0.00     0.032 A 
HETATM   24  C18 UNL     1      22.779   4.855  47.800  1.00  0.00     0.008 A 
HETATM   25  C15 UNL     1      21.552   7.001  46.490  1.00  0.00     0.026 A 
HETATM   26  C16 UNL     1      22.620   7.202  47.273  1.00  0.00     0.035 A 
HETATM   27 CL1  UNL     1      23.283   8.806  47.511  1.00  0.00    -0.084 Cl
HETATM   28  C17 UNL     1      23.249   6.175  47.931  1.00  0.00     0.038 A 
ENDBRANCH  11  17
BRANCH   1  29
HETATM   29  C2  UNL     1      28.172  -0.454  53.060  1.00  0.00     0.268 C 
HETATM   30  C1  UNL     1      29.354  -0.105  53.864  1.00  0.00     0.037 C 
ENDBRANCH   1  29
TORSDOF 2
ENDMDL
MODEL 6
REMARK VINA RESULT:      -7.9      4.126      6.553
REMARK  2 active torsions:
REMARK  status: ('A' for Active; 'I' for Inactive)
REMARK    1  A    between atoms: C2_2  and  N1_3 
REMARK    2  A    between atoms: C10_13  and  C11_14 
ROOT
HETATM    1  N1  UNL     1      27.157  10.224  48.532  1.00  0.00     0.089 N 
HETATM    2  C3  UNL     1      27.546   9.924  47.151  1.00  0.00     0.292 C 
HETATM    3  C4  UNL     1      28.683   8.963  46.921  1.00  0.00     0.151 C 
HETATM    4  N2  UNL     1      28.265   7.726  47.512  1.00  0.00    -0.372 N 
HETATM    5  C5  UNL     1      27.862   6.527  48.084  1.00  0.00     0.081 A 
HETATM    6  O1  UNL     1      29.025   6.061  47.735  1.00  0.00    -0.301 OA
HETATM    7  C6  UNL     1      27.558   5.263  48.632  1.00  0.00     0.239 C 
HETATM    8  C7  UNL     1      26.284   5.407  49.262  1.00  0.00    -0.060 C 
HETATM    9  C8  UNL     1      26.555   3.926  49.575  1.00  0.00     0.045 C 
HETATM   10  C9  UNL     1      25.045   6.072  50.006  1.00  0.00    -0.030 C 
HETATM   11  C10 UNL     1      24.164   5.031  50.263  1.00  0.00     0.030 C 
HETATM   12  C19 UNL     1      25.697   7.156  50.075  1.00  0.00    -0.072 C 
HETATM   13  C20 UNL     1      24.491   7.766  50.779  1.00  0.00     0.044 C 
HETATM   14  C21 UNL     1      26.687   8.194  50.014  1.00  0.00     0.065 C 
HETATM   15  C22 UNL     1      26.238   9.241  49.053  1.00  0.00     0.276 C 
HETATM   16  H10 UNL     1      27.260   7.580  47.669  1.00  0.00     0.235 HD
ENDROOT
BRANCH  11  17
HETATM   17  C11 UNL     1      23.670   3.914  49.836  1.00  0.00     0.045 A 
HETATM   18  C12 UNL     1      23.387   2.567  50.264  1.00  0.00     0.257 A 
HETATM   19  O2  UNL     1      23.840   2.109  51.323  1.00  0.00    -0.267 OA
HETATM   20  N3  UNL     1      22.583   1.971  49.304  1.00  0.00    -0.322 N 
HETATM   21  C13 UNL     1      22.367   2.936  48.276  1.00  0.00     0.046 A 
HETATM   22  H16 UNL     1      22.262   0.996  49.437  1.00  0.00     0.169 HD
HETATM   23  C14 UNL     1      21.594   2.670  47.162  1.00  0.00     0.032 A 
HETATM   24  C18 UNL     1      22.988   4.127  48.522  1.00  0.00     0.008 A 
HETATM   25  C15 UNL     1      21.444   3.688  46.231  1.00  0.00     0.026 A 
HETATM   26  C16 UNL     1      22.039   4.871  46.435  1.00  0.00     0.035 A 
HETATM   27 CL1  UNL     1      21.871   6.182  45.286  1.00  0.00    -0.084 Cl
HETATM   28  C17 UNL     1      22.804   5.123  47.545  1.00  0.00     0.038 A 
ENDBRANCH  11  17
BRANCH   1  29
HETATM   29  C2  UNL     1      26.165  11.357  48.241  1.00  0.00     0.268 C 
HETATM   30  C1  UNL     1      24.844  10.847  47.843  1.00  0.00     0.037 C 
ENDBRANCH   1  29
TORSDOF 2
ENDMDL
MODEL 7
REMARK VINA RESULT:      -7.9      9.025     11.526
REMARK  2 active torsions:
REMARK  status: ('A' for Active; 'I' for Inactive)
REMARK    1  A    between atoms: C2_2  and  N1_3 
REMARK    2  A    between atoms: C10_13  and  C11_14 
ROOT
HETATM    1  N1  UNL     1      26.459  10.341  48.638  1.00  0.00     0.089 N 
HETATM    2  C3  UNL     1      26.914  11.601  48.042  1.00  0.00     0.292 C 
HETATM    3  C4  UNL     1      28.044  12.341  48.709  1.00  0.00     0.151 C 
HETATM    4  N2  UNL     1      29.160  11.442  48.680  1.00  0.00    -0.372 N 
HETATM    5  C5  UNL     1      30.243  10.574  48.653  1.00  0.00     0.081 A 
HETATM    6  O1  UNL     1      30.897  11.494  49.297  1.00  0.00    -0.301 OA
HETATM    7  C6  UNL     1      31.405   9.775  48.683  1.00  0.00     0.239 C 
HETATM    8  C7  UNL     1      31.032   8.520  48.110  1.00  0.00    -0.060 C 
HETATM    9  C8  UNL     1      32.509   8.227  48.420  1.00  0.00     0.045 C 
HETATM   10  C9  UNL     1      30.141   7.277  47.671  1.00  0.00    -0.030 C 
HETATM   11  C10 UNL     1      31.022   6.378  47.086  1.00  0.00     0.030 C 
HETATM   12  C19 UNL     1      29.161   7.790  48.288  1.00  0.00    -0.072 C 
HETATM   13  C20 UNL     1      28.332   6.591  47.846  1.00  0.00     0.044 C 
HETATM   14  C21 UNL     1      28.285   8.606  49.081  1.00  0.00     0.065 C 
HETATM   15  C22 UNL     1      27.257   9.223  48.195  1.00  0.00     0.276 C 
HETATM   16  H10 UNL     1      29.147  10.675  47.995  1.00  0.00     0.235 HD
ENDROOT
BRANCH  11  17
HETATM   17  C11 UNL     1      32.083   6.234  46.361  1.00  0.00     0.045 A 
HETATM   18  C12 UNL     1      32.938   6.957  45.453  1.00  0.00     0.257 A 
HETATM   19  O2  UNL     1      32.609   8.056  44.981  1.00  0.00    -0.267 OA
HETATM   20  N3  UNL     1      34.084   6.204  45.250  1.00  0.00    -0.322 N 
HETATM   21  C13 UNL     1      33.948   5.012  46.021  1.00  0.00     0.046 A 
HETATM   22  H16 UNL     1      34.831   6.564  44.630  1.00  0.00     0.169 HD
HETATM   23  C14 UNL     1      34.925   4.036  46.053  1.00  0.00     0.032 A 
HETATM   24  C18 UNL     1      32.773   4.955  46.714  1.00  0.00     0.008 A 
HETATM   25  C15 UNL     1      34.690   2.923  46.847  1.00  0.00     0.026 A 
HETATM   26  C16 UNL     1      33.548   2.828  47.541  1.00  0.00     0.035 A 
HETATM   27 CL1  UNL     1      33.215   1.441  48.557  1.00  0.00    -0.084 Cl
HETATM   28  C17 UNL     1      32.585   3.804  47.501  1.00  0.00     0.038 A 
ENDBRANCH  11  17
BRANCH   1  29
HETATM   29  C2  UNL     1      25.219  10.118  47.764  1.00  0.00     0.268 C 
HETATM   30  C1  UNL     1      25.448   9.096  46.730  1.00  0.00     0.037 C 
ENDBRANCH   1  29
TORSDOF 2
ENDMDL
MODEL 8
REMARK VINA RESULT:      -7.7      7.226     10.879
REMARK  2 active torsions:
REMARK  status: ('A' for Active; 'I' for Inactive)
REMARK    1  A    between atoms: C2_2  and  N1_3 
REMARK    2  A    between atoms: C10_13  and  C11_14 
ROOT
HETATM    1  N1  UNL     1      25.214   9.653  47.563  1.00  0.00     0.089 N 
HETATM    2  C3  UNL     1      24.875   9.391  48.965  1.00  0.00     0.292 C 
HETATM    3  C4  UNL     1      24.507   7.984  49.360  1.00  0.00     0.151 C 
HETATM    4  N2  UNL     1      25.659   7.188  49.057  1.00  0.00    -0.372 N 
HETATM    5  C5  UNL     1      26.774   6.413  48.764  1.00  0.00     0.081 A 
HETATM    6  O1  UNL     1      26.075   5.395  49.170  1.00  0.00    -0.301 OA
HETATM    7  C6  UNL     1      27.845   5.533  48.505  1.00  0.00     0.239 C 
HETATM    8  C7  UNL     1      28.865   6.326  47.896  1.00  0.00    -0.060 C 
HETATM    9  C8  UNL     1      29.573   4.962  47.896  1.00  0.00     0.045 C 
HETATM   10  C9  UNL     1      29.566   7.487  47.064  1.00  0.00    -0.030 C 
HETATM   11  C10 UNL     1      30.919   7.175  47.060  1.00  0.00     0.030 C 
HETATM   12  C19 UNL     1      28.420   7.923  46.749  1.00  0.00    -0.072 C 
HETATM   13  C20 UNL     1      29.121   9.027  45.966  1.00  0.00     0.044 C 
HETATM   14  C21 UNL     1      27.012   8.136  46.560  1.00  0.00     0.065 C 
HETATM   15  C22 UNL     1      26.603   9.370  47.289  1.00  0.00     0.276 C 
HETATM   16  H10 UNL     1      26.566   7.663  48.963  1.00  0.00     0.235 HD
ENDROOT
BRANCH  11  17
HETATM   17  C11 UNL     1      31.905   6.672  47.728  1.00  0.00     0.045 A 
HETATM   18  C12 UNL     1      32.360   6.452  49.078  1.00  0.00     0.257 A 
HETATM   19  O2  UNL     1      31.813   6.996  50.049  1.00  0.00    -0.267 OA
HETATM   20  N3  UNL     1      33.443   5.587  49.031  1.00  0.00    -0.322 N 
HETATM   21  C13 UNL     1      33.672   5.271  47.660  1.00  0.00     0.046 A 
HETATM   22  H16 UNL     1      33.907   5.298  49.911  1.00  0.00     0.169 HD
HETATM   23  C14 UNL     1      34.681   4.419  47.255  1.00  0.00     0.032 A 
HETATM   24  C18 UNL     1      32.791   5.885  46.816  1.00  0.00     0.008 A 
HETATM   25  C15 UNL     1      34.804   4.175  45.894  1.00  0.00     0.026 A 
HETATM   26  C16 UNL     1      33.960   4.760  45.034  1.00  0.00     0.035 A 
HETATM   27 CL1  UNL     1      34.080   4.475  43.309  1.00  0.00    -0.084 Cl
HETATM   28  C17 UNL     1      32.962   5.604  45.448  1.00  0.00     0.038 A 
ENDBRANCH  11  17
BRANCH   1  29
HETATM   29  C2  UNL     1      25.287  11.184  47.636  1.00  0.00     0.268 C 
HETATM   30  C1  UNL     1      26.532  11.707  47.051  1.00  0.00     0.037 C 
ENDBRANCH   1  29
TORSDOF 2
ENDMDL
MODEL 9
REMARK VINA RESULT:      -7.6      3.921      6.646
REMARK  2 active torsions:
REMARK  status: ('A' for Active; 'I' for Inactive)
REMARK    1  A    between atoms: C2_2  and  N1_3 
REMARK    2  A    between atoms: C10_13  and  C11_14 
ROOT
HETATM    1  N1  UNL     1      30.937   8.305  47.648  1.00  0.00     0.089 N 
HETATM    2  C3  UNL     1      30.787   9.650  48.212  1.00  0.00     0.292 C 
HETATM    3  C4  UNL     1      29.836  10.605  47.540  1.00  0.00     0.151 C 
HETATM    4  N2  UNL     1      28.548   9.980  47.614  1.00  0.00    -0.372 N 
HETATM    5  C5  UNL     1      27.300   9.376  47.683  1.00  0.00     0.081 A 
HETATM    6  O1  UNL     1      26.854  10.402  47.021  1.00  0.00    -0.301 OA
HETATM    7  C6  UNL     1      25.989   8.856  47.696  1.00  0.00     0.239 C 
HETATM    8  C7  UNL     1      26.086   7.565  48.301  1.00  0.00    -0.060 C 
HETATM    9  C8  UNL     1      24.574   7.602  48.023  1.00  0.00     0.045 C 
HETATM   10  C9  UNL     1      26.687   6.167  48.765  1.00  0.00    -0.030 C 
HETATM   11  C10 UNL     1      25.641   5.503  49.390  1.00  0.00     0.030 C 
HETATM   12  C19 UNL     1      27.743   6.432  48.117  1.00  0.00    -0.072 C 
HETATM   13  C20 UNL     1      28.293   5.090  48.583  1.00  0.00     0.044 C 
HETATM   14  C21 UNL     1      28.761   7.011  47.286  1.00  0.00     0.065 C 
HETATM   15  C22 UNL     1      29.920   7.406  48.138  1.00  0.00     0.276 C 
HETATM   16  H10 UNL     1      28.405   9.248  48.321  1.00  0.00     0.235 HD
ENDROOT
BRANCH  11  17
HETATM   17  C11 UNL     1      24.591   5.619  50.136  1.00  0.00     0.045 A 
HETATM   18  C12 UNL     1      23.970   6.511  51.083  1.00  0.00     0.257 A 
HETATM   19  O2  UNL     1      24.583   7.469  51.577  1.00  0.00    -0.267 OA
HETATM   20  N3  UNL     1      22.669   6.079  51.291  1.00  0.00    -0.322 N 
HETATM   21  C13 UNL     1      22.475   4.920  50.485  1.00  0.00     0.046 A 
HETATM   22  H16 UNL     1      22.053   6.602  51.939  1.00  0.00     0.169 HD
HETATM   23  C14 UNL     1      21.275   4.236  50.448  1.00  0.00     0.032 A 
HETATM   24  C18 UNL     1      23.583   4.579  49.763  1.00  0.00     0.008 A 
HETATM   25  C15 UNL     1      21.197   3.126  49.618  1.00  0.00     0.026 A 
HETATM   26  C16 UNL     1      22.263   2.759  48.895  1.00  0.00     0.035 A 
HETATM   27 CL1  UNL     1      22.204   1.366  47.833  1.00  0.00    -0.084 Cl
HETATM   28  C17 UNL     1      23.449   3.445  48.940  1.00  0.00     0.038 A 
ENDBRANCH  11  17
BRANCH   1  29
HETATM   29  C2  UNL     1      32.115   7.834  48.510  1.00  0.00     0.268 C 
HETATM   30  C1  UNL     1      31.689   6.907  49.570  1.00  0.00     0.037 C 
ENDBRANCH   1  29
TORSDOF 2
ENDMDL
