MODEL 1
REMARK VINA RESULT:      -9.2      0.000      0.000
REMARK  8 active torsions:
REMARK  status: ('A' for Active; 'I' for Inactive)
REMARK    1  A    between atoms: C2_2  and  C3_3 
REMARK       I    between atoms: C3_3  and  N1_5 
REMARK    2  A    between atoms: N1_5  and  C4_6 
REMARK    3  A    between atoms: C4_6  and  O2_7 
REMARK    4  A    between atoms: C4_6  and  C5_8 
REMARK    5  A    between atoms: C5_8  and  C6_9 
REMARK    6  A    between atoms: N3_14  and  C10_15 
REMARK    7  A    between atoms: N4_23  and  C18_24 
REMARK    8  A    between atoms: C18_24  and  C19_25 
ROOT
HETATM    1  C6  UNL     1      23.113  -0.792  53.148  1.00  0.00     0.139 C 
HETATM    2  C7  UNL     1      22.279  -1.446  54.199  1.00  0.00     0.036 C 
HETATM    3  C8  UNL     1      21.418  -0.707  54.896  1.00  0.00     0.079 C 
HETATM    4  N2  UNL     1      20.680   0.124  54.236  1.00  0.00    -0.268 NA
HETATM    5  C9  UNL     1      20.891   0.214  52.780  1.00  0.00     0.275 C 
HETATM    6  N3  UNL     1      22.354   0.352  52.659  1.00  0.00    -0.351 N 
ENDROOT
BRANCH   6   7
HETATM    7  C10 UNL     1      22.805   1.577  52.094  1.00  0.00     0.033 A 
HETATM    8  C11 UNL     1      23.261   2.645  52.839  1.00  0.00     0.031 A 
HETATM    9  C12 UNL     1      23.686   3.853  52.329  1.00  0.00     0.032 A 
HETATM   10  C13 UNL     1      23.637   3.969  50.957  1.00  0.00     0.037 A 
HETATM   11  C14 UNL     1      23.198   2.965  50.119  1.00  0.00    -0.028 A 
HETATM   12  N4  UNL     1      23.974   5.050  50.098  1.00  0.00    -0.374 N 
HETATM   13  C15 UNL     1      22.786   1.773  50.730  1.00  0.00     0.038 A 
HETATM   14  C16 UNL     1      23.270   3.372  48.691  1.00  0.00     0.060 C 
HETATM   15  C17 UNL     1      23.401   4.868  48.782  1.00  0.00     0.128 C 
BRANCH  12  16
HETATM   16  C18 UNL     1      24.780   6.248  50.386  1.00  0.00     0.182 C 
BRANCH  16  17
HETATM   17  C19 UNL     1      26.043   6.125  49.600  1.00  0.00     0.052 A 
HETATM   18  C20 UNL     1      26.553   4.847  49.418  1.00  0.00     0.029 A 
HETATM   19  C21 UNL     1      27.715   4.632  48.699  1.00  0.00     0.003 A 
HETATM   20  C22 UNL     1      28.369   5.745  48.155  1.00  0.00     0.019 A 
HETATM   21  C23 UNL     1      27.809   6.988  48.374  1.00  0.00     0.117 A 
HETATM   22  N5  UNL     1      26.667   7.193  49.082  1.00  0.00    -0.264 NA
ENDBRANCH  16  17
ENDBRANCH  12  16
ENDBRANCH   6   7
BRANCH   1  23
HETATM   23  C5  UNL     1      24.456  -0.479  53.630  1.00  0.00     0.058 C 
BRANCH  23  24
HETATM   24  C4  UNL     1      25.593  -0.536  54.348  1.00  0.00     0.140 C 
BRANCH  24  25
HETATM   25  N1  UNL     1      26.958  -0.609  53.868  1.00  0.00    -0.308 N 
HETATM   26  C3  UNL     1      27.930   0.395  54.089  1.00  0.00     0.223 C 
HETATM   27  O1  UNL     1      27.632   1.425  54.740  1.00  0.00    -0.273 OA
HETATM   28  H6  UNL     1      27.303  -1.445  53.310  1.00  0.00     0.170 HD
BRANCH  26  29
HETATM   29  C2  UNL     1      29.323   0.234  53.549  1.00  0.00     0.099 C 
HETATM   30  C1  UNL     1      29.732  -1.198  53.523  1.00  0.00     0.014 C 
ENDBRANCH  26  29
ENDBRANCH  24  25
BRANCH  24  31
HETATM   31  O2  UNL     1      25.841  -0.549  55.739  1.00  0.00    -0.346 OA
HETATM   32  H7  UNL     1      25.354  -1.223  56.310  1.00  0.00     0.219 HD
ENDBRANCH  24  31
ENDBRANCH  23  24
ENDBRANCH   1  23
TORSDOF 8
ENDMDL
MODEL 2
REMARK VINA RESULT:      -9.2      1.986      3.586
REMARK  8 active torsions:
REMARK  status: ('A' for Active; 'I' for Inactive)
REMARK    1  A    between atoms: C2_2  and  C3_3 
REMARK       I    between atoms: C3_3  and  N1_5 
REMARK    2  A    between atoms: N1_5  and  C4_6 
REMARK    3  A    between atoms: C4_6  and  O2_7 
REMARK    4  A    between atoms: C4_6  and  C5_8 
REMARK    5  A    between atoms: C5_8  and  C6_9 
REMARK    6  A    between atoms: N3_14  and  C10_15 
REMARK    7  A    between atoms: N4_23  and  C18_24 
REMARK    8  A    between atoms: C18_24  and  C19_25 
ROOT
HETATM    1  C6  UNL     1      24.924   1.414  51.853  1.00  0.00     0.139 C 
HETATM    2  C7  UNL     1      23.711   1.011  52.622  1.00  0.00     0.036 C 
HETATM    3  C8  UNL     1      22.715   1.884  52.768  1.00  0.00     0.079 C 
HETATM    4  N2  UNL     1      22.344   2.540  51.718  1.00  0.00    -0.268 NA
HETATM    5  C9  UNL     1      23.085   2.299  50.467  1.00  0.00     0.275 C 
HETATM    6  N3  UNL     1      24.495   2.414  50.882  1.00  0.00    -0.351 N 
ENDROOT
BRANCH   6   7
HETATM    7  C10 UNL     1      25.220   3.481  50.284  1.00  0.00     0.033 A 
HETATM    8  C11 UNL     1      26.349   3.304  49.509  1.00  0.00     0.031 A 
HETATM    9  C12 UNL     1      27.089   4.313  48.932  1.00  0.00     0.032 A 
HETATM   10  C13 UNL     1      26.637   5.592  49.169  1.00  0.00     0.037 A 
HETATM   11  C14 UNL     1      25.522   5.882  49.928  1.00  0.00    -0.028 A 
HETATM   12  N4  UNL     1      27.144   6.854  48.756  1.00  0.00    -0.374 N 
HETATM   13  C15 UNL     1      24.834   4.789  50.474  1.00  0.00     0.038 A 
HETATM   14  C16 UNL     1      25.271   7.345  49.997  1.00  0.00     0.060 C 
HETATM   15  C17 UNL     1      26.586   7.925  49.552  1.00  0.00     0.128 C 
BRANCH  12  16
HETATM   16  C18 UNL     1      28.109   7.162  47.687  1.00  0.00     0.182 C 
BRANCH  16  17
HETATM   17  C19 UNL     1      29.463   7.182  48.314  1.00  0.00     0.052 A 
HETATM   18  C20 UNL     1      30.173   5.990  48.324  1.00  0.00     0.029 A 
HETATM   19  C21 UNL     1      31.439   5.911  48.877  1.00  0.00     0.003 A 
HETATM   20  C22 UNL     1      31.989   7.074  49.431  1.00  0.00     0.019 A 
HETATM   21  C23 UNL     1      31.230   8.226  49.389  1.00  0.00     0.117 A 
HETATM   22  N5  UNL     1      29.987   8.297  48.845  1.00  0.00    -0.264 NA
ENDBRANCH  16  17
ENDBRANCH  12  16
ENDBRANCH   6   7
BRANCH   1  23
HETATM   23  C5  UNL     1      26.014   1.836  52.728  1.00  0.00     0.058 C 
BRANCH  23  24
HETATM   24  C4  UNL     1      27.230   1.896  53.305  1.00  0.00     0.140 C 
BRANCH  24  25
HETATM   25  N1  UNL     1      28.340   0.978  53.161  1.00  0.00    -0.308 N 
HETATM   26  C3  UNL     1      28.662  -0.030  54.100  1.00  0.00     0.223 C 
HETATM   27  O1  UNL     1      27.965  -0.171  55.134  1.00  0.00    -0.273 OA
HETATM   28  H6  UNL     1      28.985   1.018  52.316  1.00  0.00     0.170 HD
BRANCH  26  29
HETATM   29  C2  UNL     1      29.837  -0.938  53.867  1.00  0.00     0.099 C 
HETATM   30  C1  UNL     1      29.418  -2.208  53.213  1.00  0.00     0.014 C 
ENDBRANCH  26  29
ENDBRANCH  24  25
BRANCH  24  31
HETATM   31  O2  UNL     1      27.813   2.818  54.203  1.00  0.00    -0.346 OA
HETATM   32  H7  UNL     1      28.252   2.465  55.040  1.00  0.00     0.219 HD
ENDBRANCH  24  31
ENDBRANCH  23  24
ENDBRANCH   1  23
TORSDOF 8
ENDMDL
MODEL 3
REMARK VINA RESULT:      -8.8      0.939      1.026
REMARK  8 active torsions:
REMARK  status: ('A' for Active; 'I' for Inactive)
REMARK    1  A    between atoms: C2_2  and  C3_3 
REMARK       I    between atoms: C3_3  and  N1_5 
REMARK    2  A    between atoms: N1_5  and  C4_6 
REMARK    3  A    between atoms: C4_6  and  O2_7 
REMARK    4  A    between atoms: C4_6  and  C5_8 
REMARK    5  A    between atoms: C5_8  and  C6_9 
REMARK    6  A    between atoms: N3_14  and  C10_15 
REMARK    7  A    between atoms: N4_23  and  C18_24 
REMARK    8  A    between atoms: C18_24  and  C19_25 
ROOT
HETATM    1  C6  UNL     1      23.211  -0.569  53.132  1.00  0.00     0.139 C 
HETATM    2  C7  UNL     1      22.523  -1.147  54.323  1.00  0.00     0.036 C 
HETATM    3  C8  UNL     1      21.610  -0.418  54.963  1.00  0.00     0.079 C 
HETATM    4  N2  UNL     1      20.739   0.208  54.241  1.00  0.00    -0.268 NA
HETATM    5  C9  UNL     1      20.863   0.096  52.777  1.00  0.00     0.275 C 
HETATM    6  N3  UNL     1      22.287   0.388  52.534  1.00  0.00    -0.351 N 
ENDROOT
BRANCH   6   7
HETATM    7  C10 UNL     1      22.548   1.555  51.765  1.00  0.00     0.033 A 
HETATM    8  C11 UNL     1      22.837   2.788  52.314  1.00  0.00     0.031 A 
HETATM    9  C12 UNL     1      23.074   3.945  51.602  1.00  0.00     0.032 A 
HETATM   10  C13 UNL     1      23.008   3.823  50.232  1.00  0.00     0.037 A 
HETATM   11  C14 UNL     1      22.726   2.640  49.581  1.00  0.00    -0.028 A 
HETATM   12  N4  UNL     1      23.178   4.785  49.199  1.00  0.00    -0.374 N 
HETATM   13  C15 UNL     1      22.500   1.518  50.389  1.00  0.00     0.038 A 
HETATM   14  C16 UNL     1      22.736   2.811  48.104  1.00  0.00     0.060 C 
HETATM   15  C17 UNL     1      22.639   4.304  47.946  1.00  0.00     0.128 C 
BRANCH  12  16
HETATM   16  C18 UNL     1      23.793   6.121  49.267  1.00  0.00     0.182 C 
BRANCH  16  17
HETATM   17  C19 UNL     1      25.245   5.950  48.965  1.00  0.00     0.052 A 
HETATM   18  C20 UNL     1      25.815   4.723  49.274  1.00  0.00     0.029 A 
HETATM   19  C21 UNL     1      27.151   4.468  49.025  1.00  0.00     0.003 A 
HETATM   20  C22 UNL     1      27.921   5.487  48.449  1.00  0.00     0.019 A 
HETATM   21  C23 UNL     1      27.292   6.684  48.167  1.00  0.00     0.117 A 
HETATM   22  N5  UNL     1      25.979   6.928  48.415  1.00  0.00    -0.264 NA
ENDBRANCH  16  17
ENDBRANCH  12  16
ENDBRANCH   6   7
BRANCH   1  23
HETATM   23  C5  UNL     1      24.525  -0.027  53.467  1.00  0.00     0.058 C 
BRANCH  23  24
HETATM   24  C4  UNL     1      25.760   0.492  53.324  1.00  0.00     0.140 C 
BRANCH  24  25
HETATM   25  N1  UNL     1      27.031  -0.203  53.315  1.00  0.00    -0.308 N 
HETATM   26  C3  UNL     1      28.104   0.099  54.187  1.00  0.00     0.223 C 
HETATM   27  O1  UNL     1      27.986   1.015  55.036  1.00  0.00    -0.273 OA
HETATM   28  H6  UNL     1      27.224  -0.995  52.634  1.00  0.00     0.170 HD
BRANCH  26  29
HETATM   29  C2  UNL     1      29.390  -0.675  54.103  1.00  0.00     0.099 C 
HETATM   30  C1  UNL     1      29.272  -1.821  53.160  1.00  0.00     0.014 C 
ENDBRANCH  26  29
ENDBRANCH  24  25
BRANCH  24  31
HETATM   31  O2  UNL     1      26.223   1.815  53.148  1.00  0.00    -0.346 OA
HETATM   32  H7  UNL     1      27.110   2.074  53.551  1.00  0.00     0.219 HD
ENDBRANCH  24  31
ENDBRANCH  23  24
ENDBRANCH   1  23
TORSDOF 8
ENDMDL
MODEL 4
REMARK VINA RESULT:      -8.6      3.532      7.602
REMARK  8 active torsions:
REMARK  status: ('A' for Active; 'I' for Inactive)
REMARK    1  A    between atoms: C2_2  and  C3_3 
REMARK       I    between atoms: C3_3  and  N1_5 
REMARK    2  A    between atoms: N1_5  and  C4_6 
REMARK    3  A    between atoms: C4_6  and  O2_7 
REMARK    4  A    between atoms: C4_6  and  C5_8 
REMARK    5  A    between atoms: C5_8  and  C6_9 
REMARK    6  A    between atoms: N3_14  and  C10_15 
REMARK    7  A    between atoms: N4_23  and  C18_24 
REMARK    8  A    between atoms: C18_24  and  C19_25 
ROOT
HETATM    1  C6  UNL     1      23.575   8.115  50.036  1.00  0.00     0.139 C 
HETATM    2  C7  UNL     1      23.172   8.966  48.878  1.00  0.00     0.036 C 
HETATM    3  C8  UNL     1      23.176   8.441  47.654  1.00  0.00     0.079 C 
HETATM    4  N2  UNL     1      22.653   7.267  47.511  1.00  0.00    -0.268 NA
HETATM    5  C9  UNL     1      22.144   6.597  48.720  1.00  0.00     0.275 C 
HETATM    6  N3  UNL     1      23.255   6.738  49.679  1.00  0.00    -0.351 N 
ENDROOT
BRANCH   6   7
HETATM    7  C10 UNL     1      23.851   5.519  50.104  1.00  0.00     0.033 A 
HETATM    8  C11 UNL     1      24.709   4.770  49.325  1.00  0.00     0.031 A 
HETATM    9  C12 UNL     1      25.288   3.575  49.695  1.00  0.00     0.032 A 
HETATM   10  C13 UNL     1      24.961   3.120  50.953  1.00  0.00     0.037 A 
HETATM   11  C14 UNL     1      24.114   3.789  51.813  1.00  0.00    -0.028 A 
HETATM   12  N4  UNL     1      25.349   1.944  51.652  1.00  0.00    -0.374 N 
HETATM   13  C15 UNL     1      23.574   4.996  51.348  1.00  0.00     0.038 A 
HETATM   14  C16 UNL     1      23.960   3.066  53.103  1.00  0.00     0.060 C 
HETATM   15  C17 UNL     1      24.467   1.689  52.770  1.00  0.00     0.128 C 
BRANCH  12  16
HETATM   16  C18 UNL     1      26.465   1.026  51.375  1.00  0.00     0.182 C 
BRANCH  16  17
HETATM   17  C19 UNL     1      27.446   1.182  52.488  1.00  0.00     0.052 A 
HETATM   18  C20 UNL     1      27.707   0.061  53.263  1.00  0.00     0.029 A 
HETATM   19  C21 UNL     1      28.606   0.106  54.314  1.00  0.00     0.003 A 
HETATM   20  C22 UNL     1      29.251   1.322  54.577  1.00  0.00     0.019 A 
HETATM   21  C23 UNL     1      28.945   2.398  53.768  1.00  0.00     0.117 A 
HETATM   22  N5  UNL     1      28.061   2.347  52.739  1.00  0.00    -0.264 NA
ENDBRANCH  16  17
ENDBRANCH  12  16
ENDBRANCH   6   7
BRANCH   1  23
HETATM   23  C5  UNL     1      24.965   8.342  50.425  1.00  0.00     0.058 C 
BRANCH  23  24
HETATM   24  C4  UNL     1      26.305   8.444  50.348  1.00  0.00     0.140 C 
BRANCH  24  25
HETATM   25  N1  UNL     1      27.246   7.514  49.758  1.00  0.00    -0.308 N 
HETATM   26  C3  UNL     1      27.699   7.588  48.421  1.00  0.00     0.223 C 
HETATM   27  O1  UNL     1      27.288   8.502  47.667  1.00  0.00    -0.273 OA
HETATM   28  H6  UNL     1      27.652   6.708  50.320  1.00  0.00     0.170 HD
BRANCH  26  29
HETATM   29  C2  UNL     1      28.676   6.574  47.893  1.00  0.00     0.099 C 
HETATM   30  C1  UNL     1      28.358   5.206  48.390  1.00  0.00     0.014 C 
ENDBRANCH  26  29
ENDBRANCH  24  25
BRANCH  24  31
HETATM   31  O2  UNL     1      27.212   9.433  50.791  1.00  0.00    -0.346 OA
HETATM   32  H7  UNL     1      27.604   9.349  51.717  1.00  0.00     0.219 HD
ENDBRANCH  24  31
ENDBRANCH  23  24
ENDBRANCH   1  23
TORSDOF 8
ENDMDL
MODEL 5
REMARK VINA RESULT:      -8.6      1.648      2.711
REMARK  8 active torsions:
REMARK  status: ('A' for Active; 'I' for Inactive)
REMARK    1  A    between atoms: C2_2  and  C3_3 
REMARK       I    between atoms: C3_3  and  N1_5 
REMARK    2  A    between atoms: N1_5  and  C4_6 
REMARK    3  A    between atoms: C4_6  and  O2_7 
REMARK    4  A    between atoms: C4_6  and  C5_8 
REMARK    5  A    between atoms: C5_8  and  C6_9 
REMARK    6  A    between atoms: N3_14  and  C10_15 
REMARK    7  A    between atoms: N4_23  and  C18_24 
REMARK    8  A    between atoms: C18_24  and  C19_25 
ROOT
HETATM    1  C6  UNL     1      23.220  -0.688  53.082  1.00  0.00     0.139 C 
HETATM    2  C7  UNL     1      22.283  -1.458  53.951  1.00  0.00     0.036 C 
HETATM    3  C8  UNL     1      21.297  -0.813  54.573  1.00  0.00     0.079 C 
HETATM    4  N2  UNL     1      20.617   0.039  53.879  1.00  0.00    -0.268 NA
HETATM    5  C9  UNL     1      21.023   0.257  52.480  1.00  0.00     0.275 C 
HETATM    6  N3  UNL     1      22.479   0.463  52.578  1.00  0.00    -0.351 N 
ENDROOT
BRANCH   6   7
HETATM    7  C10 UNL     1      22.942   1.746  52.178  1.00  0.00     0.033 A 
HETATM    8  C11 UNL     1      22.478   2.931  52.711  1.00  0.00     0.031 A 
HETATM    9  C12 UNL     1      22.886   4.193  52.334  1.00  0.00     0.032 A 
HETATM   10  C13 UNL     1      23.837   4.237  51.338  1.00  0.00     0.037 A 
HETATM   11  C14 UNL     1      24.368   3.114  50.737  1.00  0.00    -0.028 A 
HETATM   12  N4  UNL     1      24.470   5.337  50.699  1.00  0.00    -0.374 N 
HETATM   13  C15 UNL     1      23.891   1.876  51.187  1.00  0.00     0.038 A 
HETATM   14  C16 UNL     1      25.381   3.471  49.709  1.00  0.00     0.060 C 
HETATM   15  C17 UNL     1      25.099   4.928  49.462  1.00  0.00     0.128 C 
BRANCH  12  16
HETATM   16  C18 UNL     1      24.543   6.743  51.127  1.00  0.00     0.182 C 
BRANCH  16  17
HETATM   17  C19 UNL     1      23.419   7.463  50.458  1.00  0.00     0.052 A 
HETATM   18  C20 UNL     1      23.752   8.354  49.447  1.00  0.00     0.029 A 
HETATM   19  C21 UNL     1      22.779   9.063  48.765  1.00  0.00     0.003 A 
HETATM   20  C22 UNL     1      21.440   8.857  49.124  1.00  0.00     0.019 A 
HETATM   21  C23 UNL     1      21.179   7.957  50.138  1.00  0.00     0.117 A 
HETATM   22  N5  UNL     1      22.139   7.265  50.805  1.00  0.00    -0.264 NA
ENDBRANCH  16  17
ENDBRANCH  12  16
ENDBRANCH   6   7
BRANCH   1  23
HETATM   23  C5  UNL     1      24.466  -0.362  53.772  1.00  0.00     0.058 C 
BRANCH  23  24
HETATM   24  C4  UNL     1      25.625  -0.514  54.440  1.00  0.00     0.140 C 
BRANCH  24  25
HETATM   25  N1  UNL     1      26.952  -0.732  53.901  1.00  0.00    -0.308 N 
HETATM   26  C3  UNL     1      28.068   0.087  54.189  1.00  0.00     0.223 C 
HETATM   27  O1  UNL     1      27.944   1.072  54.956  1.00  0.00    -0.273 OA
HETATM   28  H6  UNL     1      27.155  -1.543  53.244  1.00  0.00     0.170 HD
BRANCH  26  29
HETATM   29  C2  UNL     1      29.409  -0.215  53.580  1.00  0.00     0.099 C 
HETATM   30  C1  UNL     1      29.629  -1.683  53.457  1.00  0.00     0.014 C 
ENDBRANCH  26  29
ENDBRANCH  24  25
BRANCH  24  31
HETATM   31  O2  UNL     1      25.937  -0.518  55.819  1.00  0.00    -0.346 OA
HETATM   32  H7  UNL     1      26.853  -0.827  56.106  1.00  0.00     0.219 HD
ENDBRANCH  24  31
ENDBRANCH  23  24
ENDBRANCH   1  23
TORSDOF 8
ENDMDL
MODEL 6
REMARK VINA RESULT:      -8.3      2.383      3.337
REMARK  8 active torsions:
REMARK  status: ('A' for Active; 'I' for Inactive)
REMARK    1  A    between atoms: C2_2  and  C3_3 
REMARK       I    between atoms: C3_3  and  N1_5 
REMARK    2  A    between atoms: N1_5  and  C4_6 
REMARK    3  A    between atoms: C4_6  and  O2_7 
REMARK    4  A    between atoms: C4_6  and  C5_8 
REMARK    5  A    between atoms: C5_8  and  C6_9 
REMARK    6  A    between atoms: N3_14  and  C10_15 
REMARK    7  A    between atoms: N4_23  and  C18_24 
REMARK    8  A    between atoms: C18_24  and  C19_25 
ROOT
HETATM    1  C6  UNL     1      23.411  -0.031  53.088  1.00  0.00     0.139 C 
HETATM    2  C7  UNL     1      22.957  -0.748  54.316  1.00  0.00     0.036 C 
HETATM    3  C8  UNL     1      21.818  -0.377  54.900  1.00  0.00     0.079 C 
HETATM    4  N2  UNL     1      20.797  -0.175  54.134  1.00  0.00    -0.268 NA
HETATM    5  C9  UNL     1      20.996  -0.326  52.681  1.00  0.00     0.275 C 
HETATM    6  N3  UNL     1      22.213   0.465  52.422  1.00  0.00    -0.351 N 
ENDROOT
BRANCH   6   7
HETATM    7  C10 UNL     1      22.037   1.592  51.573  1.00  0.00     0.033 A 
HETATM    8  C11 UNL     1      21.417   2.761  51.966  1.00  0.00     0.031 A 
HETATM    9  C12 UNL     1      21.210   3.864  51.166  1.00  0.00     0.032 A 
HETATM   10  C13 UNL     1      21.672   3.757  49.873  1.00  0.00     0.037 A 
HETATM   11  C14 UNL     1      22.305   2.635  49.378  1.00  0.00    -0.028 A 
HETATM   12  N4  UNL     1      21.624   4.669  48.784  1.00  0.00    -0.374 N 
HETATM   13  C15 UNL     1      22.470   1.564  50.266  1.00  0.00     0.038 A 
HETATM   14  C16 UNL     1      22.704   2.814  47.956  1.00  0.00     0.060 C 
HETATM   15  C17 UNL     1      21.874   3.995  47.529  1.00  0.00     0.128 C 
BRANCH  12  16
HETATM   16  C18 UNL     1      21.359   6.117  48.798  1.00  0.00     0.182 C 
BRANCH  16  17
HETATM   17  C19 UNL     1      22.645   6.794  49.136  1.00  0.00     0.052 A 
HETATM   18  C20 UNL     1      22.819   7.202  50.451  1.00  0.00     0.029 A 
HETATM   19  C21 UNL     1      23.980   7.832  50.861  1.00  0.00     0.003 A 
HETATM   20  C22 UNL     1      24.983   8.050  49.908  1.00  0.00     0.019 A 
HETATM   21  C23 UNL     1      24.746   7.620  48.617  1.00  0.00     0.117 A 
HETATM   22  N5  UNL     1      23.603   7.002  48.221  1.00  0.00    -0.264 NA
ENDBRANCH  16  17
ENDBRANCH  12  16
ENDBRANCH   6   7
BRANCH   1  23
HETATM   23  C5  UNL     1      24.414   0.987  53.388  1.00  0.00     0.058 C 
BRANCH  23  24
HETATM   24  C4  UNL     1      25.212   2.063  53.251  1.00  0.00     0.140 C 
BRANCH  24  25
HETATM   25  N1  UNL     1      25.114   3.139  52.286  1.00  0.00    -0.308 N 
HETATM   26  C3  UNL     1      25.815   3.166  51.057  1.00  0.00     0.223 C 
HETATM   27  O1  UNL     1      26.577   2.219  50.747  1.00  0.00    -0.273 OA
HETATM   28  H6  UNL     1      24.492   3.983  52.460  1.00  0.00     0.170 HD
BRANCH  26  29
HETATM   29  C2  UNL     1      25.653   4.328  50.117  1.00  0.00     0.099 C 
HETATM   30  C1  UNL     1      26.784   4.404  49.151  1.00  0.00     0.014 C 
ENDBRANCH  26  29
ENDBRANCH  24  25
BRANCH  24  31
HETATM   31  O2  UNL     1      26.359   2.494  53.955  1.00  0.00    -0.346 OA
HETATM   32  H7  UNL     1      27.261   2.395  53.516  1.00  0.00     0.219 HD
ENDBRANCH  24  31
ENDBRANCH  23  24
ENDBRANCH   1  23
TORSDOF 8
ENDMDL
MODEL 7
REMARK VINA RESULT:      -8.3      2.400      5.686
REMARK  8 active torsions:
REMARK  status: ('A' for Active; 'I' for Inactive)
REMARK    1  A    between atoms: C2_2  and  C3_3 
REMARK       I    between atoms: C3_3  and  N1_5 
REMARK    2  A    between atoms: N1_5  and  C4_6 
REMARK    3  A    between atoms: C4_6  and  O2_7 
REMARK    4  A    between atoms: C4_6  and  C5_8 
REMARK    5  A    between atoms: C5_8  and  C6_9 
REMARK    6  A    between atoms: N3_14  and  C10_15 
REMARK    7  A    between atoms: N4_23  and  C18_24 
REMARK    8  A    between atoms: C18_24  and  C19_25 
ROOT
HETATM    1  C6  UNL     1      26.531   0.705  54.617  1.00  0.00     0.139 C 
HETATM    2  C7  UNL     1      27.843  -0.005  54.641  1.00  0.00     0.036 C 
HETATM    3  C8  UNL     1      28.618   0.026  53.558  1.00  0.00     0.079 C 
HETATM    4  N2  UNL     1      28.773   1.168  52.973  1.00  0.00    -0.268 NA
HETATM    5  C9  UNL     1      28.042   2.322  53.527  1.00  0.00     0.275 C 
HETATM    6  N3  UNL     1      26.667   1.811  53.676  1.00  0.00    -0.351 N 
ENDROOT
BRANCH   6   7
HETATM    7  C10 UNL     1      25.686   2.463  52.880  1.00  0.00     0.033 A 
HETATM    8  C11 UNL     1      24.512   2.986  53.383  1.00  0.00     0.031 A 
HETATM    9  C12 UNL     1      23.529   3.605  52.641  1.00  0.00     0.032 A 
HETATM   10  C13 UNL     1      23.772   3.691  51.287  1.00  0.00     0.037 A 
HETATM   11  C14 UNL     1      24.910   3.201  50.681  1.00  0.00    -0.028 A 
HETATM   12  N4  UNL     1      22.993   4.238  50.231  1.00  0.00    -0.374 N 
HETATM   13  C15 UNL     1      25.852   2.588  51.518  1.00  0.00     0.038 A 
HETATM   14  C16 UNL     1      24.900   3.448  49.215  1.00  0.00     0.060 C 
HETATM   15  C17 UNL     1      23.454   3.761  48.945  1.00  0.00     0.128 C 
BRANCH  12  16
HETATM   16  C18 UNL     1      21.851   5.163  50.304  1.00  0.00     0.182 C 
BRANCH  16  17
HETATM   17  C19 UNL     1      20.620   4.329  50.433  1.00  0.00     0.052 A 
HETATM   18  C20 UNL     1      19.997   3.933  49.258  1.00  0.00     0.029 A 
HETATM   19  C21 UNL     1      18.855   3.154  49.277  1.00  0.00     0.003 A 
HETATM   20  C22 UNL     1      18.338   2.771  50.522  1.00  0.00     0.019 A 
HETATM   21  C23 UNL     1      19.006   3.200  51.652  1.00  0.00     0.117 A 
HETATM   22  N5  UNL     1      20.127   3.966  51.627  1.00  0.00    -0.264 NA
ENDBRANCH  16  17
ENDBRANCH  12  16
ENDBRANCH   6   7
BRANCH   1  23
HETATM   23  C5  UNL     1      25.421  -0.203  54.341  1.00  0.00     0.058 C 
BRANCH  23  24
HETATM   24  C4  UNL     1      24.165  -0.667  54.194  1.00  0.00     0.140 C 
BRANCH  24  25
HETATM   25  N1  UNL     1      23.265  -0.487  53.073  1.00  0.00    -0.308 N 
HETATM   26  C3  UNL     1      21.971   0.074  53.179  1.00  0.00     0.223 C 
HETATM   27  O1  UNL     1      21.540   0.454  54.294  1.00  0.00    -0.273 OA
HETATM   28  H6  UNL     1      23.544  -0.776  52.089  1.00  0.00     0.170 HD
BRANCH  26  29
HETATM   29  C2  UNL     1      21.105   0.220  51.959  1.00  0.00     0.099 C 
HETATM   30  C1  UNL     1      21.883   0.745  50.802  1.00  0.00     0.014 C 
ENDBRANCH  26  29
ENDBRANCH  24  25
BRANCH  24  31
HETATM   31  O2  UNL     1      23.331  -1.441  55.032  1.00  0.00    -0.346 OA
HETATM   32  H7  UNL     1      23.737  -2.216  55.534  1.00  0.00     0.219 HD
ENDBRANCH  24  31
ENDBRANCH  23  24
ENDBRANCH   1  23
TORSDOF 8
ENDMDL
MODEL 8
REMARK VINA RESULT:      -8.1      3.337      5.738
REMARK  8 active torsions:
REMARK  status: ('A' for Active; 'I' for Inactive)
REMARK    1  A    between atoms: C2_2  and  C3_3 
REMARK       I    between atoms: C3_3  and  N1_5 
REMARK    2  A    between atoms: N1_5  and  C4_6 
REMARK    3  A    between atoms: C4_6  and  O2_7 
REMARK    4  A    between atoms: C4_6  and  C5_8 
REMARK    5  A    between atoms: C5_8  and  C6_9 
REMARK    6  A    between atoms: N3_14  and  C10_15 
REMARK    7  A    between atoms: N4_23  and  C18_24 
REMARK    8  A    between atoms: C18_24  and  C19_25 
ROOT
HETATM    1  C6  UNL     1      18.125   0.340  50.659  1.00  0.00     0.139 C 
HETATM    2  C7  UNL     1      16.680   0.707  50.704  1.00  0.00     0.036 C 
HETATM    3  C8  UNL     1      16.337   1.962  50.989  1.00  0.00     0.079 C 
HETATM    4  N2  UNL     1      16.988   2.905  50.389  1.00  0.00    -0.268 NA
HETATM    5  C9  UNL     1      18.080   2.507  49.483  1.00  0.00     0.275 C 
HETATM    6  N3  UNL     1      18.855   1.546  50.288  1.00  0.00    -0.351 N 
ENDROOT
BRANCH   6   7
HETATM    7  C10 UNL     1      20.188   1.939  50.588  1.00  0.00     0.033 A 
HETATM    8  C11 UNL     1      21.301   1.184  50.276  1.00  0.00     0.031 A 
HETATM    9  C12 UNL     1      22.605   1.521  50.570  1.00  0.00     0.032 A 
HETATM   10  C13 UNL     1      22.775   2.718  51.230  1.00  0.00     0.037 A 
HETATM   11  C14 UNL     1      21.733   3.549  51.590  1.00  0.00    -0.028 A 
HETATM   12  N4  UNL     1      23.949   3.369  51.698  1.00  0.00    -0.374 N 
HETATM   13  C15 UNL     1      20.443   3.121  51.249  1.00  0.00     0.038 A 
HETATM   14  C16 UNL     1      22.222   4.773  52.278  1.00  0.00     0.060 C 
HETATM   15  C17 UNL     1      23.625   4.395  52.665  1.00  0.00     0.128 C 
BRANCH  12  16
HETATM   16  C18 UNL     1      25.354   3.124  51.333  1.00  0.00     0.182 C 
BRANCH  16  17
HETATM   17  C19 UNL     1      25.844   2.014  52.201  1.00  0.00     0.052 A 
HETATM   18  C20 UNL     1      26.212   0.833  51.572  1.00  0.00     0.029 A 
HETATM   19  C21 UNL     1      26.684  -0.249  52.293  1.00  0.00     0.003 A 
HETATM   20  C22 UNL     1      26.781  -0.122  53.685  1.00  0.00     0.019 A 
HETATM   21  C23 UNL     1      26.398   1.079  54.248  1.00  0.00     0.117 A 
HETATM   22  N5  UNL     1      25.935   2.138  53.534  1.00  0.00    -0.264 NA
ENDBRANCH  16  17
ENDBRANCH  12  16
ENDBRANCH   6   7
BRANCH   1  23
HETATM   23  C5  UNL     1      18.570  -0.291  51.900  1.00  0.00     0.058 C 
BRANCH  23  24
HETATM   24  C4  UNL     1      18.531  -0.899  53.100  1.00  0.00     0.140 C 
BRANCH  24  25
HETATM   25  N1  UNL     1      19.637  -1.389  53.896  1.00  0.00    -0.308 N 
HETATM   26  C3  UNL     1      20.803  -0.639  54.177  1.00  0.00     0.223 C 
HETATM   27  O1  UNL     1      20.924   0.526  53.729  1.00  0.00    -0.273 OA
HETATM   28  H6  UNL     1      19.624  -2.364  54.320  1.00  0.00     0.170 HD
BRANCH  26  29
HETATM   29  C2  UNL     1      21.904  -1.232  55.012  1.00  0.00     0.099 C 
HETATM   30  C1  UNL     1      23.245  -0.886  54.465  1.00  0.00     0.014 C 
ENDBRANCH  26  29
ENDBRANCH  24  25
BRANCH  24  31
HETATM   31  O2  UNL     1      17.462  -1.256  53.953  1.00  0.00    -0.346 OA
HETATM   32  H7  UNL     1      16.517  -1.116  53.628  1.00  0.00     0.219 HD
ENDBRANCH  24  31
ENDBRANCH  23  24
ENDBRANCH   1  23
TORSDOF 8
ENDMDL
MODEL 9
REMARK VINA RESULT:      -8.1      2.718      4.663
REMARK  8 active torsions:
REMARK  status: ('A' for Active; 'I' for Inactive)
REMARK    1  A    between atoms: C2_2  and  C3_3 
REMARK       I    between atoms: C3_3  and  N1_5 
REMARK    2  A    between atoms: N1_5  and  C4_6 
REMARK    3  A    between atoms: C4_6  and  O2_7 
REMARK    4  A    between atoms: C4_6  and  C5_8 
REMARK    5  A    between atoms: C5_8  and  C6_9 
REMARK    6  A    between atoms: N3_14  and  C10_15 
REMARK    7  A    between atoms: N4_23  and  C18_24 
REMARK    8  A    between atoms: C18_24  and  C19_25 
ROOT
HETATM    1  C6  UNL     1      24.941   0.109  53.767  1.00  0.00     0.139 C 
HETATM    2  C7  UNL     1      25.965  -0.960  53.579  1.00  0.00     0.036 C 
HETATM    3  C8  UNL     1      26.715  -0.956  52.478  1.00  0.00     0.079 C 
HETATM    4  N2  UNL     1      27.222   0.176  52.112  1.00  0.00    -0.268 NA
HETATM    5  C9  UNL     1      26.888   1.364  52.917  1.00  0.00     0.275 C 
HETATM    6  N3  UNL     1      25.421   1.283  53.047  1.00  0.00    -0.351 N 
ENDROOT
BRANCH   6   7
HETATM    7  C10 UNL     1      24.697   2.349  52.447  1.00  0.00     0.033 A 
HETATM    8  C11 UNL     1      24.069   3.349  53.162  1.00  0.00     0.031 A 
HETATM    9  C12 UNL     1      23.341   4.386  52.618  1.00  0.00     0.032 A 
HETATM   10  C13 UNL     1      23.253   4.393  51.243  1.00  0.00     0.037 A 
HETATM   11  C14 UNL     1      23.841   3.443  50.434  1.00  0.00    -0.028 A 
HETATM   12  N4  UNL     1      22.588   5.280  50.354  1.00  0.00    -0.374 N 
HETATM   13  C15 UNL     1      24.561   2.428  51.079  1.00  0.00     0.038 A 
HETATM   14  C16 UNL     1      23.587   3.716  48.995  1.00  0.00     0.060 C 
HETATM   15  C17 UNL     1      22.439   4.687  49.043  1.00  0.00     0.128 C 
BRANCH  12  16
HETATM   16  C18 UNL     1      22.069   6.633  50.609  1.00  0.00     0.182 C 
BRANCH  16  17
HETATM   17  C19 UNL     1      23.019   7.593  49.975  1.00  0.00     0.052 A 
HETATM   18  C20 UNL     1      24.268   7.729  50.563  1.00  0.00     0.029 A 
HETATM   19  C21 UNL     1      25.218   8.590  50.044  1.00  0.00     0.003 A 
HETATM   20  C22 UNL     1      24.884   9.327  48.900  1.00  0.00     0.019 A 
HETATM   21  C23 UNL     1      23.624   9.145  48.365  1.00  0.00     0.117 A 
HETATM   22  N5  UNL     1      22.695   8.299  48.880  1.00  0.00    -0.264 NA
ENDBRANCH  16  17
ENDBRANCH  12  16
ENDBRANCH   6   7
BRANCH   1  23
HETATM   23  C5  UNL     1      23.604  -0.339  53.389  1.00  0.00     0.058 C 
BRANCH  23  24
HETATM   24  C4  UNL     1      22.314  -0.305  53.004  1.00  0.00     0.140 C 
BRANCH  24  25
HETATM   25  N1  UNL     1      21.765   0.134  51.737  1.00  0.00    -0.308 N 
HETATM   26  C3  UNL     1      20.994   1.308  51.572  1.00  0.00     0.223 C 
HETATM   27  O1  UNL     1      20.749   2.043  52.558  1.00  0.00    -0.273 OA
HETATM   28  H6  UNL     1      21.921  -0.423  50.845  1.00  0.00     0.170 HD
BRANCH  26  29
HETATM   29  C2  UNL     1      20.463   1.683  50.216  1.00  0.00     0.099 C 
HETATM   30  C1  UNL     1      21.229   1.011  49.130  1.00  0.00     0.014 C 
ENDBRANCH  26  29
ENDBRANCH  24  25
BRANCH  24  31
HETATM   31  O2  UNL     1      21.114  -0.658  53.661  1.00  0.00    -0.346 OA
HETATM   32  H7  UNL     1      20.696   0.007  54.294  1.00  0.00     0.219 HD
ENDBRANCH  24  31
ENDBRANCH  23  24
ENDBRANCH   1  23
TORSDOF 8
ENDMDL
