MODEL 1
REMARK VINA RESULT:      -7.5      0.000      0.000
REMARK  7 active torsions:
REMARK  status: ('A' for Active; 'I' for Inactive)
REMARK    1  A    between atoms: O1_1  and  C1_2 
REMARK    2  A    between atoms: C1_2  and  O2_3 
REMARK    3  A    between atoms: O2_3  and  C2_4 
REMARK    4  A    between atoms: C4_6  and  C5_7 
REMARK    5  A    between atoms: C8_12  and  N3_13 
REMARK    6  A    between atoms: N3_13  and  C9_14 
REMARK    7  A    between atoms: C11_16  and  C12_17 
ROOT
HETATM    1  C5  UNL     1      27.852  -0.216  53.633  1.00  0.00     0.019 A 
HETATM    2  C6  UNL     1      29.126  -0.634  53.943  1.00  0.00     0.130 A 
HETATM    3  N1  UNL     1      29.521  -1.905  53.662  1.00  0.00    -0.253 NA
HETATM    4  C7  UNL     1      28.663  -2.770  53.075  1.00  0.00     0.234 A 
HETATM    5  N2  UNL     1      27.458  -2.307  52.804  1.00  0.00    -0.224 NA
HETATM    6  C8  UNL     1      26.966  -1.085  53.034  1.00  0.00     0.134 A 
ENDROOT
BRANCH   6   7
HETATM    7  N3  UNL     1      25.656  -0.647  52.700  1.00  0.00    -0.369 N 
HETATM    8  H8  UNL     1      25.601   0.001  51.853  1.00  0.00     0.161 HD
BRANCH   7   9
HETATM    9  C9  UNL     1      24.356  -0.868  53.209  1.00  0.00     0.092 A 
HETATM   10  C10 UNL     1      23.895  -0.496  54.551  1.00  0.00     0.037 A 
HETATM   11  C11 UNL     1      23.532   0.394  53.442  1.00  0.00     0.043 A 
BRANCH  11  12
HETATM   12  C12 UNL     1      22.200   0.349  52.787  1.00  0.00    -0.052 A 
HETATM   13  C13 UNL     1      21.033  -0.037  53.417  1.00  0.00     0.007 A 
HETATM   14  C14 UNL     1      19.809  -0.069  52.782  1.00  0.00     0.001 A 
HETATM   15  C15 UNL     1      19.700   0.293  51.462  1.00  0.00     0.000 A 
HETATM   16  C16 UNL     1      20.822   0.688  50.779  1.00  0.00     0.001 A 
HETATM   17  C17 UNL     1      22.020   0.706  51.443  1.00  0.00     0.007 A 
ENDBRANCH  11  12
ENDBRANCH   7   9
ENDBRANCH   6   7
BRANCH   1  18
HETATM   18  C4  UNL     1      27.603   1.184  54.028  1.00  0.00     0.105 A 
HETATM   19  C2  UNL     1      27.196   2.154  52.957  1.00  0.00     0.059 A 
HETATM   20  C3  UNL     1      28.406   2.297  53.533  1.00  0.00     0.023 A 
BRANCH  19  21
HETATM   21  O2  UNL     1      26.156   2.483  52.072  1.00  0.00    -0.330 OA
BRANCH  21  22
HETATM   22  C1  UNL     1      26.474   2.609  50.701  1.00  0.00     0.341 C 
BRANCH  22  23
HETATM   23  O1  UNL     1      27.189   3.784  50.511  1.00  0.00    -0.377 OA
HETATM   24  H1  UNL     1      27.739   4.015  51.310  1.00  0.00     0.212 HD
ENDBRANCH  22  23
ENDBRANCH  21  22
ENDBRANCH  19  21
ENDBRANCH   1  18
TORSDOF 7
ENDMDL
MODEL 2
REMARK VINA RESULT:      -7.3      3.246      6.400
REMARK  7 active torsions:
REMARK  status: ('A' for Active; 'I' for Inactive)
REMARK    1  A    between atoms: O1_1  and  C1_2 
REMARK    2  A    between atoms: C1_2  and  O2_3 
REMARK    3  A    between atoms: O2_3  and  C2_4 
REMARK    4  A    between atoms: C4_6  and  C5_7 
REMARK    5  A    between atoms: C8_12  and  N3_13 
REMARK    6  A    between atoms: N3_13  and  C9_14 
REMARK    7  A    between atoms: C11_16  and  C12_17 
ROOT
HETATM    1  C5  UNL     1      26.707   1.005  52.758  1.00  0.00     0.019 A 
HETATM    2  C6  UNL     1      27.325   0.152  53.643  1.00  0.00     0.130 A 
HETATM    3  N1  UNL     1      28.511   0.494  54.216  1.00  0.00    -0.253 NA
HETATM    4  C7  UNL     1      29.092   1.679  53.920  1.00  0.00     0.234 A 
HETATM    5  N2  UNL     1      28.449   2.450  53.066  1.00  0.00    -0.224 NA
HETATM    6  C8  UNL     1      27.287   2.217  52.447  1.00  0.00     0.134 A 
ENDROOT
BRANCH   6   7
HETATM    7  N3  UNL     1      26.639   3.104  51.545  1.00  0.00    -0.369 N 
HETATM    8  H8  UNL     1      25.936   3.769  51.996  1.00  0.00     0.161 HD
BRANCH   7   9
HETATM    9  C9  UNL     1      26.700   3.355  50.156  1.00  0.00     0.092 A 
HETATM   10  C10 UNL     1      25.557   3.328  49.237  1.00  0.00     0.037 A 
HETATM   11  C11 UNL     1      26.019   4.641  49.703  1.00  0.00     0.043 A 
BRANCH  11  12
HETATM   12  C12 UNL     1      26.901   5.512  48.885  1.00  0.00    -0.052 A 
HETATM   13  C13 UNL     1      28.219   5.227  48.586  1.00  0.00     0.007 A 
HETATM   14  C14 UNL     1      29.015   6.056  47.823  1.00  0.00     0.001 A 
HETATM   15  C15 UNL     1      28.513   7.229  47.317  1.00  0.00     0.000 A 
HETATM   16  C16 UNL     1      27.209   7.570  47.577  1.00  0.00     0.001 A 
HETATM   17  C17 UNL     1      26.450   6.722  48.338  1.00  0.00     0.007 A 
ENDBRANCH  11  12
ENDBRANCH   7   9
ENDBRANCH   6   7
BRANCH   1  18
HETATM   18  C4  UNL     1      25.445   0.456  52.229  1.00  0.00     0.105 A 
HETATM   19  C2  UNL     1      24.216   1.315  52.310  1.00  0.00     0.059 A 
HETATM   20  C3  UNL     1      24.280   0.204  53.070  1.00  0.00     0.023 A 
BRANCH  19  21
HETATM   21  O2  UNL     1      23.626   2.486  51.805  1.00  0.00    -0.330 OA
BRANCH  21  22
HETATM   22  C1  UNL     1      23.337   3.524  52.720  1.00  0.00     0.341 C 
BRANCH  22  23
HETATM   23  O1  UNL     1      24.465   3.773  53.489  1.00  0.00    -0.377 OA
HETATM   24  H1  UNL     1      24.982   4.554  53.146  1.00  0.00     0.212 HD
ENDBRANCH  22  23
ENDBRANCH  21  22
ENDBRANCH  19  21
ENDBRANCH   1  18
TORSDOF 7
ENDMDL
MODEL 3
REMARK VINA RESULT:      -7.3      2.532      3.775
REMARK  7 active torsions:
REMARK  status: ('A' for Active; 'I' for Inactive)
REMARK    1  A    between atoms: O1_1  and  C1_2 
REMARK    2  A    between atoms: C1_2  and  O2_3 
REMARK    3  A    between atoms: O2_3  and  C2_4 
REMARK    4  A    between atoms: C4_6  and  C5_7 
REMARK    5  A    between atoms: C8_12  and  N3_13 
REMARK    6  A    between atoms: N3_13  and  C9_14 
REMARK    7  A    between atoms: C11_16  and  C12_17 
ROOT
HETATM    1  C5  UNL     1      27.438   0.701  53.122  1.00  0.00     0.019 A 
HETATM    2  C6  UNL     1      28.534   0.024  53.606  1.00  0.00     0.130 A 
HETATM    3  N1  UNL     1      29.520   0.692  54.264  1.00  0.00    -0.253 NA
HETATM    4  C7  UNL     1      29.431   2.029  54.449  1.00  0.00     0.234 A 
HETATM    5  N2  UNL     1      28.356   2.617  53.961  1.00  0.00    -0.224 NA
HETATM    6  C8  UNL     1      27.332   2.063  53.302  1.00  0.00     0.134 A 
ENDROOT
BRANCH   6   7
HETATM    7  N3  UNL     1      26.192   2.758  52.815  1.00  0.00    -0.369 N 
HETATM    8  H8  UNL     1      26.387   3.432  52.010  1.00  0.00     0.161 HD
BRANCH   7   9
HETATM    9  C9  UNL     1      24.813   2.777  53.122  1.00  0.00     0.092 A 
HETATM   10  C10 UNL     1      23.953   3.965  53.094  1.00  0.00     0.037 A 
HETATM   11  C11 UNL     1      23.893   3.061  51.939  1.00  0.00     0.043 A 
BRANCH  11  12
HETATM   12  C12 UNL     1      22.822   2.045  51.776  1.00  0.00    -0.052 A 
HETATM   13  C13 UNL     1      22.137   1.458  52.821  1.00  0.00     0.007 A 
HETATM   14  C14 UNL     1      21.146   0.516  52.638  1.00  0.00     0.001 A 
HETATM   15  C15 UNL     1      20.792   0.116  51.374  1.00  0.00     0.000 A 
HETATM   16  C16 UNL     1      21.434   0.662  50.291  1.00  0.00     0.001 A 
HETATM   17  C17 UNL     1      22.413   1.594  50.513  1.00  0.00     0.007 A 
ENDBRANCH  11  12
ENDBRANCH   7   9
ENDBRANCH   6   7
BRANCH   1  18
HETATM   18  C4  UNL     1      26.488  -0.185  52.424  1.00  0.00     0.105 A 
HETATM   19  C2  UNL     1      25.507  -0.959  53.256  1.00  0.00     0.059 A 
HETATM   20  C3  UNL     1      26.478  -1.632  52.609  1.00  0.00     0.023 A 
BRANCH  19  21
HETATM   21  O2  UNL     1      24.381  -0.822  54.086  1.00  0.00    -0.330 OA
BRANCH  21  22
HETATM   22  C1  UNL     1      24.508  -1.221  55.436  1.00  0.00     0.341 C 
BRANCH  22  23
HETATM   23  O1  UNL     1      23.278  -1.679  55.887  1.00  0.00    -0.377 OA
HETATM   24  H1  UNL     1      23.112  -2.624  55.615  1.00  0.00     0.212 HD
ENDBRANCH  22  23
ENDBRANCH  21  22
ENDBRANCH  19  21
ENDBRANCH   1  18
TORSDOF 7
ENDMDL
MODEL 4
REMARK VINA RESULT:      -7.2      2.280      3.548
REMARK  7 active torsions:
REMARK  status: ('A' for Active; 'I' for Inactive)
REMARK    1  A    between atoms: O1_1  and  C1_2 
REMARK    2  A    between atoms: C1_2  and  O2_3 
REMARK    3  A    between atoms: O2_3  and  C2_4 
REMARK    4  A    between atoms: C4_6  and  C5_7 
REMARK    5  A    between atoms: C8_12  and  N3_13 
REMARK    6  A    between atoms: N3_13  and  C9_14 
REMARK    7  A    between atoms: C11_16  and  C12_17 
ROOT
HETATM    1  C5  UNL     1      25.896   0.431  52.686  1.00  0.00     0.019 A 
HETATM    2  C6  UNL     1      26.678   1.158  51.819  1.00  0.00     0.130 A 
HETATM    3  N1  UNL     1      26.119   2.106  51.018  1.00  0.00    -0.253 NA
HETATM    4  C7  UNL     1      24.788   2.341  51.068  1.00  0.00     0.234 A 
HETATM    5  N2  UNL     1      24.096   1.611  51.921  1.00  0.00    -0.224 NA
HETATM    6  C8  UNL     1      24.538   0.660  52.751  1.00  0.00     0.134 A 
ENDROOT
BRANCH   6   7
HETATM    7  N3  UNL     1      23.734  -0.082  53.659  1.00  0.00    -0.369 N 
HETATM    8  H8  UNL     1      24.066  -0.059  54.673  1.00  0.00     0.161 HD
BRANCH   7   9
HETATM    9  C9  UNL     1      22.556  -0.856  53.565  1.00  0.00     0.092 A 
HETATM   10  C10 UNL     1      21.813  -1.412  54.701  1.00  0.00     0.037 A 
HETATM   11  C11 UNL     1      21.296  -0.179  54.094  1.00  0.00     0.043 A 
BRANCH  11  12
HETATM   12  C12 UNL     1      20.179  -0.180  53.115  1.00  0.00    -0.052 A 
HETATM   13  C13 UNL     1      20.194   0.500  51.912  1.00  0.00     0.007 A 
HETATM   14  C14 UNL     1      19.140   0.481  51.023  1.00  0.00     0.001 A 
HETATM   15  C15 UNL     1      18.004  -0.236  51.306  1.00  0.00     0.000 A 
HETATM   16  C16 UNL     1      17.926  -0.934  52.484  1.00  0.00     0.001 A 
HETATM   17  C17 UNL     1      18.993  -0.891  53.343  1.00  0.00     0.007 A 
ENDBRANCH  11  12
ENDBRANCH   7   9
ENDBRANCH   6   7
BRANCH   1  18
HETATM   18  C4  UNL     1      26.673  -0.559  53.456  1.00  0.00     0.105 A 
HETATM   19  C2  UNL     1      27.987  -0.123  54.036  1.00  0.00     0.059 A 
HETATM   20  C3  UNL     1      27.989  -1.026  53.037  1.00  0.00     0.023 A 
BRANCH  19  21
HETATM   21  O2  UNL     1      28.569   0.713  55.004  1.00  0.00    -0.330 OA
BRANCH  21  22
HETATM   22  C1  UNL     1      29.232   1.877  54.554  1.00  0.00     0.341 C 
BRANCH  22  23
HETATM   23  O1  UNL     1      28.286   2.805  54.142  1.00  0.00    -0.377 OA
HETATM   24  H1  UNL     1      27.485   2.364  53.743  1.00  0.00     0.212 HD
ENDBRANCH  22  23
ENDBRANCH  21  22
ENDBRANCH  19  21
ENDBRANCH   1  18
TORSDOF 7
ENDMDL
MODEL 5
REMARK VINA RESULT:      -7.2      3.080      5.571
REMARK  7 active torsions:
REMARK  status: ('A' for Active; 'I' for Inactive)
REMARK    1  A    between atoms: O1_1  and  C1_2 
REMARK    2  A    between atoms: C1_2  and  O2_3 
REMARK    3  A    between atoms: O2_3  and  C2_4 
REMARK    4  A    between atoms: C4_6  and  C5_7 
REMARK    5  A    between atoms: C8_12  and  N3_13 
REMARK    6  A    between atoms: N3_13  and  C9_14 
REMARK    7  A    between atoms: C11_16  and  C12_17 
ROOT
HETATM    1  C5  UNL     1      24.126  -0.312  53.945  1.00  0.00     0.019 A 
HETATM    2  C6  UNL     1      23.878  -1.013  55.103  1.00  0.00     0.130 A 
HETATM    3  N1  UNL     1      22.635  -1.505  55.356  1.00  0.00    -0.253 NA
HETATM    4  C7  UNL     1      21.632  -1.311  54.470  1.00  0.00     0.234 A 
HETATM    5  N2  UNL     1      21.935  -0.632  53.381  1.00  0.00    -0.224 NA
HETATM    6  C8  UNL     1      23.114  -0.106  53.031  1.00  0.00     0.134 A 
ENDROOT
BRANCH   6   7
HETATM    7  N3  UNL     1      23.376   0.605  51.828  1.00  0.00    -0.369 N 
HETATM    8  H8  UNL     1      23.707   0.000  51.013  1.00  0.00     0.161 HD
BRANCH   7   9
HETATM    9  C9  UNL     1      23.292   1.953  51.412  1.00  0.00     0.092 A 
HETATM   10  C10 UNL     1      22.947   3.088  52.275  1.00  0.00     0.037 A 
HETATM   11  C11 UNL     1      24.369   2.870  51.981  1.00  0.00     0.043 A 
BRANCH  11  12
HETATM   12  C12 UNL     1      25.093   3.637  50.936  1.00  0.00    -0.052 A 
HETATM   13  C13 UNL     1      26.217   3.184  50.272  1.00  0.00     0.007 A 
HETATM   14  C14 UNL     1      26.869   3.920  49.306  1.00  0.00     0.001 A 
HETATM   15  C15 UNL     1      26.413   5.166  48.954  1.00  0.00     0.000 A 
HETATM   16  C16 UNL     1      25.300   5.675  49.575  1.00  0.00     0.001 A 
HETATM   17  C17 UNL     1      24.679   4.914  50.531  1.00  0.00     0.007 A 
ENDBRANCH  11  12
ENDBRANCH   7   9
ENDBRANCH   6   7
BRANCH   1  18
HETATM   18  C4  UNL     1      25.521   0.158  53.854  1.00  0.00     0.105 A 
HETATM   19  C2  UNL     1      26.607  -0.876  53.773  1.00  0.00     0.059 A 
HETATM   20  C3  UNL     1      26.515  -0.120  54.885  1.00  0.00     0.023 A 
BRANCH  19  21
HETATM   21  O2  UNL     1      27.153  -1.872  52.947  1.00  0.00    -0.330 OA
BRANCH  21  22
HETATM   22  C1  UNL     1      28.531  -2.157  53.083  1.00  0.00     0.341 C 
BRANCH  22  23
HETATM   23  O1  UNL     1      28.683  -3.488  53.443  1.00  0.00    -0.377 OA
HETATM   24  H1  UNL     1      29.372  -3.603  54.155  1.00  0.00     0.212 HD
ENDBRANCH  22  23
ENDBRANCH  21  22
ENDBRANCH  19  21
ENDBRANCH   1  18
TORSDOF 7
ENDMDL
MODEL 6
REMARK VINA RESULT:      -7.2      2.024      2.882
REMARK  7 active torsions:
REMARK  status: ('A' for Active; 'I' for Inactive)
REMARK    1  A    between atoms: O1_1  and  C1_2 
REMARK    2  A    between atoms: C1_2  and  O2_3 
REMARK    3  A    between atoms: O2_3  and  C2_4 
REMARK    4  A    between atoms: C4_6  and  C5_7 
REMARK    5  A    between atoms: C8_12  and  N3_13 
REMARK    6  A    between atoms: N3_13  and  C9_14 
REMARK    7  A    between atoms: C11_16  and  C12_17 
ROOT
HETATM    1  C5  UNL     1      24.837   1.320  53.329  1.00  0.00     0.019 A 
HETATM    2  C6  UNL     1      25.908   2.025  53.829  1.00  0.00     0.130 A 
HETATM    3  N1  UNL     1      26.835   1.406  54.609  1.00  0.00    -0.253 NA
HETATM    4  C7  UNL     1      26.713   0.091  54.899  1.00  0.00     0.234 A 
HETATM    5  N2  UNL     1      25.665  -0.526  54.390  1.00  0.00    -0.224 NA
HETATM    6  C8  UNL     1      24.698  -0.021  53.615  1.00  0.00     0.134 A 
ENDROOT
BRANCH   6   7
HETATM    7  N3  UNL     1      23.600  -0.752  53.085  1.00  0.00    -0.369 N 
HETATM    8  H8  UNL     1      23.763  -1.167  52.115  1.00  0.00     0.161 HD
BRANCH   7   9
HETATM    9  C9  UNL     1      22.305  -1.097  53.534  1.00  0.00     0.092 A 
HETATM   10  C10 UNL     1      21.732  -0.733  54.834  1.00  0.00     0.037 A 
HETATM   11  C11 UNL     1      21.338   0.073  53.672  1.00  0.00     0.043 A 
BRANCH  11  12
HETATM   12  C12 UNL     1      20.057  -0.140  52.951  1.00  0.00    -0.052 A 
HETATM   13  C13 UNL     1      19.020  -0.925  53.416  1.00  0.00     0.007 A 
HETATM   14  C14 UNL     1      17.842  -1.105  52.723  1.00  0.00     0.001 A 
HETATM   15  C15 UNL     1      17.648  -0.492  51.510  1.00  0.00     0.000 A 
HETATM   16  C16 UNL     1      18.639   0.303  50.992  1.00  0.00     0.001 A 
HETATM   17  C17 UNL     1      19.796   0.457  51.710  1.00  0.00     0.007 A 
ENDBRANCH  11  12
ENDBRANCH   7   9
ENDBRANCH   6   7
BRANCH   1  18
HETATM   18  C4  UNL     1      23.931   2.160  52.524  1.00  0.00     0.105 A 
HETATM   19  C2  UNL     1      24.531   2.984  51.421  1.00  0.00     0.059 A 
HETATM   20  C3  UNL     1      24.022   3.616  52.497  1.00  0.00     0.023 A 
BRANCH  19  21
HETATM   21  O2  UNL     1      25.160   2.900  50.168  1.00  0.00    -0.330 OA
BRANCH  21  22
HETATM   22  C1  UNL     1      26.282   3.728  49.938  1.00  0.00     0.341 C 
BRANCH  22  23
HETATM   23  O1  UNL     1      27.248   3.453  50.895  1.00  0.00    -0.377 OA
HETATM   24  H1  UNL     1      28.154   3.354  50.489  1.00  0.00     0.212 HD
ENDBRANCH  22  23
ENDBRANCH  21  22
ENDBRANCH  19  21
ENDBRANCH   1  18
TORSDOF 7
ENDMDL
MODEL 7
REMARK VINA RESULT:      -7.1      3.007      6.299
REMARK  7 active torsions:
REMARK  status: ('A' for Active; 'I' for Inactive)
REMARK    1  A    between atoms: O1_1  and  C1_2 
REMARK    2  A    between atoms: C1_2  and  O2_3 
REMARK    3  A    between atoms: O2_3  and  C2_4 
REMARK    4  A    between atoms: C4_6  and  C5_7 
REMARK    5  A    between atoms: C8_12  and  N3_13 
REMARK    6  A    between atoms: N3_13  and  C9_14 
REMARK    7  A    between atoms: C11_16  and  C12_17 
ROOT
HETATM    1  C5  UNL     1      24.540   0.942  52.836  1.00  0.00     0.019 A 
HETATM    2  C6  UNL     1      24.370  -0.133  53.678  1.00  0.00     0.130 A 
HETATM    3  N1  UNL     1      25.315  -0.434  54.609  1.00  0.00    -0.253 NA
HETATM    4  C7  UNL     1      26.431   0.323  54.716  1.00  0.00     0.234 A 
HETATM    5  N2  UNL     1      26.532   1.338  53.880  1.00  0.00    -0.224 NA
HETATM    6  C8  UNL     1      25.671   1.724  52.932  1.00  0.00     0.134 A 
ENDROOT
BRANCH   6   7
HETATM    7  N3  UNL     1      25.837   2.844  52.072  1.00  0.00    -0.369 N 
HETATM    8  H8  UNL     1      25.264   3.704  52.340  1.00  0.00     0.161 HD
BRANCH   7   9
HETATM    9  C9  UNL     1      26.605   3.128  50.921  1.00  0.00     0.092 A 
HETATM   10  C10 UNL     1      26.462   2.467  49.620  1.00  0.00     0.037 A 
HETATM   11  C11 UNL     1      25.837   3.785  49.780  1.00  0.00     0.043 A 
BRANCH  11  12
HETATM   12  C12 UNL     1      26.474   5.034  49.291  1.00  0.00    -0.052 A 
HETATM   13  C13 UNL     1      25.954   6.301  49.477  1.00  0.00     0.007 A 
HETATM   14  C14 UNL     1      26.568   7.444  49.010  1.00  0.00     0.001 A 
HETATM   15  C15 UNL     1      27.755   7.365  48.325  1.00  0.00     0.000 A 
HETATM   16  C16 UNL     1      28.326   6.136  48.107  1.00  0.00     0.001 A 
HETATM   17  C17 UNL     1      27.685   5.023  48.585  1.00  0.00     0.007 A 
ENDBRANCH  11  12
ENDBRANCH   7   9
ENDBRANCH   6   7
BRANCH   1  18
HETATM   18  C4  UNL     1      23.423   1.099  51.885  1.00  0.00     0.105 A 
HETATM   19  C2  UNL     1      22.708   2.418  51.852  1.00  0.00     0.059 A 
HETATM   20  C3  UNL     1      22.050   1.337  52.314  1.00  0.00     0.023 A 
BRANCH  19  21
HETATM   21  O2  UNL     1      22.859   3.773  51.510  1.00  0.00    -0.330 OA
BRANCH  21  22
HETATM   22  C1  UNL     1      22.685   4.733  52.532  1.00  0.00     0.341 C 
BRANCH  22  23
HETATM   23  O1  UNL     1      23.926   5.243  52.886  1.00  0.00    -0.377 OA
HETATM   24  H1  UNL     1      24.468   4.577  53.395  1.00  0.00     0.212 HD
ENDBRANCH  22  23
ENDBRANCH  21  22
ENDBRANCH  19  21
ENDBRANCH   1  18
TORSDOF 7
ENDMDL
MODEL 8
REMARK VINA RESULT:      -6.9      3.106      6.852
REMARK  7 active torsions:
REMARK  status: ('A' for Active; 'I' for Inactive)
REMARK    1  A    between atoms: O1_1  and  C1_2 
REMARK    2  A    between atoms: C1_2  and  O2_3 
REMARK    3  A    between atoms: O2_3  and  C2_4 
REMARK    4  A    between atoms: C4_6  and  C5_7 
REMARK    5  A    between atoms: C8_12  and  N3_13 
REMARK    6  A    between atoms: N3_13  and  C9_14 
REMARK    7  A    between atoms: C11_16  and  C12_17 
ROOT
HETATM    1  C5  UNL     1      21.382  -0.318  53.092  1.00  0.00     0.019 A 
HETATM    2  C6  UNL     1      20.774  -1.164  53.991  1.00  0.00     0.130 A 
HETATM    3  N1  UNL     1      21.490  -1.722  55.004  1.00  0.00    -0.253 NA
HETATM    4  C7  UNL     1      22.808  -1.449  55.137  1.00  0.00     0.234 A 
HETATM    5  N2  UNL     1      23.330  -0.631  54.243  1.00  0.00    -0.224 NA
HETATM    6  C8  UNL     1      22.724  -0.029  53.214  1.00  0.00     0.134 A 
ENDROOT
BRANCH   6   7
HETATM    7  N3  UNL     1      23.348   0.857  52.294  1.00  0.00    -0.369 N 
HETATM    8  H8  UNL     1      22.689   1.296  51.578  1.00  0.00     0.161 HD
BRANCH   7   9
HETATM    9  C9  UNL     1      24.660   1.338  52.085  1.00  0.00     0.092 A 
HETATM   10  C10 UNL     1      25.027   2.744  51.888  1.00  0.00     0.037 A 
HETATM   11  C11 UNL     1      25.228   2.175  53.226  1.00  0.00     0.043 A 
BRANCH  11  12
HETATM   12  C12 UNL     1      26.552   1.695  53.698  1.00  0.00    -0.052 A 
HETATM   13  C13 UNL     1      26.743   0.572  54.478  1.00  0.00     0.007 A 
HETATM   14  C14 UNL     1      27.986   0.151  54.902  1.00  0.00     0.001 A 
HETATM   15  C15 UNL     1      29.114   0.851  54.553  1.00  0.00     0.000 A 
HETATM   16  C16 UNL     1      28.993   1.977  53.778  1.00  0.00     0.001 A 
HETATM   17  C17 UNL     1      27.742   2.364  53.377  1.00  0.00     0.007 A 
ENDBRANCH  11  12
ENDBRANCH   7   9
ENDBRANCH   6   7
BRANCH   1  18
HETATM   18  C4  UNL     1      20.453   0.172  52.057  1.00  0.00     0.105 A 
HETATM   19  C2  UNL     1      19.676   1.424  52.346  1.00  0.00     0.059 A 
HETATM   20  C3  UNL     1      19.012   0.254  52.267  1.00  0.00     0.023 A 
BRANCH  19  21
HETATM   21  O2  UNL     1      19.804   2.811  52.531  1.00  0.00    -0.330 OA
BRANCH  21  22
HETATM   22  C1  UNL     1      19.193   3.660  51.581  1.00  0.00     0.341 C 
BRANCH  22  23
HETATM   23  O1  UNL     1      17.827   3.418  51.574  1.00  0.00    -0.377 OA
HETATM   24  H1  UNL     1      17.477   3.298  50.647  1.00  0.00     0.212 HD
ENDBRANCH  22  23
ENDBRANCH  21  22
ENDBRANCH  19  21
ENDBRANCH   1  18
TORSDOF 7
ENDMDL
MODEL 9
REMARK VINA RESULT:      -6.9      2.431      3.676
REMARK  7 active torsions:
REMARK  status: ('A' for Active; 'I' for Inactive)
REMARK    1  A    between atoms: O1_1  and  C1_2 
REMARK    2  A    between atoms: C1_2  and  O2_3 
REMARK    3  A    between atoms: O2_3  and  C2_4 
REMARK    4  A    between atoms: C4_6  and  C5_7 
REMARK    5  A    between atoms: C8_12  and  N3_13 
REMARK    6  A    between atoms: N3_13  and  C9_14 
REMARK    7  A    between atoms: C11_16  and  C12_17 
ROOT
HETATM    1  C5  UNL     1      24.802   1.538  53.300  1.00  0.00     0.019 A 
HETATM    2  C6  UNL     1      25.944   2.115  53.806  1.00  0.00     0.130 A 
HETATM    3  N1  UNL     1      26.850   1.364  54.489  1.00  0.00    -0.253 NA
HETATM    4  C7  UNL     1      26.636   0.041  54.676  1.00  0.00     0.234 A 
HETATM    5  N2  UNL     1      25.523  -0.449  54.166  1.00  0.00    -0.224 NA
HETATM    6  C8  UNL     1      24.569   0.191  53.482  1.00  0.00     0.134 A 
ENDROOT
BRANCH   6   7
HETATM    7  N3  UNL     1      23.396  -0.406  52.945  1.00  0.00    -0.369 N 
HETATM    8  H8  UNL     1      23.442  -0.627  51.902  1.00  0.00     0.161 HD
BRANCH   7   9
HETATM    9  C9  UNL     1      22.144  -0.814  53.459  1.00  0.00     0.092 A 
HETATM   10  C10 UNL     1      21.584  -0.407  54.752  1.00  0.00     0.037 A 
HETATM   11  C11 UNL     1      21.097   0.291  53.555  1.00  0.00     0.043 A 
BRANCH  11  12
HETATM   12  C12 UNL     1      19.816  -0.061  52.893  1.00  0.00    -0.052 A 
HETATM   13  C13 UNL     1      19.405   0.436  51.671  1.00  0.00     0.007 A 
HETATM   14  C14 UNL     1      18.208   0.091  51.081  1.00  0.00     0.001 A 
HETATM   15  C15 UNL     1      17.354  -0.786  51.701  1.00  0.00     0.000 A 
HETATM   16  C16 UNL     1      17.703  -1.318  52.917  1.00  0.00     0.001 A 
HETATM   17  C17 UNL     1      18.900  -0.951  53.473  1.00  0.00     0.007 A 
ENDBRANCH  11  12
ENDBRANCH   7   9
ENDBRANCH   6   7
BRANCH   1  18
HETATM   18  C4  UNL     1      23.934   2.510  52.609  1.00  0.00     0.105 A 
HETATM   19  C2  UNL     1      23.520   2.204  51.199  1.00  0.00     0.059 A 
HETATM   20  C3  UNL     1      24.358   3.237  51.418  1.00  0.00     0.023 A 
BRANCH  19  21
HETATM   21  O2  UNL     1      22.742   1.334  50.418  1.00  0.00    -0.330 OA
BRANCH  21  22
HETATM   22  C1  UNL     1      21.886   1.906  49.449  1.00  0.00     0.341 C 
BRANCH  22  23
HETATM   23  O1  UNL     1      21.670   0.983  48.437  1.00  0.00    -0.377 OA
HETATM   24  H1  UNL     1      21.023   1.322  47.758  1.00  0.00     0.212 HD
ENDBRANCH  22  23
ENDBRANCH  21  22
ENDBRANCH  19  21
ENDBRANCH   1  18
TORSDOF 7
ENDMDL
