MODEL 1
REMARK VINA RESULT:      -8.6      0.000      0.000
REMARK  7 active torsions:
REMARK  status: ('A' for Active; 'I' for Inactive)
REMARK    1  A    between atoms: C4_5  and  N1_6 
REMARK    2  A    between atoms: N1_6  and  C5_7 
REMARK    3  A    between atoms: C10_14  and  O1_15 
REMARK    4  A    between atoms: O1_15  and  C11_16 
REMARK    5  A    between atoms: C11_16  and  C12_17 
REMARK    6  A    between atoms: C12_17  and  C13_18 
REMARK    7  A    between atoms: C13_18  and  N4_19 
ROOT
HETATM    1  C5  UNL     1      23.868  -0.193  53.511  1.00  0.00     0.142 A 
HETATM    2  N2  UNL     1      24.243  -0.800  54.625  1.00  0.00    -0.224 NA
HETATM    3  C6  UNL     1      23.375  -1.415  55.434  1.00  0.00     0.236 A 
HETATM    4  N3  UNL     1      22.076  -1.422  55.112  1.00  0.00    -0.241 NA
HETATM    5  C7  UNL     1      21.596  -0.844  54.020  1.00  0.00     0.074 A 
HETATM    6  C8  UNL     1      22.525  -0.222  53.216  1.00  0.00     0.041 A 
HETATM    7  C9  UNL     1      22.444   0.503  51.959  1.00  0.00     0.052 C 
HETATM    8  C10 UNL     1      21.506   0.745  51.021  1.00  0.00     0.071 C 
HETATM    9  C18 UNL     1      20.080   0.356  50.867  1.00  0.00     0.239 C 
HETATM   10  O3  UNL     1      19.387   0.347  52.098  1.00  0.00    -0.357 OA
HETATM   11  C19 UNL     1      19.164  -0.539  53.154  1.00  0.00     0.137 C 
HETATM   12  C20 UNL     1      20.152  -1.009  53.933  1.00  0.00     0.057 C 
ENDROOT
BRANCH   1  13
HETATM   13  N1  UNL     1      24.875   0.432  52.731  1.00  0.00    -0.340 N 
HETATM   14  H3  UNL     1      25.112   1.111  51.985  1.00  0.00     0.167 HD
BRANCH  13  15
HETATM   15  C4  UNL     1      26.229   0.039  52.991  1.00  0.00     0.035 A 
HETATM   16  C3  UNL     1      26.866  -1.183  52.769  1.00  0.00     0.032 A 
HETATM   17  C2  UNL     1      28.189  -1.421  53.056  1.00  0.00     0.046 A 
HETATM   18  C1  UNL     1      28.957  -0.413  53.595  1.00  0.00     0.138 A 
HETATM   19  F1  UNL     1      30.244  -0.746  53.841  1.00  0.00    -0.204 F 
HETATM   20  C22 UNL     1      28.377   0.835  53.841  1.00  0.00     0.074 A 
HETATM   21  C21 UNL     1      27.031   1.049  53.540  1.00  0.00     0.056 A 
HETATM   22 CL1  UNL     1      29.493   1.990  54.525  1.00  0.00    -0.081 Cl
ENDBRANCH  13  15
ENDBRANCH   1  13
BRANCH   8  23
HETATM   23  O1  UNL     1      21.765   1.446  49.996  1.00  0.00    -0.353 OA
BRANCH  23  24
HETATM   24  C11 UNL     1      22.063   2.097  48.901  1.00  0.00     0.177 C 
BRANCH  24  25
HETATM   25  C12 UNL     1      22.039   3.632  49.035  1.00  0.00     0.057 C 
BRANCH  25  26
HETATM   26  C13 UNL     1      23.386   4.247  48.821  1.00  0.00     0.274 C 
BRANCH  26  27
HETATM   27  N4  UNL     1      23.802   5.116  49.888  1.00  0.00     0.092 N 
HETATM   28  C14 UNL     1      25.216   5.032  50.176  1.00  0.00     0.298 C 
HETATM   29  C15 UNL     1      25.643   3.608  50.472  1.00  0.00     0.198 C 
HETATM   30  O2  UNL     1      24.798   3.030  51.416  1.00  0.00    -0.388 OA
HETATM   31  C16 UNL     1      23.966   3.940  52.036  1.00  0.00     0.198 C 
HETATM   32  C17 UNL     1      23.092   4.723  51.090  1.00  0.00     0.298 C 
ENDBRANCH  26  27
ENDBRANCH  25  26
ENDBRANCH  24  25
ENDBRANCH  23  24
ENDBRANCH   8  23
TORSDOF 7
ENDMDL
MODEL 2
REMARK VINA RESULT:      -8.3      1.011      1.400
REMARK  7 active torsions:
REMARK  status: ('A' for Active; 'I' for Inactive)
REMARK    1  A    between atoms: C4_5  and  N1_6 
REMARK    2  A    between atoms: N1_6  and  C5_7 
REMARK    3  A    between atoms: C10_14  and  O1_15 
REMARK    4  A    between atoms: O1_15  and  C11_16 
REMARK    5  A    between atoms: C11_16  and  C12_17 
REMARK    6  A    between atoms: C12_17  and  C13_18 
REMARK    7  A    between atoms: C13_18  and  N4_19 
ROOT
HETATM    1  C5  UNL     1      23.593  -0.081  53.554  1.00  0.00     0.142 A 
HETATM    2  N2  UNL     1      23.938  -0.752  54.641  1.00  0.00    -0.224 NA
HETATM    3  C6  UNL     1      23.057  -1.456  55.358  1.00  0.00     0.236 A 
HETATM    4  N3  UNL     1      21.776  -1.490  54.969  1.00  0.00    -0.241 NA
HETATM    5  C7  UNL     1      21.328  -0.854  53.896  1.00  0.00     0.074 A 
HETATM    6  C8  UNL     1      22.269  -0.141  53.187  1.00  0.00     0.041 A 
HETATM    7  C9  UNL     1      22.220   0.668  51.982  1.00  0.00     0.052 C 
HETATM    8  C10 UNL     1      21.321   0.941  51.014  1.00  0.00     0.071 C 
HETATM    9  C18 UNL     1      19.922   0.509  50.758  1.00  0.00     0.239 C 
HETATM   10  O3  UNL     1      19.169   0.385  51.948  1.00  0.00    -0.357 OA
HETATM   11  C19 UNL     1      18.931  -0.582  52.926  1.00  0.00     0.137 C 
HETATM   12  C20 UNL     1      19.898  -1.068  53.721  1.00  0.00     0.057 C 
ENDROOT
BRANCH   1  13
HETATM   13  N1  UNL     1      24.611   0.637  52.873  1.00  0.00    -0.340 N 
HETATM   14  H3  UNL     1      24.862   1.429  52.256  1.00  0.00     0.167 HD
BRANCH  13  15
HETATM   15  C4  UNL     1      25.952   0.154  53.026  1.00  0.00     0.035 A 
HETATM   16  C3  UNL     1      26.501  -1.087  52.696  1.00  0.00     0.032 A 
HETATM   17  C2  UNL     1      27.823  -1.414  52.886  1.00  0.00     0.046 A 
HETATM   18  C1  UNL     1      28.679  -0.484  53.432  1.00  0.00     0.138 A 
HETATM   19  F1  UNL     1      29.957  -0.902  53.578  1.00  0.00    -0.204 F 
HETATM   20  C22 UNL     1      28.190   0.777  53.784  1.00  0.00     0.074 A 
HETATM   21  C21 UNL     1      26.843   1.083  53.579  1.00  0.00     0.056 A 
HETATM   22 CL1  UNL     1      29.410   1.826  54.460  1.00  0.00    -0.081 Cl
ENDBRANCH  13  15
ENDBRANCH   1  13
BRANCH   8  23
HETATM   23  O1  UNL     1      21.601   1.723  50.055  1.00  0.00    -0.353 OA
BRANCH  23  24
HETATM   24  C11 UNL     1      21.866   2.467  49.012  1.00  0.00     0.177 C 
BRANCH  24  25
HETATM   25  C12 UNL     1      23.344   2.877  48.868  1.00  0.00     0.057 C 
BRANCH  25  26
HETATM   26  C13 UNL     1      23.571   4.322  49.181  1.00  0.00     0.274 C 
BRANCH  26  27
HETATM   27  N4  UNL     1      24.276   4.545  50.413  1.00  0.00     0.092 N 
HETATM   28  C14 UNL     1      23.407   4.615  51.566  1.00  0.00     0.298 C 
HETATM   29  C15 UNL     1      22.328   5.666  51.390  1.00  0.00     0.198 C 
HETATM   30  O2  UNL     1      22.884   6.874  50.977  1.00  0.00    -0.388 OA
HETATM   31  C16 UNL     1      24.259   6.907  51.082  1.00  0.00     0.198 C 
HETATM   32  C17 UNL     1      24.964   5.818  50.313  1.00  0.00     0.298 C 
ENDBRANCH  26  27
ENDBRANCH  25  26
ENDBRANCH  24  25
ENDBRANCH  23  24
ENDBRANCH   8  23
TORSDOF 7
ENDMDL
MODEL 3
REMARK VINA RESULT:      -8.1      3.146      5.745
REMARK  7 active torsions:
REMARK  status: ('A' for Active; 'I' for Inactive)
REMARK    1  A    between atoms: C4_5  and  N1_6 
REMARK    2  A    between atoms: N1_6  and  C5_7 
REMARK    3  A    between atoms: C10_14  and  O1_15 
REMARK    4  A    between atoms: O1_15  and  C11_16 
REMARK    5  A    between atoms: C11_16  and  C12_17 
REMARK    6  A    between atoms: C12_17  and  C13_18 
REMARK    7  A    between atoms: C13_18  and  N4_19 
ROOT
HETATM    1  C5  UNL     1      21.481   1.353  50.529  1.00  0.00     0.142 A 
HETATM    2  N2  UNL     1      20.722   1.900  49.594  1.00  0.00    -0.224 NA
HETATM    3  C6  UNL     1      19.396   1.731  49.556  1.00  0.00     0.236 A 
HETATM    4  N3  UNL     1      18.808   0.982  50.497  1.00  0.00    -0.241 NA
HETATM    5  C7  UNL     1      19.477   0.390  51.476  1.00  0.00     0.074 A 
HETATM    6  C8  UNL     1      20.839   0.591  51.477  1.00  0.00     0.041 A 
HETATM    7  C9  UNL     1      21.920   0.155  52.343  1.00  0.00     0.052 C 
HETATM    8  C10 UNL     1      22.038  -0.480  53.527  1.00  0.00     0.071 C 
HETATM    9  C18 UNL     1      21.061  -1.033  54.500  1.00  0.00     0.239 C 
HETATM   10  O3  UNL     1      19.944  -1.624  53.867  1.00  0.00    -0.357 OA
HETATM   11  C19 UNL     1      18.705  -1.221  53.365  1.00  0.00     0.137 C 
HETATM   12  C20 UNL     1      18.578  -0.357  52.345  1.00  0.00     0.057 C 
ENDROOT
BRANCH   1  13
HETATM   13  N1  UNL     1      22.878   1.597  50.468  1.00  0.00    -0.340 N 
HETATM   14  H3  UNL     1      23.830   1.214  50.325  1.00  0.00     0.167 HD
BRANCH  13  15
HETATM   15  C4  UNL     1      23.308   2.948  50.681  1.00  0.00     0.035 A 
HETATM   16  C3  UNL     1      22.859   3.896  51.604  1.00  0.00     0.032 A 
HETATM   17  C2  UNL     1      23.376   5.166  51.710  1.00  0.00     0.046 A 
HETATM   18  C1  UNL     1      24.395   5.554  50.869  1.00  0.00     0.138 A 
HETATM   19  F1  UNL     1      24.833   6.820  51.051  1.00  0.00    -0.204 F 
HETATM   20  C22 UNL     1      24.888   4.650  49.923  1.00  0.00     0.074 A 
HETATM   21  C21 UNL     1      24.345   3.367  49.838  1.00  0.00     0.056 A 
HETATM   22 CL1  UNL     1      26.174   5.310  48.945  1.00  0.00    -0.081 Cl
ENDBRANCH  13  15
ENDBRANCH   1  13
BRANCH   8  23
HETATM   23  O1  UNL     1      23.176  -0.721  54.035  1.00  0.00    -0.353 OA
BRANCH  23  24
HETATM   24  C11 UNL     1      24.326  -0.921  54.625  1.00  0.00     0.177 C 
BRANCH  24  25
HETATM   25  C12 UNL     1      25.554  -0.807  53.703  1.00  0.00     0.057 C 
BRANCH  25  26
HETATM   26  C13 UNL     1      26.110   0.582  53.655  1.00  0.00     0.274 C 
BRANCH  26  27
HETATM   27  N4  UNL     1      27.280   0.710  52.831  1.00  0.00     0.092 N 
HETATM   28  C14 UNL     1      28.419  -0.025  53.336  1.00  0.00     0.298 C 
HETATM   29  C15 UNL     1      28.745   0.363  54.765  1.00  0.00     0.198 C 
HETATM   30  O2  UNL     1      28.814   1.748  54.893  1.00  0.00    -0.388 OA
HETATM   31  C16 UNL     1      28.835   2.409  53.682  1.00  0.00     0.198 C 
HETATM   32  C17 UNL     1      27.652   2.112  52.795  1.00  0.00     0.298 C 
ENDBRANCH  26  27
ENDBRANCH  25  26
ENDBRANCH  24  25
ENDBRANCH  23  24
ENDBRANCH   8  23
TORSDOF 7
ENDMDL
MODEL 4
REMARK VINA RESULT:      -7.8      3.526      6.056
REMARK  7 active torsions:
REMARK  status: ('A' for Active; 'I' for Inactive)
REMARK    1  A    between atoms: C4_5  and  N1_6 
REMARK    2  A    between atoms: N1_6  and  C5_7 
REMARK    3  A    between atoms: C10_14  and  O1_15 
REMARK    4  A    between atoms: O1_15  and  C11_16 
REMARK    5  A    between atoms: C11_16  and  C12_17 
REMARK    6  A    between atoms: C12_17  and  C13_18 
REMARK    7  A    between atoms: C13_18  and  N4_19 
ROOT
HETATM    1  C5  UNL     1      23.979  -0.022  53.367  1.00  0.00     0.142 A 
HETATM    2  N2  UNL     1      23.444  -0.797  54.297  1.00  0.00    -0.224 NA
HETATM    3  C6  UNL     1      24.139  -1.239  55.350  1.00  0.00     0.236 A 
HETATM    4  N3  UNL     1      25.425  -0.889  55.476  1.00  0.00    -0.241 NA
HETATM    5  C7  UNL     1      26.056  -0.119  54.601  1.00  0.00     0.074 A 
HETATM    6  C8  UNL     1      25.302   0.314  53.533  1.00  0.00     0.041 A 
HETATM    7  C9  UNL     1      25.578   1.156  52.382  1.00  0.00     0.052 C 
HETATM    8  C10 UNL     1      26.586   1.946  51.959  1.00  0.00     0.071 C 
HETATM    9  C18 UNL     1      27.914   2.308  52.519  1.00  0.00     0.239 C 
HETATM   10  O3  UNL     1      28.538   1.222  53.176  1.00  0.00    -0.357 OA
HETATM   11  C19 UNL     1      28.537   0.642  54.446  1.00  0.00     0.137 C 
HETATM   12  C20 UNL     1      27.443   0.090  54.994  1.00  0.00     0.057 C 
ENDROOT
BRANCH   1  13
HETATM   13  N1  UNL     1      23.148   0.384  52.291  1.00  0.00    -0.340 N 
HETATM   14  H3  UNL     1      23.076   0.825  51.356  1.00  0.00     0.167 HD
BRANCH  13  15
HETATM   15  C4  UNL     1      21.745   0.121  52.424  1.00  0.00     0.035 A 
HETATM   16  C3  UNL     1      21.035  -0.436  53.489  1.00  0.00     0.032 A 
HETATM   17  C2  UNL     1      19.673  -0.620  53.489  1.00  0.00     0.046 A 
HETATM   18  C1  UNL     1      18.939  -0.242  52.387  1.00  0.00     0.138 A 
HETATM   19  F1  UNL     1      17.609  -0.464  52.484  1.00  0.00    -0.204 F 
HETATM   20  C22 UNL     1      19.592   0.322  51.287  1.00  0.00     0.074 A 
HETATM   21  C21 UNL     1      20.977   0.498  51.315  1.00  0.00     0.056 A 
HETATM   22 CL1  UNL     1      18.510   0.740  49.983  1.00  0.00    -0.081 Cl
ENDBRANCH  13  15
ENDBRANCH   1  13
BRANCH   8  23
HETATM   23  O1  UNL     1      26.514   2.575  50.859  1.00  0.00    -0.353 OA
BRANCH  23  24
HETATM   24  C11 UNL     1      26.526   3.217  49.720  1.00  0.00     0.177 C 
BRANCH  24  25
HETATM   25  C12 UNL     1      25.537   4.394  49.631  1.00  0.00     0.057 C 
BRANCH  25  26
HETATM   26  C13 UNL     1      24.122   3.975  49.874  1.00  0.00     0.274 C 
BRANCH  26  27
HETATM   27  N4  UNL     1      23.287   5.024  50.391  1.00  0.00     0.092 N 
HETATM   28  C14 UNL     1      23.609   5.394  51.751  1.00  0.00     0.298 C 
HETATM   29  C15 UNL     1      23.572   4.197  52.680  1.00  0.00     0.198 C 
HETATM   30  O2  UNL     1      22.388   3.483  52.512  1.00  0.00    -0.388 OA
HETATM   31  C16 UNL     1      21.445   4.157  51.763  1.00  0.00     0.198 C 
HETATM   32  C17 UNL     1      21.915   4.550  50.386  1.00  0.00     0.298 C 
ENDBRANCH  26  27
ENDBRANCH  25  26
ENDBRANCH  24  25
ENDBRANCH  23  24
ENDBRANCH   8  23
TORSDOF 7
ENDMDL
MODEL 5
REMARK VINA RESULT:      -7.7      2.220      5.683
REMARK  7 active torsions:
REMARK  status: ('A' for Active; 'I' for Inactive)
REMARK    1  A    between atoms: C4_5  and  N1_6 
REMARK    2  A    between atoms: N1_6  and  C5_7 
REMARK    3  A    between atoms: C10_14  and  O1_15 
REMARK    4  A    between atoms: O1_15  and  C11_16 
REMARK    5  A    between atoms: C11_16  and  C12_17 
REMARK    6  A    between atoms: C12_17  and  C13_18 
REMARK    7  A    between atoms: C13_18  and  N4_19 
ROOT
HETATM    1  C5  UNL     1      25.549   3.154  50.472  1.00  0.00     0.142 A 
HETATM    2  N2  UNL     1      26.782   3.202  49.994  1.00  0.00    -0.224 NA
HETATM    3  C6  UNL     1      27.194   4.171  49.170  1.00  0.00     0.236 A 
HETATM    4  N3  UNL     1      26.334   5.132  48.811  1.00  0.00    -0.241 NA
HETATM    5  C7  UNL     1      25.078   5.175  49.233  1.00  0.00     0.074 A 
HETATM    6  C8  UNL     1      24.696   4.158  50.080  1.00  0.00     0.041 A 
HETATM    7  C9  UNL     1      23.459   3.832  50.767  1.00  0.00     0.052 C 
HETATM    8  C10 UNL     1      22.264   4.421  50.975  1.00  0.00     0.071 C 
HETATM    9  C18 UNL     1      21.672   5.722  50.567  1.00  0.00     0.239 C 
HETATM   10  O3  UNL     1      22.057   6.105  49.262  1.00  0.00    -0.357 OA
HETATM   11  C19 UNL     1      23.116   6.779  48.651  1.00  0.00     0.137 C 
HETATM   12  C20 UNL     1      24.380   6.327  48.678  1.00  0.00     0.057 C 
ENDROOT
BRANCH   1  13
HETATM   13  N1  UNL     1      25.221   2.076  51.336  1.00  0.00    -0.340 N 
HETATM   14  H3  UNL     1      24.494   1.434  51.699  1.00  0.00     0.167 HD
BRANCH  13  15
HETATM   15  C4  UNL     1      26.288   1.530  52.120  1.00  0.00     0.035 A 
HETATM   16  C3  UNL     1      27.205   2.171  52.956  1.00  0.00     0.032 A 
HETATM   17  C2  UNL     1      28.181   1.515  53.669  1.00  0.00     0.046 A 
HETATM   18  C1  UNL     1      28.284   0.145  53.572  1.00  0.00     0.138 A 
HETATM   19  F1  UNL     1      29.274  -0.406  54.311  1.00  0.00    -0.204 F 
HETATM   20  C22 UNL     1      27.395  -0.555  52.751  1.00  0.00     0.074 A 
HETATM   21  C21 UNL     1      26.413   0.137  52.039  1.00  0.00     0.056 A 
HETATM   22 CL1  UNL     1      27.671  -2.279  52.749  1.00  0.00    -0.081 Cl
ENDBRANCH  13  15
ENDBRANCH   1  13
BRANCH   8  23
HETATM   23  O1  UNL     1      21.355   3.848  51.649  1.00  0.00    -0.353 OA
BRANCH  23  24
HETATM   24  C11 UNL     1      20.362   3.313  52.312  1.00  0.00     0.177 C 
BRANCH  24  25
HETATM   25  C12 UNL     1      19.872   1.960  51.763  1.00  0.00     0.057 C 
BRANCH  25  26
HETATM   26  C13 UNL     1      20.769   0.825  52.150  1.00  0.00     0.274 C 
BRANCH  26  27
HETATM   27  N4  UNL     1      21.424   1.010  53.416  1.00  0.00     0.092 N 
HETATM   28  C14 UNL     1      22.801   0.571  53.418  1.00  0.00     0.298 C 
HETATM   29  C15 UNL     1      22.928  -0.874  52.974  1.00  0.00     0.198 C 
HETATM   30  O2  UNL     1      22.034  -1.681  53.675  1.00  0.00    -0.388 OA
HETATM   31  C16 UNL     1      21.457  -1.047  54.756  1.00  0.00     0.198 C 
HETATM   32  C17 UNL     1      20.717   0.220  54.407  1.00  0.00     0.298 C 
ENDBRANCH  26  27
ENDBRANCH  25  26
ENDBRANCH  24  25
ENDBRANCH  23  24
ENDBRANCH   8  23
TORSDOF 7
ENDMDL
MODEL 6
REMARK VINA RESULT:      -7.6      3.304      5.305
REMARK  7 active torsions:
REMARK  status: ('A' for Active; 'I' for Inactive)
REMARK    1  A    between atoms: C4_5  and  N1_6 
REMARK    2  A    between atoms: N1_6  and  C5_7 
REMARK    3  A    between atoms: C10_14  and  O1_15 
REMARK    4  A    between atoms: O1_15  and  C11_16 
REMARK    5  A    between atoms: C11_16  and  C12_17 
REMARK    6  A    between atoms: C12_17  and  C13_18 
REMARK    7  A    between atoms: C13_18  and  N4_19 
ROOT
HETATM    1  C5  UNL     1      25.880   2.110  51.732  1.00  0.00     0.142 A 
HETATM    2  N2  UNL     1      27.145   2.458  51.905  1.00  0.00    -0.224 NA
HETATM    3  C6  UNL     1      27.904   1.943  52.878  1.00  0.00     0.236 A 
HETATM    4  N3  UNL     1      27.371   1.041  53.712  1.00  0.00    -0.241 NA
HETATM    5  C7  UNL     1      26.116   0.626  53.625  1.00  0.00     0.074 A 
HETATM    6  C8  UNL     1      25.371   1.182  52.609  1.00  0.00     0.041 A 
HETATM    7  C9  UNL     1      24.001   1.012  52.156  1.00  0.00     0.052 C 
HETATM    8  C10 UNL     1      22.970   0.185  52.426  1.00  0.00     0.071 C 
HETATM    9  C18 UNL     1      22.787  -0.962  53.352  1.00  0.00     0.239 C 
HETATM   10  O3  UNL     1      23.448  -0.771  54.587  1.00  0.00    -0.357 OA
HETATM   11  C19 UNL     1      24.721  -0.978  55.122  1.00  0.00     0.137 C 
HETATM   12  C20 UNL     1      25.816  -0.351  54.663  1.00  0.00     0.057 C 
ENDROOT
BRANCH   1  13
HETATM   13  N1  UNL     1      25.169   2.725  50.668  1.00  0.00    -0.340 N 
HETATM   14  H3  UNL     1      24.319   2.742  50.076  1.00  0.00     0.167 HD
BRANCH  13  15
HETATM   15  C4  UNL     1      25.796   3.849  50.038  1.00  0.00     0.035 A 
HETATM   16  C3  UNL     1      26.915   3.900  49.204  1.00  0.00     0.032 A 
HETATM   17  C2  UNL     1      27.405   5.060  48.651  1.00  0.00     0.046 A 
HETATM   18  C1  UNL     1      26.777   6.255  48.918  1.00  0.00     0.138 A 
HETATM   19  F1  UNL     1      27.335   7.337  48.328  1.00  0.00    -0.204 F 
HETATM   20  C22 UNL     1      25.651   6.271  49.746  1.00  0.00     0.074 A 
HETATM   21  C21 UNL     1      25.174   5.078  50.294  1.00  0.00     0.056 A 
HETATM   22 CL1  UNL     1      24.985   7.868  49.975  1.00  0.00    -0.081 Cl
ENDBRANCH  13  15
ENDBRANCH   1  13
BRANCH   8  23
HETATM   23  O1  UNL     1      21.857   0.304  51.830  1.00  0.00    -0.353 OA
BRANCH  23  24
HETATM   24  C11 UNL     1      20.682   0.477  51.281  1.00  0.00     0.177 C 
BRANCH  24  25
HETATM   25  C12 UNL     1      20.697   1.255  49.952  1.00  0.00     0.057 C 
BRANCH  25  26
HETATM   26  C13 UNL     1      21.258   2.635  50.102  1.00  0.00     0.274 C 
BRANCH  26  27
HETATM   27  N4  UNL     1      20.763   3.341  51.251  1.00  0.00     0.092 N 
HETATM   28  C14 UNL     1      19.696   4.266  50.939  1.00  0.00     0.298 C 
HETATM   29  C15 UNL     1      20.108   5.252  49.863  1.00  0.00     0.198 C 
HETATM   30  O2  UNL     1      21.337   5.828  50.172  1.00  0.00    -0.388 OA
HETATM   31  C16 UNL     1      21.749   5.579  51.465  1.00  0.00     0.198 C 
HETATM   32  C17 UNL     1      21.856   4.115  51.808  1.00  0.00     0.298 C 
ENDBRANCH  26  27
ENDBRANCH  25  26
ENDBRANCH  24  25
ENDBRANCH  23  24
ENDBRANCH   8  23
TORSDOF 7
ENDMDL
MODEL 7
REMARK VINA RESULT:      -7.5      4.364      6.537
REMARK  7 active torsions:
REMARK  status: ('A' for Active; 'I' for Inactive)
REMARK    1  A    between atoms: C4_5  and  N1_6 
REMARK    2  A    between atoms: N1_6  and  C5_7 
REMARK    3  A    between atoms: C10_14  and  O1_15 
REMARK    4  A    between atoms: O1_15  and  C11_16 
REMARK    5  A    between atoms: C11_16  and  C12_17 
REMARK    6  A    between atoms: C12_17  and  C13_18 
REMARK    7  A    between atoms: C13_18  and  N4_19 
ROOT
HETATM    1  C5  UNL     1      24.842   3.155  51.172  1.00  0.00     0.142 A 
HETATM    2  N2  UNL     1      24.032   2.402  51.899  1.00  0.00    -0.224 NA
HETATM    3  C6  UNL     1      22.836   2.831  52.316  1.00  0.00     0.236 A 
HETATM    4  N3  UNL     1      22.436   4.066  51.991  1.00  0.00    -0.241 NA
HETATM    5  C7  UNL     1      23.171   4.899  51.267  1.00  0.00     0.074 A 
HETATM    6  C8  UNL     1      24.394   4.417  50.859  1.00  0.00     0.041 A 
HETATM    7  C9  UNL     1      25.479   4.968  50.067  1.00  0.00     0.052 C 
HETATM    8  C10 UNL     1      25.690   6.068  49.315  1.00  0.00     0.071 C 
HETATM    9  C18 UNL     1      24.857   7.247  48.961  1.00  0.00     0.239 C 
HETATM   10  O3  UNL     1      24.043   7.676  50.035  1.00  0.00    -0.357 OA
HETATM   11  C19 UNL     1      22.788   7.373  50.567  1.00  0.00     0.137 C 
HETATM   12  C20 UNL     1      22.483   6.168  51.075  1.00  0.00     0.057 C 
ENDROOT
BRANCH   1  13
HETATM   13  N1  UNL     1      26.090   2.598  50.789  1.00  0.00    -0.340 N 
HETATM   14  H3  UNL     1      26.799   2.464  50.046  1.00  0.00     0.167 HD
BRANCH  13  15
HETATM   15  C4  UNL     1      26.804   1.864  51.792  1.00  0.00     0.035 A 
HETATM   16  C3  UNL     1      27.625   2.323  52.824  1.00  0.00     0.032 A 
HETATM   17  C2  UNL     1      28.244   1.499  53.734  1.00  0.00     0.046 A 
HETATM   18  C1  UNL     1      28.063   0.137  53.646  1.00  0.00     0.138 A 
HETATM   19  F1  UNL     1      28.713  -0.587  54.586  1.00  0.00    -0.204 F 
HETATM   20  C22 UNL     1      27.253  -0.385  52.634  1.00  0.00     0.074 A 
HETATM   21  C21 UNL     1      26.636   0.475  51.723  1.00  0.00     0.056 A 
HETATM   22 CL1  UNL     1      27.136  -2.126  52.673  1.00  0.00    -0.081 Cl
ENDBRANCH  13  15
ENDBRANCH   1  13
BRANCH   8  23
HETATM   23  O1  UNL     1      26.797   6.263  48.727  1.00  0.00    -0.353 OA
BRANCH  23  24
HETATM   24  C11 UNL     1      27.960   6.516  48.185  1.00  0.00     0.177 C 
BRANCH  24  25
HETATM   25  C12 UNL     1      29.002   5.392  48.336  1.00  0.00     0.057 C 
BRANCH  25  26
HETATM   26  C13 UNL     1      30.377   5.825  47.932  1.00  0.00     0.274 C 
BRANCH  26  27
HETATM   27  N4  UNL     1      31.257   6.069  49.041  1.00  0.00     0.092 N 
HETATM   28  C14 UNL     1      31.440   7.473  49.330  1.00  0.00     0.298 C 
HETATM   29  C15 UNL     1      31.918   8.237  48.111  1.00  0.00     0.198 C 
HETATM   30  O2  UNL     1      33.006   7.594  47.526  1.00  0.00    -0.388 OA
HETATM   31  C16 UNL     1      33.542   6.598  48.316  1.00  0.00     0.198 C 
HETATM   32  C17 UNL     1      32.560   5.523  48.708  1.00  0.00     0.298 C 
ENDBRANCH  26  27
ENDBRANCH  25  26
ENDBRANCH  24  25
ENDBRANCH  23  24
ENDBRANCH   8  23
TORSDOF 7
ENDMDL
MODEL 8
REMARK VINA RESULT:      -7.5      3.096      5.276
REMARK  7 active torsions:
REMARK  status: ('A' for Active; 'I' for Inactive)
REMARK    1  A    between atoms: C4_5  and  N1_6 
REMARK    2  A    between atoms: N1_6  and  C5_7 
REMARK    3  A    between atoms: C10_14  and  O1_15 
REMARK    4  A    between atoms: O1_15  and  C11_16 
REMARK    5  A    between atoms: C11_16  and  C12_17 
REMARK    6  A    between atoms: C12_17  and  C13_18 
REMARK    7  A    between atoms: C13_18  and  N4_19 
ROOT
HETATM    1  C5  UNL     1      24.720   1.196  52.129  1.00  0.00     0.142 A 
HETATM    2  N2  UNL     1      26.031   1.373  52.144  1.00  0.00    -0.224 NA
HETATM    3  C6  UNL     1      26.822   0.792  53.052  1.00  0.00     0.236 A 
HETATM    4  N3  UNL     1      26.275   0.001  53.983  1.00  0.00    -0.241 NA
HETATM    5  C7  UNL     1      24.974  -0.241  54.055  1.00  0.00     0.074 A 
HETATM    6  C8  UNL     1      24.197   0.377  53.101  1.00  0.00     0.041 A 
HETATM    7  C9  UNL     1      22.774   0.381  52.810  1.00  0.00     0.052 C 
HETATM    8  C10 UNL     1      21.681  -0.287  53.232  1.00  0.00     0.071 C 
HETATM    9  C18 UNL     1      21.455  -1.366  54.229  1.00  0.00     0.239 C 
HETATM   10  O3  UNL     1      22.274  -1.225  55.372  1.00  0.00    -0.357 OA
HETATM   11  C19 UNL     1      23.561  -1.587  55.774  1.00  0.00     0.137 C 
HETATM   12  C20 UNL     1      24.669  -1.131  55.167  1.00  0.00     0.057 C 
ENDROOT
BRANCH   1  13
HETATM   13  N1  UNL     1      23.978   1.866  51.121  1.00  0.00    -0.340 N 
HETATM   14  H3  UNL     1      23.343   1.795  50.306  1.00  0.00     0.167 HD
BRANCH  13  15
HETATM   15  C4  UNL     1      24.047   3.298  51.113  1.00  0.00     0.035 A 
HETATM   16  C3  UNL     1      23.480   4.227  51.988  1.00  0.00     0.032 A 
HETATM   17  C2  UNL     1      23.640   5.588  51.870  1.00  0.00     0.046 A 
HETATM   18  C1  UNL     1      24.399   6.092  50.837  1.00  0.00     0.138 A 
HETATM   19  F1  UNL     1      24.496   7.441  50.807  1.00  0.00    -0.204 F 
HETATM   20  C22 UNL     1      24.994   5.214  49.928  1.00  0.00     0.074 A 
HETATM   21  C21 UNL     1      24.814   3.836  50.072  1.00  0.00     0.056 A 
HETATM   22 CL1  UNL     1      25.916   6.025  48.688  1.00  0.00    -0.081 Cl
ENDBRANCH  13  15
ENDBRANCH   1  13
BRANCH   8  23
HETATM   23  O1  UNL     1      20.531  -0.036  52.758  1.00  0.00    -0.353 OA
BRANCH  23  24
HETATM   24  C11 UNL     1      19.328   0.265  52.341  1.00  0.00     0.177 C 
BRANCH  24  25
HETATM   25  C12 UNL     1      19.206   0.486  50.821  1.00  0.00     0.057 C 
BRANCH  25  26
HETATM   26  C13 UNL     1      19.254   1.934  50.447  1.00  0.00     0.274 C 
BRANCH  26  27
HETATM   27  N4  UNL     1      20.583   2.428  50.210  1.00  0.00     0.092 N 
HETATM   28  C14 UNL     1      20.607   3.768  49.667  1.00  0.00     0.298 C 
HETATM   29  C15 UNL     1      19.782   3.873  48.400  1.00  0.00     0.198 C 
HETATM   30  O2  UNL     1      20.117   2.854  47.511  1.00  0.00    -0.388 OA
HETATM   31  C16 UNL     1      21.266   2.176  47.866  1.00  0.00     0.198 C 
HETATM   32  C17 UNL     1      21.219   1.557  49.240  1.00  0.00     0.298 C 
ENDBRANCH  26  27
ENDBRANCH  25  26
ENDBRANCH  24  25
ENDBRANCH  23  24
ENDBRANCH   8  23
TORSDOF 7
ENDMDL
MODEL 9
REMARK VINA RESULT:      -7.4      2.817      4.073
REMARK  7 active torsions:
REMARK  status: ('A' for Active; 'I' for Inactive)
REMARK    1  A    between atoms: C4_5  and  N1_6 
REMARK    2  A    between atoms: N1_6  and  C5_7 
REMARK    3  A    between atoms: C10_14  and  O1_15 
REMARK    4  A    between atoms: O1_15  and  C11_16 
REMARK    5  A    between atoms: C11_16  and  C12_17 
REMARK    6  A    between atoms: C12_17  and  C13_18 
REMARK    7  A    between atoms: C13_18  and  N4_19 
ROOT
HETATM    1  C5  UNL     1      23.369   1.233  52.635  1.00  0.00     0.142 A 
HETATM    2  N2  UNL     1      22.772   0.262  53.307  1.00  0.00    -0.224 NA
HETATM    3  C6  UNL     1      21.708  -0.392  52.830  1.00  0.00     0.236 A 
HETATM    4  N3  UNL     1      21.223  -0.058  51.628  1.00  0.00    -0.241 NA
HETATM    5  C7  UNL     1      21.746   0.899  50.875  1.00  0.00     0.074 A 
HETATM    6  C8  UNL     1      22.840   1.546  51.405  1.00  0.00     0.041 A 
HETATM    7  C9  UNL     1      23.704   2.613  50.932  1.00  0.00     0.052 C 
HETATM    8  C10 UNL     1      23.887   3.296  49.784  1.00  0.00     0.071 C 
HETATM    9  C18 UNL     1      23.247   3.246  48.443  1.00  0.00     0.239 C 
HETATM   10  O3  UNL     1      21.857   3.000  48.517  1.00  0.00    -0.357 OA
HETATM   11  C19 UNL     1      21.004   1.898  48.593  1.00  0.00     0.137 C 
HETATM   12  C20 UNL     1      21.010   1.041  49.626  1.00  0.00     0.057 C 
ENDROOT
BRANCH   1  13
HETATM   13  N1  UNL     1      24.488   1.861  53.241  1.00  0.00    -0.340 N 
HETATM   14  H3  UNL     1      24.865   2.681  53.749  1.00  0.00     0.167 HD
BRANCH  13  15
HETATM   15  C4  UNL     1      25.728   1.141  53.210  1.00  0.00     0.035 A 
HETATM   16  C3  UNL     1      26.014  -0.128  52.702  1.00  0.00     0.032 A 
HETATM   17  C2  UNL     1      27.265  -0.698  52.725  1.00  0.00     0.046 A 
HETATM   18  C1  UNL     1      28.316  -0.001  53.277  1.00  0.00     0.138 A 
HETATM   19  F1  UNL     1      29.504  -0.646  53.253  1.00  0.00    -0.204 F 
HETATM   20  C22 UNL     1      28.094   1.275  53.803  1.00  0.00     0.074 A 
HETATM   21  C21 UNL     1      26.813   1.831  53.765  1.00  0.00     0.056 A 
HETATM   22 CL1  UNL     1      29.534   2.010  54.461  1.00  0.00    -0.081 Cl
ENDBRANCH  13  15
ENDBRANCH   1  13
BRANCH   8  23
HETATM   23  O1  UNL     1      24.763   4.209  49.692  1.00  0.00    -0.353 OA
BRANCH  23  24
HETATM   24  C11 UNL     1      25.610   5.205  49.632  1.00  0.00     0.177 C 
BRANCH  24  25
HETATM   25  C12 UNL     1      26.909   4.903  48.862  1.00  0.00     0.057 C 
BRANCH  25  26
HETATM   26  C13 UNL     1      27.644   6.145  48.467  1.00  0.00     0.274 C 
BRANCH  26  27
HETATM   27  N4  UNL     1      26.829   7.329  48.476  1.00  0.00     0.092 N 
HETATM   28  C14 UNL     1      26.657   7.915  47.165  1.00  0.00     0.298 C 
HETATM   29  C15 UNL     1      27.991   8.209  46.506  1.00  0.00     0.198 C 
HETATM   30  O2  UNL     1      28.824   8.907  47.376  1.00  0.00    -0.388 OA
HETATM   31  C16 UNL     1      28.171   9.384  48.494  1.00  0.00     0.198 C 
HETATM   32  C17 UNL     1      27.483   8.319  49.310  1.00  0.00     0.298 C 
ENDBRANCH  26  27
ENDBRANCH  25  26
ENDBRANCH  24  25
ENDBRANCH  23  24
ENDBRANCH   8  23
TORSDOF 7
ENDMDL
