MODEL 1
REMARK VINA RESULT:      -9.0      0.000      0.000
REMARK  2 active torsions:
REMARK  status: ('A' for Active; 'I' for Inactive)
REMARK    1  A    between atoms: C2_2  and  C3_3 
REMARK    2  A    between atoms: C11_11  and  C12_12 
ROOT
HETATM    1  C3  UNL     1      21.835   1.015  50.465  1.00  0.00    -0.026 A 
HETATM    2  C4  UNL     1      21.285   0.947  49.233  1.00  0.00     0.012 A 
HETATM    3  C5  UNL     1      21.718   1.693  48.167  1.00  0.00     0.003 A 
HETATM    4  C6  UNL     1      22.745   2.593  48.201  1.00  0.00     0.032 A 
HETATM    5  C7  UNL     1      23.375   2.738  49.411  1.00  0.00     0.065 A 
HETATM    6  C8  UNL     1      22.886   1.923  50.534  1.00  0.00     0.014 A 
HETATM    7  C9  UNL     1      23.700   2.210  51.798  1.00  0.00    -0.009 C 
HETATM    8  C10 UNL     1      24.894   1.737  52.357  1.00  0.00    -0.008 C 
HETATM    9  C11 UNL     1      26.066   1.434  51.397  1.00  0.00     0.015 C 
HETATM   10  C17 UNL     1      26.612   2.605  50.686  1.00  0.00     0.030 C 
HETATM   11  C18 UNL     1      25.988   3.450  49.699  1.00  0.00     0.152 C 
HETATM   12  N1  UNL     1      24.509   3.642  49.704  1.00  0.00    -0.268 N 
HETATM   13  N2  UNL     1      24.333   5.011  50.237  1.00  0.00    -0.165 NA
HETATM   14  C19 UNL     1      23.855   5.376  51.464  1.00  0.00     0.254 C 
HETATM   15  N3  UNL     1      23.187   4.613  52.593  1.00  0.00    -0.252 NA
HETATM   16  C20 UNL     1      23.558   3.324  52.861  1.00  0.00     0.130 C 
ENDROOT
BRANCH   9  17
HETATM   17  C12 UNL     1      27.163   0.939  52.343  1.00  0.00    -0.003 C 
HETATM   18  C13 UNL     1      26.622  -0.168  53.254  1.00  0.00     0.006 C 
HETATM   19  C14 UNL     1      27.325   0.505  54.420  1.00  0.00     0.005 C 
HETATM   20  C15 UNL     1      27.302   1.782  53.590  1.00  0.00    -0.014 C 
HETATM   21  C16 UNL     1      28.636   2.468  53.659  1.00  0.00     0.010 C 
ENDBRANCH   9  17
BRANCH   1  22
HETATM   22  C2  UNL     1      21.629   0.398  51.727  1.00  0.00    -0.014 C 
HETATM   23  C1  UNL     1      20.328   0.282  51.800  1.00  0.00     0.032 C 
ENDBRANCH   1  22
TORSDOF 2
ENDMDL
MODEL 2
REMARK VINA RESULT:      -8.1      1.963      4.831
REMARK  2 active torsions:
REMARK  status: ('A' for Active; 'I' for Inactive)
REMARK    1  A    between atoms: C2_2  and  C3_3 
REMARK    2  A    between atoms: C11_11  and  C12_12 
ROOT
HETATM    1  C3  UNL     1      26.362   5.775  49.312  1.00  0.00    -0.026 A 
HETATM    2  C4  UNL     1      26.433   7.121  49.397  1.00  0.00     0.012 A 
HETATM    3  C5  UNL     1      25.522   7.887  50.078  1.00  0.00     0.003 A 
HETATM    4  C6  UNL     1      24.436   7.405  50.752  1.00  0.00     0.032 A 
HETATM    5  C7  UNL     1      24.271   6.043  50.728  1.00  0.00     0.065 A 
HETATM    6  C8  UNL     1      25.267   5.252  49.989  1.00  0.00     0.014 A 
HETATM    7  C9  UNL     1      24.930   3.760  50.070  1.00  0.00    -0.009 C 
HETATM    8  C10 UNL     1      25.193   2.715  50.963  1.00  0.00    -0.008 C 
HETATM    9  C11 UNL     1      25.161   3.036  52.474  1.00  0.00     0.015 C 
HETATM   10  C17 UNL     1      23.844   3.440  53.000  1.00  0.00     0.030 C 
HETATM   11  C18 UNL     1      23.062   4.615  52.707  1.00  0.00     0.152 C 
HETATM   12  N1  UNL     1      23.181   5.282  51.378  1.00  0.00    -0.268 N 
HETATM   13  N2  UNL     1      21.932   4.907  50.681  1.00  0.00    -0.165 NA
HETATM   14  C19 UNL     1      21.784   4.035  49.641  1.00  0.00     0.254 C 
HETATM   15  N3  UNL     1      22.766   3.319  48.731  1.00  0.00    -0.252 NA
HETATM   16  C20 UNL     1      23.969   2.894  49.224  1.00  0.00     0.130 C 
ENDROOT
BRANCH   9  17
HETATM   17  C12 UNL     1      25.500   1.689  53.117  1.00  0.00    -0.003 C 
HETATM   18  C13 UNL     1      26.866   1.195  52.631  1.00  0.00     0.006 C 
HETATM   19  C14 UNL     1      26.259  -0.185  52.455  1.00  0.00     0.005 C 
HETATM   20  C15 UNL     1      24.905   0.509  52.382  1.00  0.00    -0.014 C 
HETATM   21  C16 UNL     1      23.901  -0.226  53.220  1.00  0.00     0.010 C 
ENDBRANCH   9  17
BRANCH   1  22
HETATM   22  C2  UNL     1      27.118   4.734  48.712  1.00  0.00    -0.014 C 
HETATM   23  C1  UNL     1      28.245   5.318  48.397  1.00  0.00     0.032 C 
ENDBRANCH   1  22
TORSDOF 2
ENDMDL
MODEL 3
REMARK VINA RESULT:      -7.8      6.845      8.859
REMARK  2 active torsions:
REMARK  status: ('A' for Active; 'I' for Inactive)
REMARK    1  A    between atoms: C2_2  and  C3_3 
REMARK    2  A    between atoms: C11_11  and  C12_12 
ROOT
HETATM    1  C3  UNL     1      28.122   6.430  47.883  1.00  0.00    -0.026 A 
HETATM    2  C4  UNL     1      27.289   7.311  47.287  1.00  0.00     0.012 A 
HETATM    3  C5  UNL     1      27.721   8.371  46.533  1.00  0.00     0.003 A 
HETATM    4  C6  UNL     1      29.028   8.680  46.282  1.00  0.00     0.032 A 
HETATM    5  C7  UNL     1      29.959   7.843  46.844  1.00  0.00     0.065 A 
HETATM    6  C8  UNL     1      29.462   6.716  47.648  1.00  0.00     0.014 A 
HETATM    7  C9  UNL     1      30.632   5.891  48.191  1.00  0.00    -0.009 C 
HETATM    8  C10 UNL     1      31.420   4.831  47.726  1.00  0.00    -0.008 C 
HETATM    9  C11 UNL     1      31.821   4.835  46.235  1.00  0.00     0.015 C 
HETATM   10  C17 UNL     1      32.697   5.949  45.825  1.00  0.00     0.030 C 
HETATM   11  C18 UNL     1      32.421   7.362  45.781  1.00  0.00     0.152 C 
HETATM   12  N1  UNL     1      31.429   7.962  46.721  1.00  0.00    -0.268 N 
HETATM   13  N2  UNL     1      32.266   8.679  47.708  1.00  0.00    -0.165 NA
HETATM   14  C19 UNL     1      32.503   8.338  49.009  1.00  0.00     0.254 C 
HETATM   15  N3  UNL     1      31.905   7.300  49.941  1.00  0.00    -0.252 NA
HETATM   16  C20 UNL     1      31.508   6.087  49.450  1.00  0.00     0.130 C 
ENDROOT
BRANCH   9  17
HETATM   17  C12 UNL     1      32.644   3.551  46.098  1.00  0.00    -0.003 C 
HETATM   18  C13 UNL     1      31.803   2.334  46.495  1.00  0.00     0.006 C 
HETATM   19  C14 UNL     1      32.996   1.817  47.278  1.00  0.00     0.005 C 
HETATM   20  C15 UNL     1      33.495   3.256  47.311  1.00  0.00    -0.014 C 
HETATM   21  C16 UNL     1      34.961   3.303  46.995  1.00  0.00     0.010 C 
ENDBRANCH   9  17
BRANCH   1  22
HETATM   22  C2  UNL     1      27.997   5.272  48.695  1.00  0.00    -0.014 C 
HETATM   23  C1  UNL     1      26.706   5.166  48.877  1.00  0.00     0.032 C 
ENDBRANCH   1  22
TORSDOF 2
ENDMDL
MODEL 4
REMARK VINA RESULT:      -7.7      2.143      4.942
REMARK  2 active torsions:
REMARK  status: ('A' for Active; 'I' for Inactive)
REMARK    1  A    between atoms: C2_2  and  C3_3 
REMARK    2  A    between atoms: C11_11  and  C12_12 
ROOT
HETATM    1  C3  UNL     1      25.593   5.590  49.661  1.00  0.00    -0.026 A 
HETATM    2  C4  UNL     1      25.777   6.859  50.084  1.00  0.00     0.012 A 
HETATM    3  C5  UNL     1      24.814   7.591  50.729  1.00  0.00     0.003 A 
HETATM    4  C6  UNL     1      23.557   7.149  51.028  1.00  0.00     0.032 A 
HETATM    5  C7  UNL     1      23.265   5.865  50.640  1.00  0.00     0.065 A 
HETATM    6  C8  UNL     1      24.321   5.108  49.951  1.00  0.00     0.014 A 
HETATM    7  C9  UNL     1      23.826   3.703  49.596  1.00  0.00    -0.009 C 
HETATM    8  C10 UNL     1      23.764   2.463  50.243  1.00  0.00    -0.008 C 
HETATM    9  C11 UNL     1      23.410   2.453  51.746  1.00  0.00     0.015 C 
HETATM   10  C17 UNL     1      22.054   2.932  52.074  1.00  0.00     0.030 C 
HETATM   11  C18 UNL     1      21.487   4.248  51.922  1.00  0.00     0.152 C 
HETATM   12  N1  UNL     1      21.982   5.159  50.849  1.00  0.00    -0.268 N 
HETATM   13  N2  UNL     1      20.900   5.138  49.840  1.00  0.00    -0.165 NA
HETATM   14  C19 UNL     1      20.913   4.542  48.612  1.00  0.00     0.254 C 
HETATM   15  N3  UNL     1      22.003   3.896  47.776  1.00  0.00    -0.252 NA
HETATM   16  C20 UNL     1      23.007   3.195  48.387  1.00  0.00     0.130 C 
ENDROOT
BRANCH   9  17
HETATM   17  C12 UNL     1      23.451   0.964  52.098  1.00  0.00    -0.003 C 
HETATM   18  C13 UNL     1      22.283   0.602  53.021  1.00  0.00     0.006 C 
HETATM   19  C14 UNL     1      23.253  -0.206  53.865  1.00  0.00     0.005 C 
HETATM   20  C15 UNL     1      24.360   0.651  53.265  1.00  0.00    -0.014 C 
HETATM   21  C16 UNL     1      25.519  -0.212  52.859  1.00  0.00     0.010 C 
ENDBRANCH   9  17
BRANCH   1  22
HETATM   22  C2  UNL     1      26.358   4.598  48.993  1.00  0.00    -0.014 C 
HETATM   23  C1  UNL     1      27.428   5.246  48.611  1.00  0.00     0.032 C 
ENDBRANCH   1  22
TORSDOF 2
ENDMDL
MODEL 5
REMARK VINA RESULT:      -7.3      2.404      4.916
REMARK  2 active torsions:
REMARK  status: ('A' for Active; 'I' for Inactive)
REMARK    1  A    between atoms: C2_2  and  C3_3 
REMARK    2  A    between atoms: C11_11  and  C12_12 
ROOT
HETATM    1  C3  UNL     1      24.679   4.566  49.903  1.00  0.00    -0.026 A 
HETATM    2  C4  UNL     1      24.871   5.869  50.200  1.00  0.00     0.012 A 
HETATM    3  C5  UNL     1      23.888   6.687  50.694  1.00  0.00     0.003 A 
HETATM    4  C6  UNL     1      22.602   6.306  50.950  1.00  0.00     0.032 A 
HETATM    5  C7  UNL     1      22.300   4.995  50.683  1.00  0.00     0.065 A 
HETATM    6  C8  UNL     1      23.378   4.145  50.153  1.00  0.00     0.014 A 
HETATM    7  C9  UNL     1      22.867   2.721  49.917  1.00  0.00    -0.009 C 
HETATM    8  C10 UNL     1      22.727   1.560  50.686  1.00  0.00    -0.008 C 
HETATM    9  C11 UNL     1      22.273   1.721  52.154  1.00  0.00     0.015 C 
HETATM   10  C17 UNL     1      20.913   2.261  52.333  1.00  0.00     0.030 C 
HETATM   11  C18 UNL     1      20.394   3.564  52.002  1.00  0.00     0.152 C 
HETATM   12  N1  UNL     1      20.986   4.342  50.875  1.00  0.00    -0.268 N 
HETATM   13  N2  UNL     1      19.974   4.235  49.802  1.00  0.00    -0.165 NA
HETATM   14  C19 UNL     1      20.052   3.510  48.648  1.00  0.00     0.254 C 
HETATM   15  N3  UNL     1      21.177   2.754  47.964  1.00  0.00    -0.252 NA
HETATM   16  C20 UNL     1      22.117   2.103  48.714  1.00  0.00     0.130 C 
ENDROOT
BRANCH   9  17
HETATM   17  C12 UNL     1      22.248   0.278  52.665  1.00  0.00    -0.003 C 
HETATM   18  C13 UNL     1      21.073   0.074  53.627  1.00  0.00     0.006 C 
HETATM   19  C14 UNL     1      22.013  -0.684  54.548  1.00  0.00     0.005 C 
HETATM   20  C15 UNL     1      23.153   0.050  53.853  1.00  0.00    -0.014 C 
HETATM   21  C16 UNL     1      24.266  -0.907  53.537  1.00  0.00     0.010 C 
ENDBRANCH   9  17
BRANCH   1  22
HETATM   22  C2  UNL     1      25.459   3.491  49.400  1.00  0.00    -0.014 C 
HETATM   23  C1  UNL     1      26.540   3.529  50.136  1.00  0.00     0.032 C 
ENDBRANCH   1  22
TORSDOF 2
ENDMDL
MODEL 6
REMARK VINA RESULT:      -7.2      1.905      5.225
REMARK  2 active torsions:
REMARK  status: ('A' for Active; 'I' for Inactive)
REMARK    1  A    between atoms: C2_2  and  C3_3 
REMARK    2  A    between atoms: C11_11  and  C12_12 
ROOT
HETATM    1  C3  UNL     1      22.188   2.060  48.664  1.00  0.00    -0.026 A 
HETATM    2  C4  UNL     1      21.447   1.001  49.057  1.00  0.00     0.012 A 
HETATM    3  C5  UNL     1      21.457   0.501  50.334  1.00  0.00     0.003 A 
HETATM    4  C6  UNL     1      22.203   0.993  51.367  1.00  0.00     0.032 A 
HETATM    5  C7  UNL     1      22.994   2.074  51.073  1.00  0.00     0.065 A 
HETATM    6  C8  UNL     1      22.960   2.586  49.694  1.00  0.00     0.014 A 
HETATM    7  C9  UNL     1      23.896   3.789  49.547  1.00  0.00    -0.009 C 
HETATM    8  C10 UNL     1      23.800   5.171  49.751  1.00  0.00    -0.008 C 
HETATM    9  C11 UNL     1      22.991   5.663  50.971  1.00  0.00     0.015 C 
HETATM   10  C17 UNL     1      23.550   5.291  52.284  1.00  0.00     0.030 C 
HETATM   11  C18 UNL     1      23.702   3.987  52.878  1.00  0.00     0.152 C 
HETATM   12  N1  UNL     1      23.888   2.786  52.013  1.00  0.00    -0.268 N 
HETATM   13  N2  UNL     1      25.322   2.457  52.168  1.00  0.00    -0.165 NA
HETATM   14  C19 UNL     1      26.322   2.620  51.252  1.00  0.00     0.254 C 
HETATM   15  N3  UNL     1      26.338   2.980  49.778  1.00  0.00    -0.252 NA
HETATM   16  C20 UNL     1      25.417   3.859  49.278  1.00  0.00     0.130 C 
ENDROOT
BRANCH   9  17
HETATM   17  C12 UNL     1      23.096   7.186  50.860  1.00  0.00    -0.003 C 
HETATM   18  C13 UNL     1      21.870   7.754  50.139  1.00  0.00     0.006 C 
HETATM   19  C14 UNL     1      22.804   8.642  49.336  1.00  0.00     0.005 C 
HETATM   20  C15 UNL     1      23.905   7.643  49.668  1.00  0.00    -0.014 C 
HETATM   21  C16 UNL     1      25.153   8.368  50.079  1.00  0.00     0.010 C 
ENDBRANCH   9  17
BRANCH   1  22
HETATM   22  C2  UNL     1      22.392   2.794  47.467  1.00  0.00    -0.014 C 
HETATM   23  C1  UNL     1      21.198   3.242  47.177  1.00  0.00     0.032 C 
ENDBRANCH   1  22
TORSDOF 2
ENDMDL
MODEL 7
REMARK VINA RESULT:      -7.2      8.493     11.487
REMARK  2 active torsions:
REMARK  status: ('A' for Active; 'I' for Inactive)
REMARK    1  A    between atoms: C2_2  and  C3_3 
REMARK    2  A    between atoms: C11_11  and  C12_12 
ROOT
HETATM    1  C3  UNL     1      34.102   4.885  44.749  1.00  0.00    -0.026 A 
HETATM    2  C4  UNL     1      34.798   3.747  44.962  1.00  0.00     0.012 A 
HETATM    3  C5  UNL     1      35.163   3.304  46.207  1.00  0.00     0.003 A 
HETATM    4  C6  UNL     1      34.882   3.938  47.383  1.00  0.00     0.032 A 
HETATM    5  C7  UNL     1      34.175   5.110  47.278  1.00  0.00     0.065 A 
HETATM    6  C8  UNL     1      33.799   5.557  45.928  1.00  0.00     0.014 A 
HETATM    7  C9  UNL     1      33.017   6.872  45.999  1.00  0.00    -0.009 C 
HETATM    8  C10 UNL     1      31.678   7.240  46.177  1.00  0.00    -0.008 C 
HETATM    9  C11 UNL     1      30.835   6.422  47.180  1.00  0.00     0.015 C 
HETATM   10  C17 UNL     1      31.270   6.516  48.586  1.00  0.00     0.030 C 
HETATM   11  C18 UNL     1      32.492   6.057  49.199  1.00  0.00     0.152 C 
HETATM   12  N1  UNL     1      33.748   5.978  48.398  1.00  0.00    -0.268 N 
HETATM   13  N2  UNL     1      34.546   7.128  48.876  1.00  0.00    -0.165 NA
HETATM   14  C19 UNL     1      34.820   8.290  48.213  1.00  0.00     0.254 C 
HETATM   15  N3  UNL     1      34.611   8.748  46.781  1.00  0.00    -0.252 NA
HETATM   16  C20 UNL     1      33.508   8.335  46.085  1.00  0.00     0.130 C 
ENDROOT
BRANCH   9  17
HETATM   17  C12 UNL     1      29.460   7.091  47.097  1.00  0.00    -0.003 C 
HETATM   18  C13 UNL     1      29.591   8.605  47.285  1.00  0.00     0.006 C 
HETATM   19  C14 UNL     1      28.390   8.553  48.212  1.00  0.00     0.005 C 
HETATM   20  C15 UNL     1      28.710   7.077  48.409  1.00  0.00    -0.014 C 
HETATM   21  C16 UNL     1      27.453   6.260  48.329  1.00  0.00     0.010 C 
ENDBRANCH   9  17
BRANCH   1  22
HETATM   22  C2  UNL     1      33.587   5.591  43.630  1.00  0.00    -0.014 C 
HETATM   23  C1  UNL     1      33.363   4.647  42.752  1.00  0.00     0.032 C 
ENDBRANCH   1  22
TORSDOF 2
ENDMDL
MODEL 8
REMARK VINA RESULT:      -7.2      2.541      6.322
REMARK  2 active torsions:
REMARK  status: ('A' for Active; 'I' for Inactive)
REMARK    1  A    between atoms: C2_2  and  C3_3 
REMARK    2  A    between atoms: C11_11  and  C12_12 
ROOT
HETATM    1  C3  UNL     1      23.651   2.259  52.206  1.00  0.00    -0.026 A 
HETATM    2  C4  UNL     1      24.045   3.320  52.943  1.00  0.00     0.012 A 
HETATM    3  C5  UNL     1      23.374   4.515  52.970  1.00  0.00     0.003 A 
HETATM    4  C6  UNL     1      22.236   4.796  52.269  1.00  0.00     0.032 A 
HETATM    5  C7  UNL     1      21.749   3.781  51.485  1.00  0.00     0.065 A 
HETATM    6  C8  UNL     1      22.493   2.512  51.479  1.00  0.00     0.014 A 
HETATM    7  C9  UNL     1      21.810   1.497  50.557  1.00  0.00    -0.009 C 
HETATM    8  C10 UNL     1      20.781   0.556  50.682  1.00  0.00    -0.008 C 
HETATM    9  C11 UNL     1      19.557   0.940  51.541  1.00  0.00     0.015 C 
HETATM   10  C17 UNL     1      18.756   2.065  51.024  1.00  0.00     0.030 C 
HETATM   11  C18 UNL     1      19.116   3.452  50.872  1.00  0.00     0.152 C 
HETATM   12  N1  UNL     1      20.538   3.835  50.636  1.00  0.00    -0.268 N 
HETATM   13  N2  UNL     1      20.573   4.203  49.204  1.00  0.00    -0.165 NA
HETATM   14  C19 UNL     1      21.141   3.506  48.175  1.00  0.00     0.254 C 
HETATM   15  N3  UNL     1      22.053   2.295  48.113  1.00  0.00    -0.252 NA
HETATM   16  C20 UNL     1      21.917   1.288  49.029  1.00  0.00     0.130 C 
ENDROOT
BRANCH   9  17
HETATM   17  C12 UNL     1      18.674  -0.308  51.456  1.00  0.00    -0.003 C 
HETATM   18  C13 UNL     1      17.397  -0.006  50.666  1.00  0.00     0.006 C 
HETATM   19  C14 UNL     1      16.612  -0.756  51.727  1.00  0.00     0.005 C 
HETATM   20  C15 UNL     1      17.783  -0.492  52.664  1.00  0.00    -0.014 C 
HETATM   21  C16 UNL     1      18.124  -1.738  53.429  1.00  0.00     0.010 C 
ENDBRANCH   9  17
BRANCH   1  22
HETATM   22  C2  UNL     1      24.104   0.935  51.971  1.00  0.00    -0.014 C 
HETATM   23  C1  UNL     1      24.044   0.378  53.153  1.00  0.00     0.032 C 
ENDBRANCH   1  22
TORSDOF 2
ENDMDL
MODEL 9
REMARK VINA RESULT:      -7.1      8.631     11.604
REMARK  2 active torsions:
REMARK  status: ('A' for Active; 'I' for Inactive)
REMARK    1  A    between atoms: C2_2  and  C3_3 
REMARK    2  A    between atoms: C11_11  and  C12_12 
ROOT
HETATM    1  C3  UNL     1      33.907   7.244  44.401  1.00  0.00    -0.026 A 
HETATM    2  C4  UNL     1      34.374   6.468  43.398  1.00  0.00     0.012 A 
HETATM    3  C5  UNL     1      34.656   5.134  43.540  1.00  0.00     0.003 A 
HETATM    4  C6  UNL     1      34.509   4.416  44.692  1.00  0.00     0.032 A 
HETATM    5  C7  UNL     1      34.038   5.112  45.777  1.00  0.00     0.065 A 
HETATM    6  C8  UNL     1      33.744   6.542  45.590  1.00  0.00     0.014 A 
HETATM    7  C9  UNL     1      33.228   7.156  46.894  1.00  0.00    -0.009 C 
HETATM    8  C10 UNL     1      31.985   7.283  47.526  1.00  0.00    -0.008 C 
HETATM    9  C11 UNL     1      31.009   6.090  47.437  1.00  0.00     0.015 C 
HETATM   10  C17 UNL     1      31.463   4.857  48.107  1.00  0.00     0.030 C 
HETATM   11  C18 UNL     1      32.579   4.001  47.791  1.00  0.00     0.152 C 
HETATM   12  N1  UNL     1      33.792   4.564  47.129  1.00  0.00    -0.268 N 
HETATM   13  N2  UNL     1      34.797   4.610  48.213  1.00  0.00    -0.165 NA
HETATM   14  C19 UNL     1      35.283   5.712  48.858  1.00  0.00     0.254 C 
HETATM   15  N3  UNL     1      35.155   7.205  48.614  1.00  0.00    -0.252 NA
HETATM   16  C20 UNL     1      33.989   7.719  48.117  1.00  0.00     0.130 C 
ENDROOT
BRANCH   9  17
HETATM   17  C12 UNL     1      29.786   6.589  48.211  1.00  0.00    -0.003 C 
HETATM   18  C13 UNL     1      28.766   5.459  48.383  1.00  0.00     0.006 C 
HETATM   19  C14 UNL     1      27.673   6.444  48.009  1.00  0.00     0.005 C 
HETATM   20  C15 UNL     1      28.760   7.268  47.332  1.00  0.00    -0.014 C 
HETATM   21  C16 UNL     1      28.599   8.720  47.676  1.00  0.00     0.010 C 
ENDBRANCH   9  17
BRANCH   1  22
HETATM   22  C2  UNL     1      33.528   8.601  44.571  1.00  0.00    -0.014 C 
HETATM   23  C1  UNL     1      34.630   9.258  44.319  1.00  0.00     0.032 C 
ENDBRANCH   1  22
TORSDOF 2
ENDMDL
