MODEL 1
REMARK VINA RESULT:      -7.9      0.000      0.000
REMARK  7 active torsions:
REMARK  status: ('A' for Active; 'I' for Inactive)
REMARK    1  A    between atoms: C2_2  and  C3_3 
REMARK    2  A    between atoms: C4_4  and  C5_5 
REMARK    3  A    between atoms: C5_5  and  C7_7 
REMARK    4  A    between atoms: C7_7  and  N1_8 
REMARK    5  A    between atoms: C10_12  and  N2_13 
REMARK    6  A    between atoms: N2_13  and  C11_14 
REMARK    7  A    between atoms: C11_14  and  C13_16 
ROOT
HETATM    1  N1  UNL     1      23.695   0.585  52.903  1.00  0.00     0.111 N 
HETATM    2  C8  UNL     1      23.245   1.164  51.647  1.00  0.00     0.279 C 
HETATM    3  C9  UNL     1      23.503   2.662  51.719  1.00  0.00     0.069 C 
HETATM    4  P1  UNL     1      24.013   3.399  50.114  1.00  0.00    -0.054 P 
HETATM    5  C10 UNL     1      25.821   3.840  50.373  1.00  0.00     0.124 C 
HETATM    6  N3  UNL     1      26.826   3.134  50.829  1.00  0.00    -0.225 NA
HETATM    7  C19 UNL     1      26.566   1.768  51.221  1.00  0.00     0.231 C 
HETATM    8  N4  UNL     1      25.684   1.580  52.086  1.00  0.00    -0.253 NA
HETATM    9  C20 UNL     1      25.194   0.391  52.684  1.00  0.00     0.422 C 
HETATM   10  H14 UNL     1      23.862   2.537  48.982  1.00  0.00     0.065 HD
ENDROOT
BRANCH   5  11
HETATM   11  N2  UNL     1      26.265   5.164  50.038  1.00  0.00    -0.366 N 
HETATM   12  H15 UNL     1      26.647   5.789  50.814  1.00  0.00     0.161 HD
BRANCH  11  13
HETATM   13  C11 UNL     1      26.240   5.726  48.739  1.00  0.00     0.112 C 
HETATM   14  C12 UNL     1      25.291   6.833  48.468  1.00  0.00     0.037 C 
BRANCH  13  15
HETATM   15  C13 UNL     1      27.601   6.119  48.262  1.00  0.00    -0.036 A 
HETATM   16  C14 UNL     1      27.791   7.354  47.617  1.00  0.00     0.009 A 
HETATM   17  C15 UNL     1      29.065   7.637  47.198  1.00  0.00     0.001 A 
HETATM   18  C16 UNL     1      30.177   6.851  47.329  1.00  0.00     0.000 A 
HETATM   19  C17 UNL     1      29.976   5.656  47.953  1.00  0.00     0.001 A 
HETATM   20  C18 UNL     1      28.728   5.303  48.405  1.00  0.00     0.009 A 
ENDBRANCH  13  15
ENDBRANCH  11  13
ENDBRANCH   5  11
BRANCH   1  21
HETATM   21  C7  UNL     1      23.193  -0.700  53.240  1.00  0.00     0.308 C 
BRANCH  21  22
HETATM   22  C5  UNL     1      22.194  -0.652  54.349  1.00  0.00    -0.055 C 
HETATM   23  C6  UNL     1      22.680  -1.389  55.365  1.00  0.00     0.040 C 
BRANCH  22  24
HETATM   24  C4  UNL     1      20.877   0.022  54.508  1.00  0.00    -0.021 C 
HETATM   25  C3  UNL     1      20.143  -0.654  53.599  1.00  0.00    -0.002 C 
BRANCH  25  26
HETATM   26  C2  UNL     1      18.808  -0.699  53.080  1.00  0.00    -0.006 C 
HETATM   27  C1  UNL     1      19.269   0.149  52.124  1.00  0.00     0.038 C 
ENDBRANCH  25  26
ENDBRANCH  22  24
ENDBRANCH  21  22
ENDBRANCH   1  21
TORSDOF 7
ENDMDL
MODEL 2
REMARK VINA RESULT:      -7.6      4.380     10.607
REMARK  7 active torsions:
REMARK  status: ('A' for Active; 'I' for Inactive)
REMARK    1  A    between atoms: C2_2  and  C3_3 
REMARK    2  A    between atoms: C4_4  and  C5_5 
REMARK    3  A    between atoms: C5_5  and  C7_7 
REMARK    4  A    between atoms: C7_7  and  N1_8 
REMARK    5  A    between atoms: C10_12  and  N2_13 
REMARK    6  A    between atoms: N2_13  and  C11_14 
REMARK    7  A    between atoms: C11_14  and  C13_16 
ROOT
HETATM    1  N1  UNL     1      24.066   0.517  52.893  1.00  0.00     0.111 N 
HETATM    2  C8  UNL     1      23.001   1.504  52.811  1.00  0.00     0.279 C 
HETATM    3  C9  UNL     1      21.971   0.980  51.821  1.00  0.00     0.069 C 
HETATM    4  P1  UNL     1      20.238   1.391  52.276  1.00  0.00    -0.054 P 
HETATM    5  C10 UNL     1      19.496  -0.264  52.769  1.00  0.00     0.124 C 
HETATM    6  N3  UNL     1      19.919  -1.191  53.593  1.00  0.00    -0.225 NA
HETATM    7  C19 UNL     1      21.172  -0.963  54.275  1.00  0.00     0.231 C 
HETATM    8  N4  UNL     1      22.178  -0.746  53.565  1.00  0.00    -0.253 NA
HETATM    9  C20 UNL     1      23.531  -0.494  53.906  1.00  0.00     0.422 C 
HETATM   10  H14 UNL     1      20.104   2.339  53.339  1.00  0.00     0.065 HD
ENDROOT
BRANCH   5  11
HETATM   11  N2  UNL     1      18.245  -0.662  52.186  1.00  0.00    -0.366 N 
HETATM   12  H15 UNL     1      18.201  -0.838  51.135  1.00  0.00     0.161 HD
BRANCH  11  13
HETATM   13  C11 UNL     1      17.036  -0.846  52.901  1.00  0.00     0.112 C 
HETATM   14  C12 UNL     1      15.879   0.018  52.563  1.00  0.00     0.037 C 
BRANCH  13  15
HETATM   15  C13 UNL     1      16.594  -2.274  52.914  1.00  0.00    -0.036 A 
HETATM   16  C14 UNL     1      15.364  -2.635  52.337  1.00  0.00     0.009 A 
HETATM   17  C15 UNL     1      15.023  -3.961  52.400  1.00  0.00     0.001 A 
HETATM   18  C16 UNL     1      15.742  -4.978  52.967  1.00  0.00     0.000 A 
HETATM   19  C17 UNL     1      16.929  -4.612  53.526  1.00  0.00     0.001 A 
HETATM   20  C18 UNL     1      17.342  -3.302  53.499  1.00  0.00     0.009 A 
ENDBRANCH  13  15
ENDBRANCH  11  13
ENDBRANCH   5  11
BRANCH   1  21
HETATM   21  C7  UNL     1      25.313   0.952  53.416  1.00  0.00     0.308 C 
BRANCH  21  22
HETATM   22  C5  UNL     1      26.476   0.346  52.704  1.00  0.00    -0.055 C 
HETATM   23  C6  UNL     1      26.773   1.143  51.660  1.00  0.00     0.040 C 
BRANCH  22  24
HETATM   24  C4  UNL     1      27.296  -0.873  52.940  1.00  0.00    -0.021 C 
HETATM   25  C3  UNL     1      28.478  -0.313  53.278  1.00  0.00    -0.002 C 
BRANCH  25  26
HETATM   26  C2  UNL     1      29.802  -0.696  53.666  1.00  0.00    -0.006 C 
HETATM   27  C1  UNL     1      29.422  -1.954  53.321  1.00  0.00     0.038 C 
ENDBRANCH  25  26
ENDBRANCH  22  24
ENDBRANCH  21  22
ENDBRANCH   1  21
TORSDOF 7
ENDMDL
MODEL 3
REMARK VINA RESULT:      -7.3      2.044      8.401
REMARK  7 active torsions:
REMARK  status: ('A' for Active; 'I' for Inactive)
REMARK    1  A    between atoms: C2_2  and  C3_3 
REMARK    2  A    between atoms: C4_4  and  C5_5 
REMARK    3  A    between atoms: C5_5  and  C7_7 
REMARK    4  A    between atoms: C7_7  and  N1_8 
REMARK    5  A    between atoms: C10_12  and  N2_13 
REMARK    6  A    between atoms: N2_13  and  C11_14 
REMARK    7  A    between atoms: C11_14  and  C13_16 
ROOT
HETATM    1  N1  UNL     1      25.229   6.829  50.207  1.00  0.00     0.111 N 
HETATM    2  C8  UNL     1      24.706   5.821  49.297  1.00  0.00     0.279 C 
HETATM    3  C9  UNL     1      25.058   4.459  49.876  1.00  0.00     0.069 C 
HETATM    4  P1  UNL     1      23.763   3.184  49.600  1.00  0.00    -0.054 P 
HETATM    5  C10 UNL     1      23.048   2.887  51.312  1.00  0.00     0.124 C 
HETATM    6  N3  UNL     1      22.604   3.720  52.220  1.00  0.00    -0.225 NA
HETATM    7  C19 UNL     1      22.645   5.132  51.915  1.00  0.00     0.231 C 
HETATM    8  N4  UNL     1      23.756   5.619  51.614  1.00  0.00    -0.253 NA
HETATM    9  C20 UNL     1      24.139   6.941  51.272  1.00  0.00     0.422 C 
HETATM   10  H14 UNL     1      22.733   3.563  48.682  1.00  0.00     0.065 HD
ENDROOT
BRANCH   5  11
HETATM   11  N2  UNL     1      22.932   1.536  51.788  1.00  0.00    -0.366 N 
HETATM   12  H15 UNL     1      22.428   0.819  51.179  1.00  0.00     0.161 HD
BRANCH  11  13
HETATM   13  C11 UNL     1      23.441   1.062  53.021  1.00  0.00     0.112 C 
HETATM   14  C12 UNL     1      22.917  -0.220  53.553  1.00  0.00     0.037 C 
BRANCH  13  15
HETATM   15  C13 UNL     1      24.935   1.030  53.046  1.00  0.00    -0.036 A 
HETATM   16  C14 UNL     1      25.622  -0.104  52.577  1.00  0.00     0.009 A 
HETATM   17  C15 UNL     1      26.990  -0.063  52.645  1.00  0.00     0.001 A 
HETATM   18  C16 UNL     1      27.768   0.955  53.124  1.00  0.00     0.000 A 
HETATM   19  C17 UNL     1      27.089   2.045  53.578  1.00  0.00     0.001 A 
HETATM   20  C18 UNL     1      25.715   2.080  53.540  1.00  0.00     0.009 A 
ENDBRANCH  13  15
ENDBRANCH  11  13
ENDBRANCH   5  11
BRANCH   1  21
HETATM   21  C7  UNL     1      25.392   8.142  49.693  1.00  0.00     0.308 C 
BRANCH  21  22
HETATM   22  C5  UNL     1      26.765   8.382  49.158  1.00  0.00    -0.055 C 
HETATM   23  C6  UNL     1      27.424   9.137  50.057  1.00  0.00     0.040 C 
BRANCH  22  24
HETATM   24  C4  UNL     1      27.467   7.955  47.918  1.00  0.00    -0.021 C 
HETATM   25  C3  UNL     1      28.273   6.991  48.411  1.00  0.00    -0.002 C 
BRANCH  25  26
HETATM   26  C2  UNL     1      29.263   6.056  47.968  1.00  0.00    -0.006 C 
HETATM   27  C1  UNL     1      28.389   5.101  48.381  1.00  0.00     0.038 C 
ENDBRANCH  25  26
ENDBRANCH  22  24
ENDBRANCH  21  22
ENDBRANCH   1  21
TORSDOF 7
ENDMDL
MODEL 4
REMARK VINA RESULT:      -7.1      1.675      2.721
REMARK  7 active torsions:
REMARK  status: ('A' for Active; 'I' for Inactive)
REMARK    1  A    between atoms: C2_2  and  C3_3 
REMARK    2  A    between atoms: C4_4  and  C5_5 
REMARK    3  A    between atoms: C5_5  and  C7_7 
REMARK    4  A    between atoms: C7_7  and  N1_8 
REMARK    5  A    between atoms: C10_12  and  N2_13 
REMARK    6  A    between atoms: N2_13  and  C11_14 
REMARK    7  A    between atoms: C11_14  and  C13_16 
ROOT
HETATM    1  N1  UNL     1      22.490   2.080  52.282  1.00  0.00     0.111 N 
HETATM    2  C8  UNL     1      22.228   3.509  52.199  1.00  0.00     0.279 C 
HETATM    3  C9  UNL     1      23.559   4.226  52.367  1.00  0.00     0.069 C 
HETATM    4  P1  UNL     1      23.712   5.744  51.341  1.00  0.00    -0.054 P 
HETATM    5  C10 UNL     1      24.985   5.282  50.037  1.00  0.00     0.124 C 
HETATM    6  N3  UNL     1      25.068   4.248  49.239  1.00  0.00    -0.225 NA
HETATM    7  C19 UNL     1      24.030   3.246  49.325  1.00  0.00     0.231 C 
HETATM    8  N4  UNL     1      23.839   2.717  50.441  1.00  0.00    -0.253 NA
HETATM    9  C20 UNL     1      22.923   1.719  50.863  1.00  0.00     0.422 C 
HETATM   10  H14 UNL     1      22.496   6.179  50.726  1.00  0.00     0.065 HD
ENDROOT
BRANCH   5  11
HETATM   11  N2  UNL     1      26.095   6.165  49.813  1.00  0.00    -0.366 N 
HETATM   12  H15 UNL     1      26.670   6.490  50.651  1.00  0.00     0.161 HD
BRANCH  11  13
HETATM   13  C11 UNL     1      26.505   6.651  48.547  1.00  0.00     0.112 C 
HETATM   14  C12 UNL     1      25.979   7.961  48.092  1.00  0.00     0.037 C 
BRANCH  13  15
HETATM   15  C13 UNL     1      27.991   6.637  48.385  1.00  0.00    -0.036 A 
HETATM   16  C14 UNL     1      28.711   7.844  48.397  1.00  0.00     0.009 A 
HETATM   17  C15 UNL     1      30.068   7.749  48.229  1.00  0.00     0.001 A 
HETATM   18  C16 UNL     1      30.806   6.611  48.046  1.00  0.00     0.000 A 
HETATM   19  C17 UNL     1      30.093   5.450  48.033  1.00  0.00     0.001 A 
HETATM   20  C18 UNL     1      28.729   5.464  48.198  1.00  0.00     0.009 A 
ENDBRANCH  13  15
ENDBRANCH  11  13
ENDBRANCH   5  11
BRANCH   1  21
HETATM   21  C7  UNL     1      21.385   1.235  52.567  1.00  0.00     0.308 C 
BRANCH  21  22
HETATM   22  C5  UNL     1      21.742   0.115  53.487  1.00  0.00    -0.055 C 
HETATM   23  C6  UNL     1      20.981   0.239  54.591  1.00  0.00     0.040 C 
BRANCH  22  24
HETATM   24  C4  UNL     1      22.700  -1.018  53.392  1.00  0.00    -0.021 C 
HETATM   25  C3  UNL     1      23.804  -0.454  53.928  1.00  0.00    -0.002 C 
BRANCH  25  26
HETATM   26  C2  UNL     1      25.162  -0.782  54.243  1.00  0.00    -0.006 C 
HETATM   27  C1  UNL     1      25.464  -0.194  53.056  1.00  0.00     0.038 C 
ENDBRANCH  25  26
ENDBRANCH  22  24
ENDBRANCH  21  22
ENDBRANCH   1  21
TORSDOF 7
ENDMDL
MODEL 5
REMARK VINA RESULT:      -7.1      4.657      9.478
REMARK  7 active torsions:
REMARK  status: ('A' for Active; 'I' for Inactive)
REMARK    1  A    between atoms: C2_2  and  C3_3 
REMARK    2  A    between atoms: C4_4  and  C5_5 
REMARK    3  A    between atoms: C5_5  and  C7_7 
REMARK    4  A    between atoms: C7_7  and  N1_8 
REMARK    5  A    between atoms: C10_12  and  N2_13 
REMARK    6  A    between atoms: N2_13  and  C11_14 
REMARK    7  A    between atoms: C11_14  and  C13_16 
ROOT
HETATM    1  N1  UNL     1      23.859   0.204  52.903  1.00  0.00     0.111 N 
HETATM    2  C8  UNL     1      23.046   1.410  52.909  1.00  0.00     0.279 C 
HETATM    3  C9  UNL     1      22.042   1.287  51.772  1.00  0.00     0.069 C 
HETATM    4  P1  UNL     1      20.398   2.012  52.160  1.00  0.00    -0.054 P 
HETATM    5  C10 UNL     1      19.269   0.517  52.313  1.00  0.00     0.124 C 
HETATM    6  N3  UNL     1      19.391  -0.592  52.998  1.00  0.00    -0.225 NA
HETATM    7  C19 UNL     1      20.582  -0.760  53.799  1.00  0.00     0.231 C 
HETATM    8  N4  UNL     1      21.682  -0.678  53.212  1.00  0.00    -0.253 NA
HETATM    9  C20 UNL     1      23.012  -0.795  53.689  1.00  0.00     0.422 C 
HETATM   10  H14 UNL     1      20.355   2.799  53.354  1.00  0.00     0.065 HD
ENDROOT
BRANCH   5  11
HETATM   11  N2  UNL     1      18.033   0.506  51.580  1.00  0.00    -0.366 N 
HETATM   12  H15 UNL     1      17.467  -0.397  51.542  1.00  0.00     0.161 HD
BRANCH  11  13
HETATM   13  C11 UNL     1      17.488   1.616  50.890  1.00  0.00     0.112 C 
HETATM   14  C12 UNL     1      17.055   1.428  49.485  1.00  0.00     0.037 C 
BRANCH  13  15
HETATM   15  C13 UNL     1      16.389   2.279  51.657  1.00  0.00    -0.036 A 
HETATM   16  C14 UNL     1      16.422   3.668  51.874  1.00  0.00     0.009 A 
HETATM   17  C15 UNL     1      15.386   4.200  52.597  1.00  0.00     0.001 A 
HETATM   18  C16 UNL     1      14.322   3.533  53.139  1.00  0.00     0.000 A 
HETATM   19  C17 UNL     1      14.306   2.187  52.924  1.00  0.00     0.001 A 
HETATM   20  C18 UNL     1      15.308   1.581  52.205  1.00  0.00     0.009 A 
ENDBRANCH  13  15
ENDBRANCH  11  13
ENDBRANCH   5  11
BRANCH   1  21
HETATM   21  C7  UNL     1      25.105   0.260  53.582  1.00  0.00     0.308 C 
BRANCH  21  22
HETATM   22  C5  UNL     1      26.236  -0.244  52.747  1.00  0.00    -0.055 C 
HETATM   23  C6  UNL     1      26.535   0.714  51.850  1.00  0.00     0.040 C 
BRANCH  22  24
HETATM   24  C4  UNL     1      27.024  -1.505  52.750  1.00  0.00    -0.021 C 
HETATM   25  C3  UNL     1      28.226  -1.044  53.160  1.00  0.00    -0.002 C 
BRANCH  25  26
HETATM   26  C2  UNL     1      29.544  -1.523  53.450  1.00  0.00    -0.006 C 
HETATM   27  C1  UNL     1      29.864  -0.213  53.618  1.00  0.00     0.038 C 
ENDBRANCH  25  26
ENDBRANCH  22  24
ENDBRANCH  21  22
ENDBRANCH   1  21
TORSDOF 7
ENDMDL
MODEL 6
REMARK VINA RESULT:      -6.9      2.772      4.417
REMARK  7 active torsions:
REMARK  status: ('A' for Active; 'I' for Inactive)
REMARK    1  A    between atoms: C2_2  and  C3_3 
REMARK    2  A    between atoms: C4_4  and  C5_5 
REMARK    3  A    between atoms: C5_5  and  C7_7 
REMARK    4  A    between atoms: C7_7  and  N1_8 
REMARK    5  A    between atoms: C10_12  and  N2_13 
REMARK    6  A    between atoms: N2_13  and  C11_14 
REMARK    7  A    between atoms: C11_14  and  C13_16 
ROOT
HETATM    1  N1  UNL     1      25.549   1.504  52.463  1.00  0.00     0.111 N 
HETATM    2  C8  UNL     1      24.326   1.868  51.764  1.00  0.00     0.279 C 
HETATM    3  C9  UNL     1      24.203   3.384  51.824  1.00  0.00     0.069 C 
HETATM    4  P1  UNL     1      23.482   4.124  50.303  1.00  0.00    -0.054 P 
HETATM    5  C10 UNL     1      24.927   5.027  49.511  1.00  0.00     0.124 C 
HETATM    6  N3  UNL     1      26.143   4.632  49.227  1.00  0.00    -0.225 NA
HETATM    7  C19 UNL     1      26.503   3.272  49.558  1.00  0.00     0.231 C 
HETATM    8  N4  UNL     1      26.370   2.920  50.750  1.00  0.00    -0.253 NA
HETATM    9  C20 UNL     1      26.629   1.685  51.399  1.00  0.00     0.422 C 
HETATM   10  H14 UNL     1      22.913   3.182  49.388  1.00  0.00     0.065 HD
ENDROOT
BRANCH   5  11
HETATM   11  N2  UNL     1      24.752   6.397  49.116  1.00  0.00    -0.366 N 
HETATM   12  H15 UNL     1      24.031   6.991  49.630  1.00  0.00     0.161 HD
BRANCH  11  13
HETATM   13  C11 UNL     1      25.472   7.043  48.081  1.00  0.00     0.112 C 
HETATM   14  C12 UNL     1      24.713   7.841  47.088  1.00  0.00     0.037 C 
BRANCH  13  15
HETATM   15  C13 UNL     1      26.609   7.862  48.603  1.00  0.00    -0.036 A 
HETATM   16  C14 UNL     1      26.474   8.558  49.818  1.00  0.00     0.009 A 
HETATM   17  C15 UNL     1      27.555   9.297  50.223  1.00  0.00     0.001 A 
HETATM   18  C16 UNL     1      28.753   9.440  49.578  1.00  0.00     0.000 A 
HETATM   19  C17 UNL     1      28.867   8.763  48.401  1.00  0.00     0.001 A 
HETATM   20  C18 UNL     1      27.827   7.997  47.931  1.00  0.00     0.009 A 
ENDBRANCH  13  15
ENDBRANCH  11  13
ENDBRANCH   5  11
BRANCH   1  21
HETATM   21  C7  UNL     1      25.669   0.157  52.898  1.00  0.00     0.308 C 
BRANCH  21  22
HETATM   22  C5  UNL     1      26.445   0.032  54.167  1.00  0.00    -0.055 C 
HETATM   23  C6  UNL     1      25.656  -0.586  55.065  1.00  0.00     0.040 C 
BRANCH  22  24
HETATM   24  C4  UNL     1      27.823   0.427  54.564  1.00  0.00    -0.021 C 
HETATM   25  C3  UNL     1      28.545  -0.513  53.918  1.00  0.00    -0.002 C 
BRANCH  25  26
HETATM   26  C2  UNL     1      29.908  -0.906  53.718  1.00  0.00    -0.006 C 
HETATM   27  C1  UNL     1      29.392  -2.098  53.320  1.00  0.00     0.038 C 
ENDBRANCH  25  26
ENDBRANCH  22  24
ENDBRANCH  21  22
ENDBRANCH   1  21
TORSDOF 7
ENDMDL
MODEL 7
REMARK VINA RESULT:      -6.9      5.389     10.695
REMARK  7 active torsions:
REMARK  status: ('A' for Active; 'I' for Inactive)
REMARK    1  A    between atoms: C2_2  and  C3_3 
REMARK    2  A    between atoms: C4_4  and  C5_5 
REMARK    3  A    between atoms: C5_5  and  C7_7 
REMARK    4  A    between atoms: C7_7  and  N1_8 
REMARK    5  A    between atoms: C10_12  and  N2_13 
REMARK    6  A    between atoms: N2_13  and  C11_14 
REMARK    7  A    between atoms: C11_14  and  C13_16 
ROOT
HETATM    1  N1  UNL     1      21.565   1.284  51.979  1.00  0.00     0.111 N 
HETATM    2  C8  UNL     1      20.625   0.802  50.979  1.00  0.00     0.279 C 
HETATM    3  C9  UNL     1      19.312   0.513  51.691  1.00  0.00     0.069 C 
HETATM    4  P1  UNL     1      17.826   0.909  50.683  1.00  0.00    -0.054 P 
HETATM    5  C10 UNL     1      17.087   2.412  51.537  1.00  0.00     0.124 C 
HETATM    6  N3  UNL     1      17.628   3.543  51.917  1.00  0.00    -0.225 NA
HETATM    7  C19 UNL     1      19.038   3.732  51.666  1.00  0.00     0.231 C 
HETATM    8  N4  UNL     1      19.822   2.881  52.139  1.00  0.00    -0.253 NA
HETATM    9  C20 UNL     1      21.235   2.772  52.084  1.00  0.00     0.422 C 
HETATM   10  H14 UNL     1      18.092   1.192  49.306  1.00  0.00     0.065 HD
ENDROOT
BRANCH   5  11
HETATM   11  N2  UNL     1      15.690   2.401  51.867  1.00  0.00    -0.366 N 
HETATM   12  H15 UNL     1      15.205   1.463  52.021  1.00  0.00     0.161 HD
BRANCH  11  13
HETATM   13  C11 UNL     1      14.879   3.554  52.011  1.00  0.00     0.112 C 
HETATM   14  C12 UNL     1      14.343   4.195  50.787  1.00  0.00     0.037 C 
BRANCH  13  15
HETATM   15  C13 UNL     1      13.764   3.348  52.985  1.00  0.00    -0.036 A 
HETATM   16  C14 UNL     1      13.197   4.450  53.648  1.00  0.00     0.009 A 
HETATM   17  C15 UNL     1      12.188   4.179  54.536  1.00  0.00     0.001 A 
HETATM   18  C16 UNL     1      11.670   2.954  54.856  1.00  0.00     0.000 A 
HETATM   19  C17 UNL     1      12.233   1.895  54.209  1.00  0.00     0.001 A 
HETATM   20  C18 UNL     1      13.247   2.087  53.301  1.00  0.00     0.009 A 
ENDBRANCH  13  15
ENDBRANCH  11  13
ENDBRANCH   5  11
BRANCH   1  21
HETATM   21  C7  UNL     1      22.945   1.226  51.651  1.00  0.00     0.308 C 
BRANCH  21  22
HETATM   22  C5  UNL     1      23.776   0.675  52.763  1.00  0.00    -0.055 C 
HETATM   23  C6  UNL     1      23.032  -0.243  53.408  1.00  0.00     0.040 C 
BRANCH  22  24
HETATM   24  C4  UNL     1      25.165   0.937  53.226  1.00  0.00    -0.021 C 
HETATM   25  C3  UNL     1      25.806  -0.128  52.700  1.00  0.00    -0.002 C 
BRANCH  25  26
HETATM   26  C2  UNL     1      27.120  -0.691  52.625  1.00  0.00    -0.006 C 
HETATM   27  C1  UNL     1      27.295  -0.174  53.869  1.00  0.00     0.038 C 
ENDBRANCH  25  26
ENDBRANCH  22  24
ENDBRANCH  21  22
ENDBRANCH   1  21
TORSDOF 7
ENDMDL
MODEL 8
REMARK VINA RESULT:      -6.8      1.587      9.668
REMARK  7 active torsions:
REMARK  status: ('A' for Active; 'I' for Inactive)
REMARK    1  A    between atoms: C2_2  and  C3_3 
REMARK    2  A    between atoms: C4_4  and  C5_5 
REMARK    3  A    between atoms: C5_5  and  C7_7 
REMARK    4  A    between atoms: C7_7  and  N1_8 
REMARK    5  A    between atoms: C10_12  and  N2_13 
REMARK    6  A    between atoms: N2_13  and  C11_14 
REMARK    7  A    between atoms: C11_14  and  C13_16 
ROOT
HETATM    1  N1  UNL     1      25.633   6.821  49.482  1.00  0.00     0.111 N 
HETATM    2  C8  UNL     1      25.293   5.478  49.039  1.00  0.00     0.279 C 
HETATM    3  C9  UNL     1      25.723   4.515  50.136  1.00  0.00     0.069 C 
HETATM    4  P1  UNL     1      24.588   3.085  50.348  1.00  0.00    -0.054 P 
HETATM    5  C10 UNL     1      23.755   3.410  52.002  1.00  0.00     0.124 C 
HETATM    6  N3  UNL     1      23.154   4.473  52.473  1.00  0.00    -0.225 NA
HETATM    7  C19 UNL     1      23.085   5.639  51.622  1.00  0.00     0.231 C 
HETATM    8  N4  UNL     1      24.165   6.101  51.196  1.00  0.00    -0.253 NA
HETATM    9  C20 UNL     1      24.447   7.212  50.362  1.00  0.00     0.422 C 
HETATM   10  H14 UNL     1      23.610   2.935  49.314  1.00  0.00     0.065 HD
ENDROOT
BRANCH   5  11
HETATM   11  N2  UNL     1      23.730   2.358  52.980  1.00  0.00    -0.366 N 
HETATM   12  H15 UNL     1      23.581   2.614  54.005  1.00  0.00     0.161 HD
BRANCH  11  13
HETATM   13  C11 UNL     1      23.886   0.980  52.697  1.00  0.00     0.112 C 
HETATM   14  C12 UNL     1      25.171   0.329  53.051  1.00  0.00     0.037 C 
BRANCH  13  15
HETATM   15  C13 UNL     1      22.757   0.157  53.229  1.00  0.00    -0.036 A 
HETATM   16  C14 UNL     1      23.007  -0.849  54.179  1.00  0.00     0.009 A 
HETATM   17  C15 UNL     1      21.922  -1.569  54.608  1.00  0.00     0.001 A 
HETATM   18  C16 UNL     1      20.620  -1.424  54.214  1.00  0.00     0.000 A 
HETATM   19  C17 UNL     1      20.394  -0.448  53.291  1.00  0.00     0.001 A 
HETATM   20  C18 UNL     1      21.431   0.318  52.815  1.00  0.00     0.009 A 
ENDBRANCH  13  15
ENDBRANCH  11  13
ENDBRANCH   5  11
BRANCH   1  21
HETATM   21  C7  UNL     1      25.712   7.830  48.485  1.00  0.00     0.308 C 
BRANCH  21  22
HETATM   22  C5  UNL     1      27.120   8.153  48.107  1.00  0.00    -0.055 C 
HETATM   23  C6  UNL     1      27.484   9.250  48.797  1.00  0.00     0.040 C 
BRANCH  22  24
HETATM   24  C4  UNL     1      28.102   7.516  47.189  1.00  0.00    -0.021 C 
HETATM   25  C3  UNL     1      28.680   6.627  48.025  1.00  0.00    -0.002 C 
BRANCH  25  26
HETATM   26  C2  UNL     1      29.690   5.612  48.021  1.00  0.00    -0.006 C 
HETATM   27  C1  UNL     1      30.486   6.559  47.459  1.00  0.00     0.038 C 
ENDBRANCH  25  26
ENDBRANCH  22  24
ENDBRANCH  21  22
ENDBRANCH   1  21
TORSDOF 7
ENDMDL
MODEL 9
REMARK VINA RESULT:      -6.8      4.352      6.751
REMARK  7 active torsions:
REMARK  status: ('A' for Active; 'I' for Inactive)
REMARK    1  A    between atoms: C2_2  and  C3_3 
REMARK    2  A    between atoms: C4_4  and  C5_5 
REMARK    3  A    between atoms: C5_5  and  C7_7 
REMARK    4  A    between atoms: C7_7  and  N1_8 
REMARK    5  A    between atoms: C10_12  and  N2_13 
REMARK    6  A    between atoms: N2_13  and  C11_14 
REMARK    7  A    between atoms: C11_14  and  C13_16 
ROOT
HETATM    1  N1  UNL     1      24.073   0.244  52.860  1.00  0.00     0.111 N 
HETATM    2  C8  UNL     1      24.125   1.691  52.993  1.00  0.00     0.279 C 
HETATM    3  C9  UNL     1      23.371   2.284  51.812  1.00  0.00     0.069 C 
HETATM    4  P1  UNL     1      22.432   3.808  52.228  1.00  0.00    -0.054 P 
HETATM    5  C10 UNL     1      20.633   3.270  52.137  1.00  0.00     0.124 C 
HETATM    6  N3  UNL     1      20.007   2.253  52.674  1.00  0.00    -0.225 NA
HETATM    7  C19 UNL     1      20.778   1.344  53.492  1.00  0.00     0.231 C 
HETATM    8  N4  UNL     1      21.774   0.806  52.964  1.00  0.00    -0.253 NA
HETATM    9  C20 UNL     1      22.722  -0.118  53.474  1.00  0.00     0.422 C 
HETATM   10  H14 UNL     1      22.727   4.364  53.513  1.00  0.00     0.065 HD
ENDROOT
BRANCH   5  11
HETATM   11  N2  UNL     1      19.715   4.057  51.363  1.00  0.00    -0.366 N 
HETATM   12  H15 UNL     1      19.317   4.950  51.790  1.00  0.00     0.161 HD
BRANCH  11  13
HETATM   13  C11 UNL     1      19.282   3.745  50.051  1.00  0.00     0.112 C 
HETATM   14  C12 UNL     1      18.546   4.781  49.287  1.00  0.00     0.037 C 
BRANCH  13  15
HETATM   15  C13 UNL     1      20.385   3.201  49.201  1.00  0.00    -0.036 A 
HETATM   16  C14 UNL     1      20.570   1.811  49.095  1.00  0.00     0.009 A 
HETATM   17  C15 UNL     1      21.611   1.390  48.308  1.00  0.00     0.001 A 
HETATM   18  C16 UNL     1      22.498   2.169  47.616  1.00  0.00     0.000 A 
HETATM   19  C17 UNL     1      22.308   3.513  47.732  1.00  0.00     0.001 A 
HETATM   20  C18 UNL     1      21.283   4.012  48.500  1.00  0.00     0.009 A 
ENDBRANCH  13  15
ENDBRANCH  11  13
ENDBRANCH   5  11
BRANCH   1  21
HETATM   21  C7  UNL     1      25.033  -0.508  53.588  1.00  0.00     0.308 C 
BRANCH  21  22
HETATM   22  C5  UNL     1      26.351  -0.585  52.891  1.00  0.00    -0.055 C 
HETATM   23  C6  UNL     1      26.482  -1.834  52.409  1.00  0.00     0.040 C 
BRANCH  22  24
HETATM   24  C4  UNL     1      27.438   0.402  52.651  1.00  0.00    -0.021 C 
HETATM   25  C3  UNL     1      28.433  -0.145  53.381  1.00  0.00    -0.002 C 
BRANCH  25  26
HETATM   26  C2  UNL     1      29.802   0.096  53.725  1.00  0.00    -0.006 C 
HETATM   27  C1  UNL     1      29.342   1.237  54.303  1.00  0.00     0.038 C 
ENDBRANCH  25  26
ENDBRANCH  22  24
ENDBRANCH  21  22
ENDBRANCH   1  21
TORSDOF 7
ENDMDL
