MODEL 1
REMARK VINA RESULT:      -8.4      0.000      0.000
REMARK  6 active torsions:
REMARK  status: ('A' for Active; 'I' for Inactive)
REMARK    1  A    between atoms: C5_6  and  N2_7 
REMARK    2  A    between atoms: N2_7  and  C6_8 
REMARK    3  A    between atoms: C8_10  and  S1_11 
REMARK    4  A    between atoms: S1_11  and  N3_12 
REMARK    5  A    between atoms: S1_11  and  P1_14 
REMARK    6  A    between atoms: C13_23  and  N7_24 
ROOT
HETATM    1  C1  UNL     1      24.325   0.001  53.735  1.00  0.00     0.051 C 
HETATM    2  C2  UNL     1      25.188   0.912  52.937  1.00  0.00    -0.020 A 
HETATM    3  C3  UNL     1      24.752   1.559  51.775  1.00  0.00     0.097 A 
HETATM    4  C4  UNL     1      23.382   1.300  51.363  1.00  0.00     0.104 C 
HETATM    5  N1  UNL     1      22.287   1.099  51.016  1.00  0.00    -0.191 NA
HETATM    6  C5  UNL     1      25.566   2.401  51.045  1.00  0.00     0.152 A 
HETATM    7  N4  UNL     1      26.830   2.632  51.437  1.00  0.00    -0.209 NA
HETATM    8  C11 UNL     1      27.314   2.045  52.543  1.00  0.00     0.167 A 
HETATM    9  N5  UNL     1      28.597   2.288  52.927  1.00  0.00    -0.221 NA
HETATM   10  C12 UNL     1      29.091   1.695  54.046  1.00  0.00     0.237 A 
HETATM   11  N6  UNL     1      28.313   0.857  54.790  1.00  0.00    -0.229 NA
HETATM   12  C13 UNL     1      27.034   0.622  54.394  1.00  0.00     0.116 A 
HETATM   13  C14 UNL     1      26.496   1.205  53.266  1.00  0.00     0.059 A 
ENDROOT
BRANCH   6  14
HETATM   14  N2  UNL     1      25.078   3.040  49.865  1.00  0.00    -0.339 N 
HETATM   15  H4  UNL     1      24.881   2.568  48.945  1.00  0.00     0.167 HD
BRANCH  14  16
HETATM   16  C6  UNL     1      24.852   4.433  49.986  1.00  0.00     0.050 C 
HETATM   17  C7  UNL     1      25.290   5.359  49.170  1.00  0.00     0.050 C 
HETATM   18  C8  UNL     1      25.658   6.537  49.611  1.00  0.00     0.161 C 
HETATM   19  O2  UNL     1      24.912   7.049  50.670  1.00  0.00    -0.312 OA
HETATM   20  C9  UNL     1      24.082   6.247  51.450  1.00  0.00     0.145 C 
HETATM   21  C10 UNL     1      24.065   4.968  51.100  1.00  0.00     0.055 C 
BRANCH  18  22
HETATM   22  S1  UNL     1      27.002   7.409  48.912  1.00  0.00     0.081 S 
HETATM   23  O1  UNL     1      26.751   7.742  47.469  1.00  0.00    -0.244 OA
BRANCH  22  24
HETATM   24  N3  UNL     1      28.452   6.457  48.973  1.00  0.00    -0.254 NA
HETATM   25  H5  UNL     1      28.269   5.488  49.310  1.00  0.00     0.133 HD
HETATM   26  H6  UNL     1      29.239   6.939  49.443  1.00  0.00     0.133 HD
ENDBRANCH  22  24
BRANCH  22  27
HETATM   27  P1  UNL     1      27.294   9.087  49.821  1.00  0.00     0.018 P 
HETATM   28  H7  UNL     1      27.703  10.224  48.999  1.00  0.00     0.077 HD
ENDBRANCH  22  27
ENDBRANCH  18  22
ENDBRANCH  14  16
ENDBRANCH   6  14
BRANCH  12  29
HETATM   29  N7  UNL     1      26.293  -0.252  55.212  1.00  0.00    -0.286 NA
HETATM   30  H11 UNL     1      25.608  -1.011  54.920  1.00  0.00     0.125 HD
HETATM   31  H12 UNL     1      25.708  -0.883  54.595  1.00  0.00     0.125 HD
ENDBRANCH  12  29
TORSDOF 6
ENDMDL
MODEL 2
REMARK VINA RESULT:      -8.3      1.732      2.114
REMARK  6 active torsions:
REMARK  status: ('A' for Active; 'I' for Inactive)
REMARK    1  A    between atoms: C5_6  and  N2_7 
REMARK    2  A    between atoms: N2_7  and  C6_8 
REMARK    3  A    between atoms: C8_10  and  S1_11 
REMARK    4  A    between atoms: S1_11  and  N3_12 
REMARK    5  A    between atoms: S1_11  and  P1_14 
REMARK    6  A    between atoms: C13_23  and  N7_24 
ROOT
HETATM    1  C1  UNL     1      24.247  -0.027  53.719  1.00  0.00     0.051 C 
HETATM    2  C2  UNL     1      25.196   0.853  52.987  1.00  0.00    -0.020 A 
HETATM    3  C3  UNL     1      24.845   1.571  51.837  1.00  0.00     0.097 A 
HETATM    4  C4  UNL     1      23.478   1.418  51.369  1.00  0.00     0.104 C 
HETATM    5  N1  UNL     1      22.386   1.304  50.977  1.00  0.00    -0.191 NA
HETATM    6  C5  UNL     1      25.739   2.383  51.169  1.00  0.00     0.152 A 
HETATM    7  N4  UNL     1      27.000   2.515  51.612  1.00  0.00    -0.209 NA
HETATM    8  C11 UNL     1      27.404   1.856  52.710  1.00  0.00     0.167 A 
HETATM    9  N5  UNL     1      28.685   2.000  53.146  1.00  0.00    -0.221 NA
HETATM   10  C12 UNL     1      29.099   1.334  54.258  1.00  0.00     0.237 A 
HETATM   11  N6  UNL     1      28.242   0.522  54.942  1.00  0.00    -0.229 NA
HETATM   12  C13 UNL     1      26.965   0.388  54.494  1.00  0.00     0.116 A 
HETATM   13  C14 UNL     1      26.508   1.046  53.371  1.00  0.00     0.059 A 
ENDROOT
BRANCH   6  14
HETATM   14  N2  UNL     1      25.336   3.097  49.999  1.00  0.00    -0.339 N 
HETATM   15  H4  UNL     1      24.603   2.786  49.309  1.00  0.00     0.167 HD
BRANCH  14  16
HETATM   16  C6  UNL     1      26.008   4.324  49.784  1.00  0.00     0.050 C 
HETATM   17  C7  UNL     1      25.687   5.481  50.310  1.00  0.00     0.050 C 
HETATM   18  C8  UNL     1      25.829   6.597  49.639  1.00  0.00     0.161 C 
HETATM   19  O2  UNL     1      26.942   6.665  48.803  1.00  0.00    -0.312 OA
HETATM   20  C9  UNL     1      27.650   5.530  48.415  1.00  0.00     0.145 C 
HETATM   21  C10 UNL     1      27.178   4.393  48.906  1.00  0.00     0.055 C 
BRANCH  18  22
HETATM   22  S1  UNL     1      24.692   7.917  49.784  1.00  0.00     0.081 S 
HETATM   23  O1  UNL     1      25.387   9.248  49.741  1.00  0.00    -0.244 OA
BRANCH  22  24
HETATM   24  N3  UNL     1      23.841   7.832  51.295  1.00  0.00    -0.254 NA
HETATM   25  H5  UNL     1      24.490   7.729  52.104  1.00  0.00     0.133 HD
HETATM   26  H6  UNL     1      23.051   7.163  51.283  1.00  0.00     0.133 HD
ENDBRANCH  22  24
BRANCH  22  27
HETATM   27  P1  UNL     1      23.425   7.911  48.329  1.00  0.00     0.018 P 
HETATM   28  H7  UNL     1      23.080   9.205  47.743  1.00  0.00     0.077 HD
ENDBRANCH  22  27
ENDBRANCH  18  22
ENDBRANCH  14  16
ENDBRANCH   6  14
BRANCH  12  29
HETATM   29  N7  UNL     1      26.139  -0.465  55.251  1.00  0.00    -0.286 NA
HETATM   30  H11 UNL     1      25.611  -0.251  56.148  1.00  0.00     0.125 HD
HETATM   31  H12 UNL     1      25.771   0.070  56.087  1.00  0.00     0.125 HD
ENDBRANCH  12  29
TORSDOF 6
ENDMDL
MODEL 3
REMARK VINA RESULT:      -8.2      1.979      3.692
REMARK  6 active torsions:
REMARK  status: ('A' for Active; 'I' for Inactive)
REMARK    1  A    between atoms: C5_6  and  N2_7 
REMARK    2  A    between atoms: N2_7  and  C6_8 
REMARK    3  A    between atoms: C8_10  and  S1_11 
REMARK    4  A    between atoms: S1_11  and  N3_12 
REMARK    5  A    between atoms: S1_11  and  P1_14 
REMARK    6  A    between atoms: C13_23  and  N7_24 
ROOT
HETATM    1  C1  UNL     1      26.413  -0.059  54.843  1.00  0.00     0.051 C 
HETATM    2  C2  UNL     1      25.275   0.184  53.917  1.00  0.00    -0.020 A 
HETATM    3  C3  UNL     1      25.372   0.995  52.779  1.00  0.00     0.097 A 
HETATM    4  C4  UNL     1      26.664   1.611  52.530  1.00  0.00     0.104 C 
HETATM    5  N1  UNL     1      27.693   2.117  52.317  1.00  0.00    -0.191 NA
HETATM    6  C5  UNL     1      24.306   1.210  51.930  1.00  0.00     0.152 A 
HETATM    7  N4  UNL     1      23.117   0.634  52.172  1.00  0.00    -0.209 NA
HETATM    8  C11 UNL     1      22.953  -0.156  53.245  1.00  0.00     0.167 A 
HETATM    9  N5  UNL     1      21.742  -0.732  53.477  1.00  0.00    -0.221 NA
HETATM   10  C12 UNL     1      21.573  -1.533  54.563  1.00  0.00     0.237 A 
HETATM   11  N6  UNL     1      22.605  -1.767  55.424  1.00  0.00    -0.229 NA
HETATM   12  C13 UNL     1      23.809  -1.184  55.179  1.00  0.00     0.116 A 
HETATM   13  C14 UNL     1      24.021  -0.366  54.089  1.00  0.00     0.059 A 
ENDROOT
BRANCH   6  14
HETATM   14  N2  UNL     1      24.451   2.046  50.781  1.00  0.00    -0.339 N 
HETATM   15  H4  UNL     1      24.811   1.742  49.839  1.00  0.00     0.167 HD
BRANCH  14  16
HETATM   16  C6  UNL     1      24.064   3.395  50.967  1.00  0.00     0.050 C 
HETATM   17  C7  UNL     1      24.245   4.374  50.116  1.00  0.00     0.050 C 
HETATM   18  C8  UNL     1      24.517   5.590  50.523  1.00  0.00     0.161 C 
HETATM   19  O2  UNL     1      23.880   5.993  51.695  1.00  0.00    -0.312 OA
HETATM   20  C9  UNL     1      23.294   5.084  52.573  1.00  0.00     0.145 C 
HETATM   21  C10 UNL     1      23.393   3.817  52.200  1.00  0.00     0.055 C 
BRANCH  18  22
HETATM   22  S1  UNL     1      25.610   6.636  49.650  1.00  0.00     0.081 S 
HETATM   23  O1  UNL     1      26.702   5.853  48.978  1.00  0.00    -0.244 OA
BRANCH  22  24
HETATM   24  N3  UNL     1      26.376   7.763  50.726  1.00  0.00    -0.254 NA
HETATM   25  H5  UNL     1      26.146   8.751  50.484  1.00  0.00     0.133 HD
HETATM   26  H6  UNL     1      27.384   7.573  50.868  1.00  0.00     0.133 HD
ENDBRANCH  22  24
BRANCH  22  27
HETATM   27  P1  UNL     1      24.688   7.602  48.256  1.00  0.00     0.018 P 
HETATM   28  H7  UNL     1      23.347   8.097  48.567  1.00  0.00     0.077 HD
ENDBRANCH  22  27
ENDBRANCH  18  22
ENDBRANCH  14  16
ENDBRANCH   6  14
BRANCH  12  29
HETATM   29  N7  UNL     1      24.826  -1.472  56.109  1.00  0.00    -0.286 NA
HETATM   30  H11 UNL     1      25.064  -0.961  57.010  1.00  0.00     0.125 HD
HETATM   31  H12 UNL     1      24.783  -0.762  56.893  1.00  0.00     0.125 HD
ENDBRANCH  12  29
TORSDOF 6
ENDMDL
MODEL 4
REMARK VINA RESULT:      -8.2      1.894      2.287
REMARK  6 active torsions:
REMARK  status: ('A' for Active; 'I' for Inactive)
REMARK    1  A    between atoms: C5_6  and  N2_7 
REMARK    2  A    between atoms: N2_7  and  C6_8 
REMARK    3  A    between atoms: C8_10  and  S1_11 
REMARK    4  A    between atoms: S1_11  and  N3_12 
REMARK    5  A    between atoms: S1_11  and  P1_14 
REMARK    6  A    between atoms: C13_23  and  N7_24 
ROOT
HETATM    1  C1  UNL     1      22.689  -1.036  54.438  1.00  0.00     0.051 C 
HETATM    2  C2  UNL     1      23.506  -0.164  53.552  1.00  0.00    -0.020 A 
HETATM    3  C3  UNL     1      22.982   0.503  52.438  1.00  0.00     0.097 A 
HETATM    4  C4  UNL     1      21.567   0.307  52.170  1.00  0.00     0.104 C 
HETATM    5  N1  UNL     1      20.435   0.157  51.938  1.00  0.00    -0.191 NA
HETATM    6  C5  UNL     1      23.755   1.308  51.626  1.00  0.00     0.152 A 
HETATM    7  N4  UNL     1      25.061   1.481  51.885  1.00  0.00    -0.209 NA
HETATM    8  C11 UNL     1      25.629   0.870  52.938  1.00  0.00     0.167 A 
HETATM    9  N5  UNL     1      26.954   1.055  53.187  1.00  0.00    -0.221 NA
HETATM   10  C12 UNL     1      27.533   0.439  54.252  1.00  0.00     0.237 A 
HETATM   11  N6  UNL     1      26.799  -0.364  55.075  1.00  0.00    -0.229 NA
HETATM   12  C13 UNL     1      25.476  -0.539  54.813  1.00  0.00     0.116 A 
HETATM   13  C14 UNL     1      24.853   0.068  53.744  1.00  0.00     0.059 A 
ENDROOT
BRANCH   6  14
HETATM   14  N2  UNL     1      23.177   1.970  50.499  1.00  0.00    -0.339 N 
HETATM   15  H4  UNL     1      22.865   1.508  49.606  1.00  0.00     0.167 HD
BRANCH  14  16
HETATM   16  C6  UNL     1      23.030   3.372  50.638  1.00  0.00     0.050 C 
HETATM   17  C7  UNL     1      23.535   4.282  49.843  1.00  0.00     0.050 C 
HETATM   18  C8  UNL     1      23.963   5.430  50.307  1.00  0.00     0.161 C 
HETATM   19  O2  UNL     1      23.229   5.970  51.361  1.00  0.00    -0.312 OA
HETATM   20  C9  UNL     1      22.341   5.206  52.115  1.00  0.00     0.145 C 
HETATM   21  C10 UNL     1      22.257   3.936  51.747  1.00  0.00     0.055 C 
BRANCH  18  22
HETATM   22  S1  UNL     1      25.367   6.233  49.644  1.00  0.00     0.081 S 
HETATM   23  O1  UNL     1      26.436   5.247  49.265  1.00  0.00    -0.244 OA
BRANCH  22  24
HETATM   24  N3  UNL     1      26.061   7.320  50.806  1.00  0.00    -0.254 NA
HETATM   25  H5  UNL     1      25.519   7.338  51.696  1.00  0.00     0.133 HD
HETATM   26  H6  UNL     1      26.284   8.251  50.413  1.00  0.00     0.133 HD
ENDBRANCH  22  24
BRANCH  22  27
HETATM   27  P1  UNL     1      24.921   7.206  48.037  1.00  0.00     0.018 P 
HETATM   28  H7  UNL     1      23.809   8.151  48.121  1.00  0.00     0.077 HD
ENDBRANCH  22  27
ENDBRANCH  18  22
ENDBRANCH  14  16
ENDBRANCH   6  14
BRANCH  12  29
HETATM   29  N7  UNL     1      24.784  -1.380  55.706  1.00  0.00    -0.286 NA
HETATM   30  H11 UNL     1      24.627  -2.430  55.641  1.00  0.00     0.125 HD
HETATM   31  H12 UNL     1      24.820  -2.372  55.338  1.00  0.00     0.125 HD
ENDBRANCH  12  29
TORSDOF 6
ENDMDL
MODEL 5
REMARK VINA RESULT:      -7.7      2.839      5.204
REMARK  6 active torsions:
REMARK  status: ('A' for Active; 'I' for Inactive)
REMARK    1  A    between atoms: C5_6  and  N2_7 
REMARK    2  A    between atoms: N2_7  and  C6_8 
REMARK    3  A    between atoms: C8_10  and  S1_11 
REMARK    4  A    between atoms: S1_11  and  N3_12 
REMARK    5  A    between atoms: S1_11  and  P1_14 
REMARK    6  A    between atoms: C13_23  and  N7_24 
ROOT
HETATM    1  C1  UNL     1      23.200  -1.315  55.266  1.00  0.00     0.051 C 
HETATM    2  C2  UNL     1      23.240  -0.511  54.016  1.00  0.00    -0.020 A 
HETATM    3  C3  UNL     1      24.418   0.035  53.492  1.00  0.00     0.097 A 
HETATM    4  C4  UNL     1      25.638  -0.219  54.239  1.00  0.00     0.104 C 
HETATM    5  N1  UNL     1      26.626  -0.408  54.828  1.00  0.00    -0.191 NA
HETATM    6  C5  UNL     1      24.437   0.779  52.330  1.00  0.00     0.152 A 
HETATM    7  N4  UNL     1      23.302   1.006  51.649  1.00  0.00    -0.209 NA
HETATM    8  C11 UNL     1      22.135   0.511  52.094  1.00  0.00     0.167 A 
HETATM    9  N5  UNL     1      20.993   0.750  51.393  1.00  0.00    -0.221 NA
HETATM   10  C12 UNL     1      19.810   0.250  51.840  1.00  0.00     0.237 A 
HETATM   11  N6  UNL     1      19.755  -0.489  52.986  1.00  0.00    -0.229 NA
HETATM   12  C13 UNL     1      20.904  -0.719  53.676  1.00  0.00     0.116 A 
HETATM   13  C14 UNL     1      22.123  -0.230  53.255  1.00  0.00     0.059 A 
ENDROOT
BRANCH   6  14
HETATM   14  N2  UNL     1      25.663   1.318  51.833  1.00  0.00    -0.339 N 
HETATM   15  H4  UNL     1      26.599   0.836  51.849  1.00  0.00     0.167 HD
BRANCH  14  16
HETATM   16  C6  UNL     1      25.566   2.617  51.279  1.00  0.00     0.050 C 
HETATM   17  C7  UNL     1      24.677   3.525  51.593  1.00  0.00     0.050 C 
HETATM   18  C8  UNL     1      24.191   4.344  50.693  1.00  0.00     0.161 C 
HETATM   19  O2  UNL     1      25.088   4.771  49.715  1.00  0.00    -0.312 OA
HETATM   20  C9  UNL     1      26.293   4.116  49.476  1.00  0.00     0.145 C 
HETATM   21  C10 UNL     1      26.511   3.063  50.251  1.00  0.00     0.055 C 
BRANCH  18  22
HETATM   22  S1  UNL     1      22.524   4.867  50.719  1.00  0.00     0.081 S 
HETATM   23  O1  UNL     1      22.118   5.343  52.085  1.00  0.00    -0.244 OA
BRANCH  22  24
HETATM   24  N3  UNL     1      21.462   3.561  50.296  1.00  0.00    -0.254 NA
HETATM   25  H5  UNL     1      21.204   3.580  49.286  1.00  0.00     0.133 HD
HETATM   26  H6  UNL     1      20.663   3.455  50.946  1.00  0.00     0.133 HD
ENDBRANCH  22  24
BRANCH  22  27
HETATM   27  P1  UNL     1      22.238   6.348  49.514  1.00  0.00     0.018 P 
HETATM   28  H7  UNL     1      22.198   6.042  48.084  1.00  0.00     0.077 HD
ENDBRANCH  22  27
ENDBRANCH  18  22
ENDBRANCH  14  16
ENDBRANCH   6  14
BRANCH  12  29
HETATM   29  N7  UNL     1      20.769  -1.490  54.846  1.00  0.00    -0.286 NA
HETATM   30  H11 UNL     1      21.492  -1.678  55.603  1.00  0.00     0.125 HD
HETATM   31  H12 UNL     1      21.684  -1.467  55.377  1.00  0.00     0.125 HD
ENDBRANCH  12  29
TORSDOF 6
ENDMDL
MODEL 6
REMARK VINA RESULT:      -7.5      2.269      3.518
REMARK  6 active torsions:
REMARK  status: ('A' for Active; 'I' for Inactive)
REMARK    1  A    between atoms: C5_6  and  N2_7 
REMARK    2  A    between atoms: N2_7  and  C6_8 
REMARK    3  A    between atoms: C8_10  and  S1_11 
REMARK    4  A    between atoms: S1_11  and  N3_12 
REMARK    5  A    between atoms: S1_11  and  P1_14 
REMARK    6  A    between atoms: C13_23  and  N7_24 
ROOT
HETATM    1  C1  UNL     1      27.670   1.981  53.031  1.00  0.00     0.051 C 
HETATM    2  C2  UNL     1      26.284   1.484  52.825  1.00  0.00    -0.020 A 
HETATM    3  C3  UNL     1      25.484   1.869  51.742  1.00  0.00     0.097 A 
HETATM    4  C4  UNL     1      26.074   2.803  50.799  1.00  0.00     0.104 C 
HETATM    5  N1  UNL     1      26.531   3.556  50.035  1.00  0.00    -0.191 NA
HETATM    6  C5  UNL     1      24.199   1.398  51.566  1.00  0.00     0.152 A 
HETATM    7  N4  UNL     1      23.664   0.534  52.446  1.00  0.00    -0.209 NA
HETATM    8  C11 UNL     1      24.376   0.122  53.507  1.00  0.00     0.167 A 
HETATM    9  N5  UNL     1      23.821  -0.753  54.390  1.00  0.00    -0.221 NA
HETATM   10  C12 UNL     1      24.539  -1.173  55.466  1.00  0.00     0.237 A 
HETATM   11  N6  UNL     1      25.812  -0.726  55.671  1.00  0.00    -0.229 NA
HETATM   12  C13 UNL     1      26.353   0.148  54.781  1.00  0.00     0.116 A 
HETATM   13  C14 UNL     1      25.658   0.597  53.678  1.00  0.00     0.059 A 
ENDROOT
BRANCH   6  14
HETATM   14  N2  UNL     1      23.418   1.819  50.446  1.00  0.00    -0.339 N 
HETATM   15  H4  UNL     1      23.376   1.340  49.509  1.00  0.00     0.167 HD
BRANCH  14  16
HETATM   16  C6  UNL     1      22.648   2.988  50.658  1.00  0.00     0.050 C 
HETATM   17  C7  UNL     1      22.828   4.146  50.074  1.00  0.00     0.050 C 
HETATM   18  C8  UNL     1      22.620   5.271  50.713  1.00  0.00     0.161 C 
HETATM   19  O2  UNL     1      21.555   5.271  51.611  1.00  0.00    -0.312 OA
HETATM   20  C9  UNL     1      20.979   4.092  52.079  1.00  0.00     0.145 C 
HETATM   21  C10 UNL     1      21.527   2.984  51.602  1.00  0.00     0.055 C 
BRANCH  18  22
HETATM   22  S1  UNL     1      23.618   6.682  50.454  1.00  0.00     0.081 S 
HETATM   23  O1  UNL     1      24.677   6.425  49.419  1.00  0.00    -0.244 OA
BRANCH  22  24
HETATM   24  N3  UNL     1      24.432   7.139  51.917  1.00  0.00    -0.254 NA
HETATM   25  H5  UNL     1      25.377   6.704  51.990  1.00  0.00     0.133 HD
HETATM   26  H6  UNL     1      23.843   7.039  52.763  1.00  0.00     0.133 HD
ENDBRANCH  22  24
BRANCH  22  27
HETATM   27  P1  UNL     1      22.570   8.170  49.809  1.00  0.00     0.018 P 
HETATM   28  H7  UNL     1      22.386   9.297  50.722  1.00  0.00     0.077 HD
ENDBRANCH  22  27
ENDBRANCH  18  22
ENDBRANCH  14  16
ENDBRANCH   6  14
BRANCH  12  29
HETATM   29  N7  UNL     1      27.670   0.563  55.057  1.00  0.00    -0.286 NA
HETATM   30  H11 UNL     1      28.525   0.518  54.428  1.00  0.00     0.125 HD
HETATM   31  H12 UNL     1      28.273   0.374  54.208  1.00  0.00     0.125 HD
ENDBRANCH  12  29
TORSDOF 6
ENDMDL
MODEL 7
REMARK VINA RESULT:      -7.4      2.663      3.562
REMARK  6 active torsions:
REMARK  status: ('A' for Active; 'I' for Inactive)
REMARK    1  A    between atoms: C5_6  and  N2_7 
REMARK    2  A    between atoms: N2_7  and  C6_8 
REMARK    3  A    between atoms: C8_10  and  S1_11 
REMARK    4  A    between atoms: S1_11  and  N3_12 
REMARK    5  A    between atoms: S1_11  and  P1_14 
REMARK    6  A    between atoms: C13_23  and  N7_24 
ROOT
HETATM    1  C1  UNL     1      22.493  -1.419  55.190  1.00  0.00     0.051 C 
HETATM    2  C2  UNL     1      22.998  -0.568  54.080  1.00  0.00    -0.020 A 
HETATM    3  C3  UNL     1      22.163   0.007  53.113  1.00  0.00     0.097 A 
HETATM    4  C4  UNL     1      20.742  -0.269  53.238  1.00  0.00     0.104 C 
HETATM    5  N1  UNL     1      19.598  -0.483  53.319  1.00  0.00    -0.191 NA
HETATM    6  C5  UNL     1      22.648   0.794  52.089  1.00  0.00     0.152 A 
HETATM    7  N4  UNL     1      23.964   1.041  51.986  1.00  0.00    -0.209 NA
HETATM    8  C11 UNL     1      24.822   0.522  52.879  1.00  0.00     0.167 A 
HETATM    9  N5  UNL     1      26.153   0.780  52.761  1.00  0.00    -0.221 NA
HETATM   10  C12 UNL     1      27.025   0.257  53.663  1.00  0.00     0.237 A 
HETATM   11  N6  UNL     1      26.580  -0.526  54.688  1.00  0.00    -0.229 NA
HETATM   12  C13 UNL     1      25.248  -0.776  54.793  1.00  0.00     0.116 A 
HETATM   13  C14 UNL     1      24.332  -0.264  53.898  1.00  0.00     0.059 A 
ENDROOT
BRANCH   6  14
HETATM   14  N2  UNL     1      21.758   1.359  51.125  1.00  0.00    -0.339 N 
HETATM   15  H4  UNL     1      20.707   1.367  51.186  1.00  0.00     0.167 HD
BRANCH  14  16
HETATM   16  C6  UNL     1      22.387   1.951  50.003  1.00  0.00     0.050 C 
HETATM   17  C7  UNL     1      23.367   2.819  50.037  1.00  0.00     0.050 C 
HETATM   18  C8  UNL     1      23.450   3.789  49.159  1.00  0.00     0.161 C 
HETATM   19  O2  UNL     1      23.045   3.470  47.864  1.00  0.00    -0.312 OA
HETATM   20  C9  UNL     1      22.273   2.346  47.583  1.00  0.00     0.145 C 
HETATM   21  C10 UNL     1      21.960   1.614  48.642  1.00  0.00     0.055 C 
BRANCH  18  22
HETATM   22  S1  UNL     1      24.031   5.380  49.588  1.00  0.00     0.081 S 
HETATM   23  O1  UNL     1      24.236   6.237  48.370  1.00  0.00    -0.244 OA
BRANCH  22  24
HETATM   24  N3  UNL     1      25.559   5.278  50.404  1.00  0.00    -0.254 NA
HETATM   25  H5  UNL     1      25.624   4.429  51.006  1.00  0.00     0.133 HD
HETATM   26  H6  UNL     1      25.836   6.161  50.868  1.00  0.00     0.133 HD
ENDBRANCH  22  24
BRANCH  22  27
HETATM   27  P1  UNL     1      22.763   6.309  50.707  1.00  0.00     0.018 P 
HETATM   28  H7  UNL     1      23.308   7.147  51.774  1.00  0.00     0.077 HD
ENDBRANCH  22  27
ENDBRANCH  18  22
ENDBRANCH  14  16
ENDBRANCH   6  14
BRANCH  12  29
HETATM   29  N7  UNL     1      24.863  -1.591  55.875  1.00  0.00    -0.286 NA
HETATM   30  H11 UNL     1      25.277  -1.632  56.854  1.00  0.00     0.125 HD
HETATM   31  H12 UNL     1      25.487  -1.376  56.703  1.00  0.00     0.125 HD
ENDBRANCH  12  29
TORSDOF 6
ENDMDL
MODEL 8
REMARK VINA RESULT:      -7.4      3.427      6.072
REMARK  6 active torsions:
REMARK  status: ('A' for Active; 'I' for Inactive)
REMARK    1  A    between atoms: C5_6  and  N2_7 
REMARK    2  A    between atoms: N2_7  and  C6_8 
REMARK    3  A    between atoms: C8_10  and  S1_11 
REMARK    4  A    between atoms: S1_11  and  N3_12 
REMARK    5  A    between atoms: S1_11  and  P1_14 
REMARK    6  A    between atoms: C13_23  and  N7_24 
ROOT
HETATM    1  C1  UNL     1      19.569  -1.208  53.799  1.00  0.00     0.051 C 
HETATM    2  C2  UNL     1      20.565  -0.445  53.000  1.00  0.00    -0.020 A 
HETATM    3  C3  UNL     1      21.911  -0.324  53.366  1.00  0.00     0.097 A 
HETATM    4  C4  UNL     1      22.312  -0.991  54.593  1.00  0.00     0.104 C 
HETATM    5  N1  UNL     1      22.650  -1.515  55.578  1.00  0.00    -0.191 NA
HETATM    6  C5  UNL     1      22.822   0.388  52.613  1.00  0.00     0.152 A 
HETATM    7  N4  UNL     1      22.438   0.999  51.480  1.00  0.00    -0.209 NA
HETATM    8  C11 UNL     1      21.162   0.924  51.070  1.00  0.00     0.167 A 
HETATM    9  N5  UNL     1      20.788   1.550  49.920  1.00  0.00    -0.221 NA
HETATM   10  C12 UNL     1      19.496   1.476  49.501  1.00  0.00     0.237 A 
HETATM   11  N6  UNL     1      18.569   0.780  50.221  1.00  0.00    -0.229 NA
HETATM   12  C13 UNL     1      18.957   0.161  51.368  1.00  0.00     0.116 A 
HETATM   13  C14 UNL     1      20.257   0.213  51.826  1.00  0.00     0.059 A 
ENDROOT
BRANCH   6  14
HETATM   14  N2  UNL     1      24.186   0.485  53.025  1.00  0.00    -0.339 N 
HETATM   15  H4  UNL     1      24.682  -0.178  53.676  1.00  0.00     0.167 HD
BRANCH  14  16
HETATM   16  C6  UNL     1      24.899   1.584  52.488  1.00  0.00     0.050 C 
HETATM   17  C7  UNL     1      24.598   2.849  52.644  1.00  0.00     0.050 C 
HETATM   18  C8  UNL     1      24.791   3.719  51.684  1.00  0.00     0.161 C 
HETATM   19  O2  UNL     1      25.928   3.519  50.903  1.00  0.00    -0.312 OA
HETATM   20  C9  UNL     1      26.613   2.306  50.886  1.00  0.00     0.145 C 
HETATM   21  C10 UNL     1      26.095   1.370  51.668  1.00  0.00     0.055 C 
BRANCH  18  22
HETATM   22  S1  UNL     1      23.690   5.047  51.402  1.00  0.00     0.081 S 
HETATM   23  O1  UNL     1      23.551   5.344  49.936  1.00  0.00    -0.244 OA
BRANCH  22  24
HETATM   24  N3  UNL     1      24.265   6.496  52.165  1.00  0.00    -0.254 NA
HETATM   25  H5  UNL     1      25.124   6.325  52.731  1.00  0.00     0.133 HD
HETATM   26  H6  UNL     1      23.521   7.026  52.653  1.00  0.00     0.133 HD
ENDBRANCH  22  24
BRANCH  22  27
HETATM   27  P1  UNL     1      21.919   4.636  52.051  1.00  0.00     0.018 P 
HETATM   28  H7  UNL     1      21.829   3.899  53.311  1.00  0.00     0.077 HD
ENDBRANCH  22  27
ENDBRANCH  18  22
ENDBRANCH  14  16
ENDBRANCH   6  14
BRANCH  12  29
HETATM   29  N7  UNL     1      17.947  -0.537  52.056  1.00  0.00    -0.286 NA
HETATM   30  H11 UNL     1      17.263  -0.168  52.782  1.00  0.00     0.125 HD
HETATM   31  H12 UNL     1      17.451   0.135  52.708  1.00  0.00     0.125 HD
ENDBRANCH  12  29
TORSDOF 6
ENDMDL
MODEL 9
REMARK VINA RESULT:      -7.3      3.884      4.731
REMARK  6 active torsions:
REMARK  status: ('A' for Active; 'I' for Inactive)
REMARK    1  A    between atoms: C5_6  and  N2_7 
REMARK    2  A    between atoms: N2_7  and  C6_8 
REMARK    3  A    between atoms: C8_10  and  S1_11 
REMARK    4  A    between atoms: S1_11  and  N3_12 
REMARK    5  A    between atoms: S1_11  and  P1_14 
REMARK    6  A    between atoms: C13_23  and  N7_24 
ROOT
HETATM    1  C1  UNL     1      22.471  -1.153  54.980  1.00  0.00     0.051 C 
HETATM    2  C2  UNL     1      23.109  -0.352  53.903  1.00  0.00    -0.020 A 
HETATM    3  C3  UNL     1      22.383   0.287  52.890  1.00  0.00     0.097 A 
HETATM    4  C4  UNL     1      20.939   0.133  52.930  1.00  0.00     0.104 C 
HETATM    5  N1  UNL     1      19.779   0.016  52.945  1.00  0.00    -0.191 NA
HETATM    6  C5  UNL     1      22.992   1.027  51.896  1.00  0.00     0.152 A 
HETATM    7  N4  UNL     1      24.328   1.161  51.870  1.00  0.00    -0.209 NA
HETATM    8  C11 UNL     1      25.086   0.575  52.812  1.00  0.00     0.167 A 
HETATM    9  N5  UNL     1      26.439   0.720  52.772  1.00  0.00    -0.221 NA
HETATM   10  C12 UNL     1      27.209   0.129  53.723  1.00  0.00     0.237 A 
HETATM   11  N6  UNL     1      26.641  -0.610  54.719  1.00  0.00    -0.229 NA
HETATM   12  C13 UNL     1      25.288  -0.747  54.746  1.00  0.00     0.116 A 
HETATM   13  C14 UNL     1      24.472  -0.162  53.800  1.00  0.00     0.059 A 
ENDROOT
BRANCH   6  14
HETATM   14  N2  UNL     1      22.211   1.661  50.882  1.00  0.00    -0.339 N 
HETATM   15  H4  UNL     1      21.958   1.245  49.949  1.00  0.00     0.167 HD
BRANCH  14  16
HETATM   16  C6  UNL     1      21.758   2.964  51.201  1.00  0.00     0.050 C 
HETATM   17  C7  UNL     1      20.549   3.429  51.008  1.00  0.00     0.050 C 
HETATM   18  C8  UNL     1      20.345   4.678  50.667  1.00  0.00     0.161 C 
HETATM   19  O2  UNL     1      21.206   5.612  51.240  1.00  0.00    -0.312 OA
HETATM   20  C9  UNL     1      22.411   5.244  51.833  1.00  0.00     0.145 C 
HETATM   21  C10 UNL     1      22.665   3.944  51.805  1.00  0.00     0.055 C 
BRANCH  18  22
HETATM   22  S1  UNL     1      19.073   5.140  49.561  1.00  0.00     0.081 S 
HETATM   23  O1  UNL     1      19.159   6.598  49.203  1.00  0.00    -0.244 OA
BRANCH  22  24
HETATM   24  N3  UNL     1      17.512   4.879  50.274  1.00  0.00    -0.254 NA
HETATM   25  H5  UNL     1      17.426   3.925  50.686  1.00  0.00     0.133 HD
HETATM   26  H6  UNL     1      16.728   5.158  49.658  1.00  0.00     0.133 HD
ENDBRANCH  22  24
BRANCH  22  27
HETATM   27  P1  UNL     1      19.198   4.159  47.904  1.00  0.00     0.018 P 
HETATM   28  H7  UNL     1      18.637   4.795  46.712  1.00  0.00     0.077 HD
ENDBRANCH  22  27
ENDBRANCH  18  22
ENDBRANCH  14  16
ENDBRANCH   6  14
BRANCH  12  29
HETATM   29  N7  UNL     1      24.774  -1.522  55.803  1.00  0.00    -0.286 NA
HETATM   30  H11 UNL     1      23.944  -2.187  55.795  1.00  0.00     0.125 HD
HETATM   31  H12 UNL     1      23.941  -2.071  55.450  1.00  0.00     0.125 HD
ENDBRANCH  12  29
TORSDOF 6
ENDMDL
