MODEL 1
REMARK VINA RESULT:      -7.3      0.000      0.000
REMARK  7 active torsions:
REMARK  status: ('A' for Active; 'I' for Inactive)
REMARK    1  A    between atoms: C3_4  and  C4_5 
REMARK    2  A    between atoms: C4_5  and  N1_6 
REMARK    3  A    between atoms: N1_6  and  C5_7 
REMARK    4  A    between atoms: C7_10  and  N2_11 
REMARK    5  A    between atoms: C12_17  and  O1_18 
REMARK    6  A    between atoms: O1_18  and  C13_19 
REMARK    7  A    between atoms: C13_19  and  N3_20 
ROOT
HETATM    1  N2  UNL     1      25.292   2.767  50.923  1.00  0.00    -0.234 NA
HETATM    2  C8  UNL     1      25.465   1.828  51.750  1.00  0.00     0.107 C 
HETATM    3  C9  UNL     1      24.296   1.124  52.259  1.00  0.00     0.108 C 
HETATM    4  C10 UNL     1      24.488   0.305  53.449  1.00  0.00     0.026 C 
HETATM    5  C11 UNL     1      25.521  -0.272  54.040  1.00  0.00     0.147 C 
HETATM    6  F2  UNL     1      25.407  -0.992  55.163  1.00  0.00    -0.203 F 
HETATM    7  C12 UNL     1      26.904  -0.228  53.593  1.00  0.00     0.127 C 
HETATM    8  C14 UNL     1      27.518   0.590  52.722  1.00  0.00     0.129 C 
HETATM    9  N4  UNL     1      26.862   1.659  52.016  1.00  0.00    -0.351 N 
HETATM   10  H16 UNL     1      27.533   2.401  51.660  1.00  0.00     0.166 HD
ENDROOT
BRANCH   1  11
HETATM   11  C7  UNL     1      24.054   3.242  50.407  1.00  0.00     0.113 A 
HETATM   12  C5  UNL     1      22.592   3.447  50.226  1.00  0.00     0.339 A 
HETATM   13  C6  UNL     1      23.655   4.082  49.413  1.00  0.00     0.160 A 
HETATM   14  F1  UNL     1      23.819   4.947  48.366  1.00  0.00    -0.206 F 
BRANCH  12  15
HETATM   15  N1  UNL     1      21.836   4.263  51.122  1.00  0.00     0.104 N 
HETATM   16  H7  UNL     1      22.328   4.311  52.029  1.00  0.00     0.317 HD
BRANCH  15  17
HETATM   17  C4  UNL     1      20.501   3.745  51.369  1.00  0.00     0.300 C 
BRANCH  17  18
HETATM   18  C3  UNL     1      20.568   2.697  52.427  1.00  0.00     0.022 C 
HETATM   19  C2  UNL     1      20.666   1.382  52.565  1.00  0.00     0.006 C 
HETATM   20  C1  UNL     1      20.705   0.660  53.885  1.00  0.00     0.061 C 
HETATM   21 CL1  UNL     1      20.769   0.244  51.245  1.00  0.00    -0.090 Cl
ENDBRANCH  17  18
ENDBRANCH  15  17
ENDBRANCH  12  15
ENDBRANCH   1  11
BRANCH   7  22
HETATM   22  O1  UNL     1      27.842  -1.143  54.086  1.00  0.00    -0.287 OA
BRANCH  22  23
HETATM   23  C13 UNL     1      28.801  -1.650  53.177  1.00  0.00     0.548 C 
HETATM   24  F3  UNL     1      30.089  -1.275  53.473  1.00  0.00    -0.185 F 
BRANCH  23  25
HETATM   25  N3  UNL     1      28.637  -3.095  53.187  1.00  0.00     0.138 N 
HETATM   26  H13 UNL     1      28.987  -3.495  52.284  1.00  0.00     0.319 HD
HETATM   27  H14 UNL     1      27.629  -3.346  53.308  1.00  0.00     0.319 HD
ENDBRANCH  23  25
ENDBRANCH  22  23
ENDBRANCH   7  22
TORSDOF 7
ENDMDL
MODEL 2
REMARK VINA RESULT:      -7.3      1.793      1.944
REMARK  7 active torsions:
REMARK  status: ('A' for Active; 'I' for Inactive)
REMARK    1  A    between atoms: C3_4  and  C4_5 
REMARK    2  A    between atoms: C4_5  and  N1_6 
REMARK    3  A    between atoms: N1_6  and  C5_7 
REMARK    4  A    between atoms: C7_10  and  N2_11 
REMARK    5  A    between atoms: C12_17  and  O1_18 
REMARK    6  A    between atoms: O1_18  and  C13_19 
REMARK    7  A    between atoms: C13_19  and  N3_20 
ROOT
HETATM    1  N2  UNL     1      24.127   3.475  52.702  1.00  0.00    -0.234 NA
HETATM    2  C8  UNL     1      24.599   2.366  53.081  1.00  0.00     0.107 C 
HETATM    3  C9  UNL     1      23.756   1.182  52.984  1.00  0.00     0.108 C 
HETATM    4  C10 UNL     1      24.180   0.009  53.736  1.00  0.00     0.026 C 
HETATM    5  C11 UNL     1      25.323  -0.424  54.244  1.00  0.00     0.147 C 
HETATM    6  F2  UNL     1      25.431  -1.578  54.912  1.00  0.00    -0.203 F 
HETATM    7  C12 UNL     1      26.609   0.252  54.168  1.00  0.00     0.127 C 
HETATM    8  C14 UNL     1      26.914   1.526  53.871  1.00  0.00     0.129 C 
HETATM    9  N4  UNL     1      25.942   2.536  53.549  1.00  0.00    -0.351 N 
HETATM   10  H16 UNL     1      26.301   3.526  53.687  1.00  0.00     0.166 HD
ENDROOT
BRANCH   1  11
HETATM   11  C7  UNL     1      22.830   3.724  52.174  1.00  0.00     0.113 A 
HETATM   12  C5  UNL     1      21.460   3.493  51.643  1.00  0.00     0.339 A 
HETATM   13  C6  UNL     1      22.097   4.817  51.826  1.00  0.00     0.160 A 
HETATM   14  F1  UNL     1      21.846   6.152  51.657  1.00  0.00    -0.206 F 
BRANCH  12  15
HETATM   15  N1  UNL     1      20.378   3.130  52.502  1.00  0.00     0.104 N 
HETATM   16  H7  UNL     1      20.742   2.978  53.456  1.00  0.00     0.317 HD
BRANCH  15  17
HETATM   17  C4  UNL     1      19.708   1.911  52.083  1.00  0.00     0.300 C 
BRANCH  17  18
HETATM   18  C3  UNL     1      20.245   0.762  52.866  1.00  0.00     0.022 C 
HETATM   19  C2  UNL     1      19.869  -0.409  53.362  1.00  0.00     0.006 C 
HETATM   20  C1  UNL     1      20.762  -1.335  54.144  1.00  0.00     0.061 C 
HETATM   21 CL1  UNL     1      18.272  -1.094  53.203  1.00  0.00    -0.090 Cl
ENDBRANCH  17  18
ENDBRANCH  15  17
ENDBRANCH  12  15
ENDBRANCH   1  11
BRANCH   7  22
HETATM   22  O1  UNL     1      27.796  -0.444  54.427  1.00  0.00    -0.287 OA
BRANCH  22  23
HETATM   23  C13 UNL     1      28.571  -0.852  53.315  1.00  0.00     0.548 C 
HETATM   24  F3  UNL     1      29.840  -0.325  53.310  1.00  0.00    -0.185 F 
BRANCH  23  25
HETATM   25  N3  UNL     1      28.584  -2.305  53.347  1.00  0.00     0.138 N 
HETATM   26  H13 UNL     1      27.842  -2.678  52.709  1.00  0.00     0.319 HD
HETATM   27  H14 UNL     1      28.407  -2.650  54.319  1.00  0.00     0.319 HD
ENDBRANCH  23  25
ENDBRANCH  22  23
ENDBRANCH   7  22
TORSDOF 7
ENDMDL
MODEL 3
REMARK VINA RESULT:      -7.1      2.726      3.874
REMARK  7 active torsions:
REMARK  status: ('A' for Active; 'I' for Inactive)
REMARK    1  A    between atoms: C3_4  and  C4_5 
REMARK    2  A    between atoms: C4_5  and  N1_6 
REMARK    3  A    between atoms: N1_6  and  C5_7 
REMARK    4  A    between atoms: C7_10  and  N2_11 
REMARK    5  A    between atoms: C12_17  and  O1_18 
REMARK    6  A    between atoms: O1_18  and  C13_19 
REMARK    7  A    between atoms: C13_19  and  N3_20 
ROOT
HETATM    1  N2  UNL     1      23.379   1.078  52.372  1.00  0.00    -0.234 NA
HETATM    2  C8  UNL     1      24.597   0.999  52.700  1.00  0.00     0.107 C 
HETATM    3  C9  UNL     1      25.373   2.228  52.794  1.00  0.00     0.108 C 
HETATM    4  C10 UNL     1      26.823   2.088  52.825  1.00  0.00     0.026 C 
HETATM    5  C11 UNL     1      27.672   1.121  53.134  1.00  0.00     0.147 C 
HETATM    6  F2  UNL     1      29.000   1.271  53.071  1.00  0.00    -0.203 F 
HETATM    7  C12 UNL     1      27.324  -0.220  53.577  1.00  0.00     0.127 C 
HETATM    8  C14 UNL     1      26.165  -0.895  53.502  1.00  0.00     0.129 C 
HETATM    9  N4  UNL     1      24.958  -0.369  52.920  1.00  0.00    -0.351 N 
HETATM   10  H16 UNL     1      24.269  -1.122  52.628  1.00  0.00     0.166 HD
ENDROOT
BRANCH   1  11
HETATM   11  C7  UNL     1      22.644   2.258  52.070  1.00  0.00     0.113 A 
HETATM   12  C5  UNL     1      22.304   3.606  51.541  1.00  0.00     0.339 A 
HETATM   13  C6  UNL     1      21.388   2.727  52.304  1.00  0.00     0.160 A 
HETATM   14  F1  UNL     1      20.110   2.689  52.792  1.00  0.00    -0.206 F 
BRANCH  12  15
HETATM   15  N1  UNL     1      22.047   3.819  50.152  1.00  0.00     0.104 N 
HETATM   16  H7  UNL     1      22.184   2.931  49.644  1.00  0.00     0.317 HD
BRANCH  15  17
HETATM   17  C4  UNL     1      22.930   4.809  49.559  1.00  0.00     0.300 C 
BRANCH  17  18
HETATM   18  C3  UNL     1      24.318   4.266  49.517  1.00  0.00     0.022 C 
HETATM   19  C2  UNL     1      25.576   4.670  49.402  1.00  0.00     0.006 C 
HETATM   20  C1  UNL     1      26.772   3.756  49.403  1.00  0.00     0.061 C 
HETATM   21 CL1  UNL     1      26.080   6.332  49.231  1.00  0.00    -0.090 Cl
ENDBRANCH  17  18
ENDBRANCH  15  17
ENDBRANCH  12  15
ENDBRANCH   1  11
BRANCH   7  22
HETATM   22  O1  UNL     1      28.277  -1.035  54.200  1.00  0.00    -0.287 OA
BRANCH  22  23
HETATM   23  C13 UNL     1      29.215  -1.694  53.370  1.00  0.00     0.548 C 
HETATM   24  F3  UNL     1      30.513  -1.572  53.805  1.00  0.00    -0.185 F 
BRANCH  23  25
HETATM   25  N3  UNL     1      28.789  -3.082  53.307  1.00  0.00     0.138 N 
HETATM   26  H13 UNL     1      27.768  -3.148  53.534  1.00  0.00     0.319 HD
HETATM   27  H14 UNL     1      29.331  -3.661  53.988  1.00  0.00     0.319 HD
ENDBRANCH  23  25
ENDBRANCH  22  23
ENDBRANCH   7  22
TORSDOF 7
ENDMDL
MODEL 4
REMARK VINA RESULT:      -7.0      1.824      1.963
REMARK  7 active torsions:
REMARK  status: ('A' for Active; 'I' for Inactive)
REMARK    1  A    between atoms: C3_4  and  C4_5 
REMARK    2  A    between atoms: C4_5  and  N1_6 
REMARK    3  A    between atoms: N1_6  and  C5_7 
REMARK    4  A    between atoms: C7_10  and  N2_11 
REMARK    5  A    between atoms: C12_17  and  O1_18 
REMARK    6  A    between atoms: O1_18  and  C13_19 
REMARK    7  A    between atoms: C13_19  and  N3_20 
ROOT
HETATM    1  N2  UNL     1      24.401   2.015  51.036  1.00  0.00    -0.234 NA
HETATM    2  C8  UNL     1      24.846   1.244  51.932  1.00  0.00     0.107 C 
HETATM    3  C9  UNL     1      23.903   0.404  52.659  1.00  0.00     0.108 C 
HETATM    4  C10 UNL     1      24.379  -0.199  53.897  1.00  0.00     0.026 C 
HETATM    5  C11 UNL     1      25.564  -0.485  54.413  1.00  0.00     0.147 C 
HETATM    6  F2  UNL     1      25.715  -1.059  55.612  1.00  0.00    -0.203 F 
HETATM    7  C12 UNL     1      26.855  -0.239  53.791  1.00  0.00     0.127 C 
HETATM    8  C14 UNL     1      27.197   0.558  52.765  1.00  0.00     0.129 C 
HETATM    9  N4  UNL     1      26.268   1.380  52.035  1.00  0.00    -0.351 N 
HETATM   10  H16 UNL     1      26.733   2.182  51.518  1.00  0.00     0.166 HD
ENDROOT
BRANCH   1  11
HETATM   11  C7  UNL     1      23.046   2.174  50.632  1.00  0.00     0.113 A 
HETATM   12  C5  UNL     1      21.777   2.012  49.873  1.00  0.00     0.339 A 
HETATM   13  C6  UNL     1      21.970   2.900  51.043  1.00  0.00     0.160 A 
HETATM   14  F1  UNL     1      21.289   3.789  51.828  1.00  0.00    -0.206 F 
BRANCH  12  15
HETATM   15  N1  UNL     1      20.960   0.850  50.024  1.00  0.00     0.104 N 
HETATM   16  H7  UNL     1      21.048   0.265  49.178  1.00  0.00     0.317 HD
BRANCH  15  17
HETATM   17  C4  UNL     1      19.553   1.167  50.201  1.00  0.00     0.300 C 
BRANCH  17  18
HETATM   18  C3  UNL     1      18.971   0.261  51.231  1.00  0.00     0.022 C 
HETATM   19  C2  UNL     1      19.154  -0.116  52.489  1.00  0.00     0.006 C 
HETATM   20  C1  UNL     1      18.299  -1.119  53.217  1.00  0.00     0.061 C 
HETATM   21 CL1  UNL     1      20.418   0.479  53.536  1.00  0.00    -0.090 Cl
ENDBRANCH  17  18
ENDBRANCH  15  17
ENDBRANCH  12  15
ENDBRANCH   1  11
BRANCH   7  22
HETATM   22  O1  UNL     1      28.006  -0.886  54.258  1.00  0.00    -0.287 OA
BRANCH  22  23
HETATM   23  C13 UNL     1      28.951  -1.315  53.296  1.00  0.00     0.548 C 
HETATM   24  F3  UNL     1      30.216  -0.826  53.514  1.00  0.00    -0.185 F 
BRANCH  23  25
HETATM   25  N3  UNL     1      28.916  -2.768  53.320  1.00  0.00     0.138 N 
HETATM   26  H13 UNL     1      29.893  -3.143  53.366  1.00  0.00     0.319 HD
HETATM   27  H14 UNL     1      28.446  -3.135  52.461  1.00  0.00     0.319 HD
ENDBRANCH  23  25
ENDBRANCH  22  23
ENDBRANCH   7  22
TORSDOF 7
ENDMDL
MODEL 5
REMARK VINA RESULT:      -6.6      2.684      3.808
REMARK  7 active torsions:
REMARK  status: ('A' for Active; 'I' for Inactive)
REMARK    1  A    between atoms: C3_4  and  C4_5 
REMARK    2  A    between atoms: C4_5  and  N1_6 
REMARK    3  A    between atoms: N1_6  and  C5_7 
REMARK    4  A    between atoms: C7_10  and  N2_11 
REMARK    5  A    between atoms: C12_17  and  O1_18 
REMARK    6  A    between atoms: O1_18  and  C13_19 
REMARK    7  A    between atoms: C13_19  and  N3_20 
ROOT
HETATM    1  N2  UNL     1      22.144  -0.038  53.157  1.00  0.00    -0.234 NA
HETATM    2  C8  UNL     1      23.333   0.303  52.903  1.00  0.00     0.107 C 
HETATM    3  C9  UNL     1      23.563   1.572  52.225  1.00  0.00     0.108 C 
HETATM    4  C10 UNL     1      24.882   1.774  51.640  1.00  0.00     0.026 C 
HETATM    5  C11 UNL     1      26.087   1.262  51.829  1.00  0.00     0.147 C 
HETATM    6  F2  UNL     1      27.159   1.646  51.127  1.00  0.00    -0.203 F 
HETATM    7  C12 UNL     1      26.443   0.235  52.795  1.00  0.00     0.127 C 
HETATM    8  C14 UNL     1      25.676  -0.629  53.480  1.00  0.00     0.129 C 
HETATM    9  N4  UNL     1      24.243  -0.699  53.372  1.00  0.00    -0.351 N 
HETATM   10  H16 UNL     1      23.842  -1.629  53.689  1.00  0.00     0.166 HD
ENDROOT
BRANCH   1  11
HETATM   11  C7  UNL     1      20.956   0.683  52.852  1.00  0.00     0.113 A 
HETATM   12  C5  UNL     1      19.907   1.738  52.874  1.00  0.00     0.339 A 
HETATM   13  C6  UNL     1      19.892   0.530  52.017  1.00  0.00     0.160 A 
HETATM   14  F1  UNL     1      19.132  -0.088  51.062  1.00  0.00    -0.206 F 
BRANCH  12  15
HETATM   15  N1  UNL     1      20.114   3.010  52.260  1.00  0.00     0.104 N 
HETATM   16  H7  UNL     1      19.596   3.728  52.790  1.00  0.00     0.317 HD
BRANCH  15  17
HETATM   17  C4  UNL     1      19.651   3.056  50.883  1.00  0.00     0.300 C 
BRANCH  17  18
HETATM   18  C3  UNL     1      20.815   3.281  49.981  1.00  0.00     0.022 C 
HETATM   19  C2  UNL     1      21.622   2.623  49.161  1.00  0.00     0.006 C 
HETATM   20  C1  UNL     1      22.750   3.247  48.383  1.00  0.00     0.061 C 
HETATM   21 CL1  UNL     1      21.529   0.911  48.829  1.00  0.00    -0.090 Cl
ENDBRANCH  17  18
ENDBRANCH  15  17
ENDBRANCH  12  15
ENDBRANCH   1  11
BRANCH   7  22
HETATM   22  O1  UNL     1      27.782   0.021  53.147  1.00  0.00    -0.287 OA
BRANCH  22  23
HETATM   23  C13 UNL     1      28.286   0.733  54.262  1.00  0.00     0.548 C 
HETATM   24  F3  UNL     1      28.644  -0.077  55.312  1.00  0.00    -0.185 F 
BRANCH  23  25
HETATM   25  N3  UNL     1      29.410   1.511  53.765  1.00  0.00     0.138 N 
HETATM   26  H13 UNL     1      29.654   1.198  52.796  1.00  0.00     0.319 HD
HETATM   27  H14 UNL     1      30.242   1.386  54.387  1.00  0.00     0.319 HD
ENDBRANCH  23  25
ENDBRANCH  22  23
ENDBRANCH   7  22
TORSDOF 7
ENDMDL
MODEL 6
REMARK VINA RESULT:      -6.6      2.732      3.022
REMARK  7 active torsions:
REMARK  status: ('A' for Active; 'I' for Inactive)
REMARK    1  A    between atoms: C3_4  and  C4_5 
REMARK    2  A    between atoms: C4_5  and  N1_6 
REMARK    3  A    between atoms: N1_6  and  C5_7 
REMARK    4  A    between atoms: C7_10  and  N2_11 
REMARK    5  A    between atoms: C12_17  and  O1_18 
REMARK    6  A    between atoms: O1_18  and  C13_19 
REMARK    7  A    between atoms: C13_19  and  N3_20 
ROOT
HETATM    1  N2  UNL     1      23.139   1.451  51.474  1.00  0.00    -0.234 NA
HETATM    2  C8  UNL     1      23.727   0.822  52.398  1.00  0.00     0.107 C 
HETATM    3  C9  UNL     1      23.115  -0.399  52.905  1.00  0.00     0.108 C 
HETATM    4  C10 UNL     1      23.612  -0.903  54.179  1.00  0.00     0.026 C 
HETATM    5  C11 UNL     1      24.723  -0.757  54.883  1.00  0.00     0.147 C 
HETATM    6  F2  UNL     1      24.921  -1.357  56.062  1.00  0.00    -0.203 F 
HETATM    7  C12 UNL     1      25.876   0.049  54.513  1.00  0.00     0.127 C 
HETATM    8  C14 UNL     1      26.007   1.028  53.603  1.00  0.00     0.129 C 
HETATM    9  N4  UNL     1      24.939   1.495  52.758  1.00  0.00    -0.351 N 
HETATM   10  H16 UNL     1      25.104   2.469  52.370  1.00  0.00     0.166 HD
ENDROOT
BRANCH   1  11
HETATM   11  C7  UNL     1      21.911   1.109  50.843  1.00  0.00     0.113 A 
HETATM   12  C5  UNL     1      20.482   0.741  50.655  1.00  0.00     0.339 A 
HETATM   13  C6  UNL     1      21.471   0.927  49.568  1.00  0.00     0.160 A 
HETATM   14  F1  UNL     1      21.575   0.876  48.205  1.00  0.00    -0.206 F 
BRANCH  12  15
HETATM   15  N1  UNL     1      19.438   1.704  50.802  1.00  0.00     0.104 N 
HETATM   16  H7  UNL     1      19.559   2.197  51.701  1.00  0.00     0.317 HD
BRANCH  15  17
HETATM   17  C4  UNL     1      18.113   1.108  50.799  1.00  0.00     0.300 C 
BRANCH  17  18
HETATM   18  C3  UNL     1      18.108  -0.082  51.696  1.00  0.00     0.022 C 
HETATM   19  C2  UNL     1      17.313  -0.735  52.532  1.00  0.00     0.006 C 
HETATM   20  C1  UNL     1      17.702  -1.973  53.295  1.00  0.00     0.061 C 
HETATM   21 CL1  UNL     1      15.669  -0.282  52.906  1.00  0.00    -0.090 Cl
ENDBRANCH  17  18
ENDBRANCH  15  17
ENDBRANCH  12  15
ENDBRANCH   1  11
BRANCH   7  22
HETATM   22  O1  UNL     1      27.111  -0.141  55.146  1.00  0.00    -0.287 OA
BRANCH  22  23
HETATM   23  C13 UNL     1      28.278   0.186  54.415  1.00  0.00     0.548 C 
HETATM   24  F3  UNL     1      29.148   0.994  55.104  1.00  0.00    -0.185 F 
BRANCH  23  25
HETATM   25  N3  UNL     1      28.886  -1.082  54.045  1.00  0.00     0.138 N 
HETATM   26  H13 UNL     1      29.774  -0.906  53.517  1.00  0.00     0.319 HD
HETATM   27  H14 UNL     1      28.234  -1.638  53.446  1.00  0.00     0.319 HD
ENDBRANCH  23  25
ENDBRANCH  22  23
ENDBRANCH   7  22
TORSDOF 7
ENDMDL
MODEL 7
REMARK VINA RESULT:      -6.6      2.651      3.749
REMARK  7 active torsions:
REMARK  status: ('A' for Active; 'I' for Inactive)
REMARK    1  A    between atoms: C3_4  and  C4_5 
REMARK    2  A    between atoms: C4_5  and  N1_6 
REMARK    3  A    between atoms: N1_6  and  C5_7 
REMARK    4  A    between atoms: C7_10  and  N2_11 
REMARK    5  A    between atoms: C12_17  and  O1_18 
REMARK    6  A    between atoms: O1_18  and  C13_19 
REMARK    7  A    between atoms: C13_19  and  N3_20 
ROOT
HETATM    1  N2  UNL     1      24.740   3.066  51.214  1.00  0.00    -0.234 NA
HETATM    2  C8  UNL     1      24.889   1.995  51.866  1.00  0.00     0.107 C 
HETATM    3  C9  UNL     1      23.782   1.518  52.684  1.00  0.00     0.108 C 
HETATM    4  C10 UNL     1      24.090   0.500  53.679  1.00  0.00     0.026 C 
HETATM    5  C11 UNL     1      25.052  -0.392  53.849  1.00  0.00     0.147 C 
HETATM    6  F2  UNL     1      25.089  -1.232  54.891  1.00  0.00    -0.203 F 
HETATM    7  C12 UNL     1      26.190  -0.609  52.970  1.00  0.00     0.127 C 
HETATM    8  C14 UNL     1      26.713   0.165  52.005  1.00  0.00     0.129 C 
HETATM    9  N4  UNL     1      26.197   1.458  51.637  1.00  0.00    -0.351 N 
HETATM   10  H16 UNL     1      26.906   2.065  51.131  1.00  0.00     0.166 HD
ENDROOT
BRANCH   1  11
HETATM   11  C7  UNL     1      23.587   3.898  51.176  1.00  0.00     0.113 A 
HETATM   12  C5  UNL     1      22.538   4.867  51.593  1.00  0.00     0.339 A 
HETATM   13  C6  UNL     1      22.610   4.195  50.275  1.00  0.00     0.160 A 
HETATM   14  F1  UNL     1      21.949   4.122  49.080  1.00  0.00    -0.206 F 
BRANCH  12  15
HETATM   15  N1  UNL     1      22.802   6.269  51.660  1.00  0.00     0.104 N 
HETATM   16  H7  UNL     1      22.651   6.593  52.629  1.00  0.00     0.317 HD
BRANCH  15  17
HETATM   17  C4  UNL     1      21.938   7.050  50.792  1.00  0.00     0.300 C 
BRANCH  17  18
HETATM   18  C3  UNL     1      22.767   8.002  50.001  1.00  0.00     0.022 C 
HETATM   19  C2  UNL     1      23.661   8.018  49.022  1.00  0.00     0.006 C 
HETATM   20  C1  UNL     1      24.307   9.261  48.470  1.00  0.00     0.061 C 
HETATM   21 CL1  UNL     1      24.256   6.603  48.190  1.00  0.00    -0.090 Cl
ENDBRANCH  17  18
ENDBRANCH  15  17
ENDBRANCH  12  15
ENDBRANCH   1  11
BRANCH   7  22
HETATM   22  O1  UNL     1      26.942  -1.787  53.055  1.00  0.00    -0.287 OA
BRANCH  22  23
HETATM   23  C13 UNL     1      28.344  -1.659  53.197  1.00  0.00     0.548 C 
HETATM   24  F3  UNL     1      28.719  -0.930  54.299  1.00  0.00    -0.185 F 
BRANCH  23  25
HETATM   25  N3  UNL     1      28.869  -3.015  53.234  1.00  0.00     0.138 N 
HETATM   26  H13 UNL     1      28.247  -3.648  52.678  1.00  0.00     0.319 HD
HETATM   27  H14 UNL     1      28.918  -3.359  54.221  1.00  0.00     0.319 HD
ENDBRANCH  23  25
ENDBRANCH  22  23
ENDBRANCH   7  22
TORSDOF 7
ENDMDL
MODEL 8
REMARK VINA RESULT:      -6.5      2.289      2.992
REMARK  7 active torsions:
REMARK  status: ('A' for Active; 'I' for Inactive)
REMARK    1  A    between atoms: C3_4  and  C4_5 
REMARK    2  A    between atoms: C4_5  and  N1_6 
REMARK    3  A    between atoms: N1_6  and  C5_7 
REMARK    4  A    between atoms: C7_10  and  N2_11 
REMARK    5  A    between atoms: C12_17  and  O1_18 
REMARK    6  A    between atoms: O1_18  and  C13_19 
REMARK    7  A    between atoms: C13_19  and  N3_20 
ROOT
HETATM    1  N2  UNL     1      23.829   2.050  50.804  1.00  0.00    -0.234 NA
HETATM    2  C8  UNL     1      24.291   1.277  51.689  1.00  0.00     0.107 C 
HETATM    3  C9  UNL     1      23.356   0.491  52.483  1.00  0.00     0.108 C 
HETATM    4  C10 UNL     1      23.874  -0.110  53.705  1.00  0.00     0.026 C 
HETATM    5  C11 UNL     1      25.072  -0.439  54.160  1.00  0.00     0.147 C 
HETATM    6  F2  UNL     1      25.266  -0.997  55.361  1.00  0.00    -0.203 F 
HETATM    7  C12 UNL     1      26.337  -0.259  53.464  1.00  0.00     0.127 C 
HETATM    8  C14 UNL     1      26.654   0.505  52.406  1.00  0.00     0.129 C 
HETATM    9  N4  UNL     1      25.721   1.353  51.712  1.00  0.00    -0.351 N 
HETATM   10  H16 UNL     1      26.190   2.126  51.154  1.00  0.00     0.166 HD
ENDROOT
BRANCH   1  11
HETATM   11  C7  UNL     1      22.462   2.260  50.471  1.00  0.00     0.113 A 
HETATM   12  C5  UNL     1      21.097   2.850  50.443  1.00  0.00     0.339 A 
HETATM   13  C6  UNL     1      21.539   1.672  49.662  1.00  0.00     0.160 A 
HETATM   14  F1  UNL     1      21.071   0.757  48.759  1.00  0.00    -0.206 F 
BRANCH  12  15
HETATM   15  N1  UNL     1      20.824   4.068  49.748  1.00  0.00     0.104 N 
HETATM   16  H7  UNL     1      21.604   4.268  49.101  1.00  0.00     0.317 HD
BRANCH  15  17
HETATM   17  C4  UNL     1      20.684   5.208  50.638  1.00  0.00     0.300 C 
BRANCH  17  18
HETATM   18  C3  UNL     1      21.988   5.923  50.729  1.00  0.00     0.022 C 
HETATM   19  C2  UNL     1      23.110   5.928  51.435  1.00  0.00     0.006 C 
HETATM   20  C1  UNL     1      24.265   6.866  51.204  1.00  0.00     0.061 C 
HETATM   21 CL1  UNL     1      23.460   4.849  52.762  1.00  0.00    -0.090 Cl
ENDBRANCH  17  18
ENDBRANCH  15  17
ENDBRANCH  12  15
ENDBRANCH   1  11
BRANCH   7  22
HETATM   22  O1  UNL     1      27.483  -0.946  53.880  1.00  0.00    -0.287 OA
BRANCH  22  23
HETATM   23  C13 UNL     1      28.657  -0.185  54.102  1.00  0.00     0.548 C 
HETATM   24  F3  UNL     1      28.757   0.306  55.381  1.00  0.00    -0.185 F 
BRANCH  23  25
HETATM   25  N3  UNL     1      29.769  -1.058  53.764  1.00  0.00     0.138 N 
HETATM   26  H13 UNL     1      30.389  -0.584  53.064  1.00  0.00     0.319 HD
HETATM   27  H14 UNL     1      29.417  -1.956  53.360  1.00  0.00     0.319 HD
ENDBRANCH  23  25
ENDBRANCH  22  23
ENDBRANCH   7  22
TORSDOF 7
ENDMDL
MODEL 9
REMARK VINA RESULT:      -6.4      2.166      3.152
REMARK  7 active torsions:
REMARK  status: ('A' for Active; 'I' for Inactive)
REMARK    1  A    between atoms: C3_4  and  C4_5 
REMARK    2  A    between atoms: C4_5  and  N1_6 
REMARK    3  A    between atoms: N1_6  and  C5_7 
REMARK    4  A    between atoms: C7_10  and  N2_11 
REMARK    5  A    between atoms: C12_17  and  O1_18 
REMARK    6  A    between atoms: O1_18  and  C13_19 
REMARK    7  A    between atoms: C13_19  and  N3_20 
ROOT
HETATM    1  N2  UNL     1      24.931   3.465  51.783  1.00  0.00    -0.234 NA
HETATM    2  C8  UNL     1      25.196   2.381  52.373  1.00  0.00     0.107 C 
HETATM    3  C9  UNL     1      24.182   1.335  52.396  1.00  0.00     0.108 C 
HETATM    4  C10 UNL     1      24.369   0.259  53.361  1.00  0.00     0.026 C 
HETATM    5  C11 UNL     1      25.397  -0.243  54.026  1.00  0.00     0.147 C 
HETATM    6  F2  UNL     1      25.280  -1.269  54.878  1.00  0.00    -0.203 F 
HETATM    7  C12 UNL     1      26.776   0.212  53.952  1.00  0.00     0.127 C 
HETATM    8  C14 UNL     1      27.297   1.357  53.482  1.00  0.00     0.129 C 
HETATM    9  N4  UNL     1      26.519   2.429  52.920  1.00  0.00    -0.351 N 
HETATM   10  H16 UNL     1      27.022   3.364  52.928  1.00  0.00     0.166 HD
ENDROOT
BRANCH   1  11
HETATM   11  C7  UNL     1      23.723   3.809  51.114  1.00  0.00     0.113 A 
HETATM   12  C5  UNL     1      22.664   3.877  50.071  1.00  0.00     0.339 A 
HETATM   13  C6  UNL     1      22.626   4.569  51.381  1.00  0.00     0.160 A 
HETATM   14  F1  UNL     1      21.832   5.399  52.123  1.00  0.00    -0.206 F 
BRANCH  12  15
HETATM   15  N1  UNL     1      21.767   2.789  49.847  1.00  0.00     0.104 N 
HETATM   16  H7  UNL     1      21.672   2.245  50.719  1.00  0.00     0.317 HD
BRANCH  15  17
HETATM   17  C4  UNL     1      22.226   1.883  48.807  1.00  0.00     0.300 C 
BRANCH  17  18
HETATM   18  C3  UNL     1      22.236   2.600  47.501  1.00  0.00     0.022 C 
HETATM   19  C2  UNL     1      21.452   3.336  46.727  1.00  0.00     0.006 C 
HETATM   20  C1  UNL     1      21.856   3.910  45.395  1.00  0.00     0.061 C 
HETATM   21 CL1  UNL     1      19.806   3.779  47.105  1.00  0.00    -0.090 Cl
ENDBRANCH  17  18
ENDBRANCH  15  17
ENDBRANCH  12  15
ENDBRANCH   1  11
BRANCH   7  22
HETATM   22  O1  UNL     1      27.819  -0.596  54.420  1.00  0.00    -0.287 OA
BRANCH  22  23
HETATM   23  C13 UNL     1      28.753  -1.073  53.469  1.00  0.00     0.548 C 
HETATM   24  F3  UNL     1      30.059  -0.958  53.879  1.00  0.00    -0.185 F 
BRANCH  23  25
HETATM   25  N3  UNL     1      28.384  -2.455  53.204  1.00  0.00     0.138 N 
HETATM   26  H13 UNL     1      27.519  -2.481  52.613  1.00  0.00     0.319 HD
HETATM   27  H14 UNL     1      28.204  -2.962  54.100  1.00  0.00     0.319 HD
ENDBRANCH  23  25
ENDBRANCH  22  23
ENDBRANCH   7  22
TORSDOF 7
ENDMDL
