MODEL 1
REMARK VINA RESULT:     -10.0      0.000      0.000
REMARK  3 active torsions:
REMARK  status: ('A' for Active; 'I' for Inactive)
REMARK    1  A    between atoms: C7_9  and  N3_10 
REMARK    2  A    between atoms: N3_10  and  C8_11 
REMARK    3  A    between atoms: N4_20  and  O1_21 
ROOT
HETATM    1  C1  UNL     1      27.879   4.968  48.524  1.00  0.00     0.046 C 
HETATM    2  C2  UNL     1      26.599   5.067  49.273  1.00  0.00    -0.059 C 
HETATM    3  C3  UNL     1      26.019   4.026  49.858  1.00  0.00     0.022 C 
HETATM    4  C4  UNL     1      24.870   3.579  50.656  1.00  0.00     0.037 A 
HETATM    5  C5  UNL     1      23.536   3.727  50.382  1.00  0.00     0.070 A 
HETATM    6  N1  UNL     1      22.647   3.258  51.235  1.00  0.00    -0.244 NA
HETATM    7  C6  UNL     1      23.032   2.640  52.366  1.00  0.00     0.235 A 
HETATM    8  N2  UNL     1      24.316   2.468  52.682  1.00  0.00    -0.224 NA
HETATM    9  C7  UNL     1      25.251   2.932  51.838  1.00  0.00     0.141 A 
HETATM   10  C14 UNL     1      22.957   4.386  49.230  1.00  0.00     0.219 C 
HETATM   11  N4  UNL     1      21.558   4.385  49.078  1.00  0.00    -0.223 N 
HETATM   12  C15 UNL     1      21.051   5.523  49.773  1.00  0.00     0.243 C 
HETATM   13  O2  UNL     1      19.911   5.323  49.354  1.00  0.00    -0.271 OA
HETATM   14  C16 UNL     1      21.372   6.651  50.658  1.00  0.00     0.105 C 
HETATM   15  C17 UNL     1      20.922   8.006  50.106  1.00  0.00     0.009 C 
HETATM   16  C18 UNL     1      21.625   8.227  48.779  1.00  0.00     0.001 C 
HETATM   17  C19 UNL     1      23.138   8.271  48.944  1.00  0.00     0.002 C 
HETATM   18  C20 UNL     1      23.781   8.197  47.602  1.00  0.00     0.026 C 
HETATM   19  C21 UNL     1      25.249   8.002  47.529  1.00  0.00     0.168 C 
HETATM   20  O3  UNL     1      25.831   6.916  48.006  1.00  0.00    -0.387 OA
HETATM   21  C22 UNL     1      26.023   6.488  49.233  1.00  0.00     0.201 C 
ENDROOT
BRANCH   9  22
HETATM   22  N3  UNL     1      26.596   2.747  52.200  1.00  0.00    -0.340 N 
HETATM   23  H6  UNL     1      27.197   3.604  52.178  1.00  0.00     0.167 HD
BRANCH  22  24
HETATM   24  C8  UNL     1      27.300   1.589  52.603  1.00  0.00     0.035 A 
HETATM   25  C9  UNL     1      28.513   1.699  53.296  1.00  0.00     0.032 A 
HETATM   26  C10 UNL     1      29.228   0.609  53.703  1.00  0.00     0.046 A 
HETATM   27  C11 UNL     1      28.768  -0.659  53.437  1.00  0.00     0.138 A 
HETATM   28  F1  UNL     1      29.525  -1.674  53.867  1.00  0.00    -0.204 F 
HETATM   29  C12 UNL     1      27.585  -0.844  52.759  1.00  0.00     0.074 A 
HETATM   30 CL1  UNL     1      27.022  -2.466  52.433  1.00  0.00    -0.081 Cl
HETATM   31  C13 UNL     1      26.920   0.286  52.381  1.00  0.00     0.056 A 
ENDBRANCH  22  24
ENDBRANCH   9  22
BRANCH  11  32
HETATM   32  O1  UNL     1      21.022   3.383  48.369  1.00  0.00    -0.284 OA
HETATM   33  H12 UNL     1      20.525   2.716  48.886  1.00  0.00     0.245 HD
ENDBRANCH  11  32
TORSDOF 3
ENDMDL
MODEL 2
REMARK VINA RESULT:      -9.5      2.898      5.379
REMARK  3 active torsions:
REMARK  status: ('A' for Active; 'I' for Inactive)
REMARK    1  A    between atoms: C7_9  and  N3_10 
REMARK    2  A    between atoms: N3_10  and  C8_11 
REMARK    3  A    between atoms: N4_20  and  O1_21 
ROOT
HETATM    1  C1  UNL     1      21.725  -0.818  54.513  1.00  0.00     0.046 C 
HETATM    2  C2  UNL     1      21.955  -0.026  53.276  1.00  0.00    -0.059 C 
HETATM    3  C3  UNL     1      22.989   0.792  53.122  1.00  0.00     0.022 C 
HETATM    4  C4  UNL     1      23.657   1.729  52.209  1.00  0.00     0.037 A 
HETATM    5  C5  UNL     1      23.133   2.835  51.593  1.00  0.00     0.070 A 
HETATM    6  N1  UNL     1      23.899   3.552  50.795  1.00  0.00    -0.244 NA
HETATM    7  C6  UNL     1      25.182   3.213  50.579  1.00  0.00     0.235 A 
HETATM    8  N2  UNL     1      25.743   2.147  51.152  1.00  0.00    -0.224 NA
HETATM    9  C7  UNL     1      24.995   1.392  51.972  1.00  0.00     0.141 A 
HETATM   10  C14 UNL     1      21.773   3.321  51.698  1.00  0.00     0.219 C 
HETATM   11  N4  UNL     1      21.426   4.518  51.045  1.00  0.00    -0.223 N 
HETATM   12  C15 UNL     1      21.026   4.182  49.718  1.00  0.00     0.243 C 
HETATM   13  O2  UNL     1      20.678   5.339  49.484  1.00  0.00    -0.271 OA
HETATM   14  C16 UNL     1      20.907   3.113  48.717  1.00  0.00     0.105 C 
HETATM   15  C17 UNL     1      19.498   2.980  48.131  1.00  0.00     0.009 C 
HETATM   16  C18 UNL     1      18.545   2.673  49.271  1.00  0.00     0.001 C 
HETATM   17  C19 UNL     1      18.890   1.358  49.954  1.00  0.00     0.002 C 
HETATM   18  C20 UNL     1      18.121   1.249  51.226  1.00  0.00     0.026 C 
HETATM   19  C21 UNL     1      18.460   0.154  52.168  1.00  0.00     0.168 C 
HETATM   20  O3  UNL     1      19.651   0.068  52.734  1.00  0.00    -0.387 OA
HETATM   21  C22 UNL     1      20.835  -0.233  52.251  1.00  0.00     0.201 C 
ENDROOT
BRANCH   9  22
HETATM   22  N3  UNL     1      25.608   0.270  52.554  1.00  0.00    -0.340 N 
HETATM   23  H6  UNL     1      24.992  -0.566  52.693  1.00  0.00     0.167 HD
BRANCH  22  24
HETATM   24  C8  UNL     1      26.935   0.057  52.992  1.00  0.00     0.035 A 
HETATM   25  C9  UNL     1      27.572  -1.169  52.763  1.00  0.00     0.032 A 
HETATM   26  C10 UNL     1      28.852  -1.419  53.170  1.00  0.00     0.046 A 
HETATM   27  C11 UNL     1      29.569  -0.452  53.833  1.00  0.00     0.138 A 
HETATM   28  F1  UNL     1      30.814  -0.774  54.199  1.00  0.00    -0.204 F 
HETATM   29  C12 UNL     1      29.007   0.776  54.094  1.00  0.00     0.074 A 
HETATM   30 CL1  UNL     1      29.939   1.989  54.939  1.00  0.00    -0.081 Cl
HETATM   31  C13 UNL     1      27.727   0.962  53.662  1.00  0.00     0.056 A 
ENDBRANCH  22  24
ENDBRANCH   9  22
BRANCH  11  32
HETATM   32  O1  UNL     1      21.543   5.653  51.748  1.00  0.00    -0.284 OA
HETATM   33  H12 UNL     1      20.713   5.994  52.142  1.00  0.00     0.245 HD
ENDBRANCH  11  32
TORSDOF 3
ENDMDL
MODEL 3
REMARK VINA RESULT:      -9.2      6.974     10.504
REMARK  3 active torsions:
REMARK  status: ('A' for Active; 'I' for Inactive)
REMARK    1  A    between atoms: C7_9  and  N3_10 
REMARK    2  A    between atoms: N3_10  and  C8_11 
REMARK    3  A    between atoms: N4_20  and  O1_21 
ROOT
HETATM    1  C1  UNL     1      17.826  -2.213  53.468  1.00  0.00     0.046 C 
HETATM    2  C2  UNL     1      18.429  -0.936  53.003  1.00  0.00    -0.059 C 
HETATM    3  C3  UNL     1      17.942  -0.231  51.990  1.00  0.00     0.022 C 
HETATM    4  C4  UNL     1      18.107   0.981  51.177  1.00  0.00     0.037 A 
HETATM    5  C5  UNL     1      19.212   1.393  50.480  1.00  0.00     0.070 A 
HETATM    6  N1  UNL     1      19.165   2.527  49.809  1.00  0.00    -0.244 NA
HETATM    7  C6  UNL     1      18.051   3.281  49.802  1.00  0.00     0.235 A 
HETATM    8  N2  UNL     1      16.948   2.928  50.463  1.00  0.00    -0.224 NA
HETATM    9  C7  UNL     1      16.957   1.780  51.157  1.00  0.00     0.141 A 
HETATM   10  C14 UNL     1      20.490   0.716  50.405  1.00  0.00     0.219 C 
HETATM   11  N4  UNL     1      21.496   1.253  49.581  1.00  0.00    -0.223 N 
HETATM   12  C15 UNL     1      22.230   2.195  50.361  1.00  0.00     0.243 C 
HETATM   13  O2  UNL     1      23.056   2.359  49.463  1.00  0.00    -0.271 OA
HETATM   14  C16 UNL     1      22.320   2.905  51.644  1.00  0.00     0.105 C 
HETATM   15  C17 UNL     1      23.677   2.747  52.336  1.00  0.00     0.009 C 
HETATM   16  C18 UNL     1      23.900   1.268  52.593  1.00  0.00     0.001 C 
HETATM   17  C19 UNL     1      22.838   0.691  53.518  1.00  0.00     0.002 C 
HETATM   18  C20 UNL     1      22.931  -0.796  53.505  1.00  0.00     0.026 C 
HETATM   19  C21 UNL     1      21.854  -1.579  54.159  1.00  0.00     0.168 C 
HETATM   20  O3  UNL     1      20.603  -1.528  53.737  1.00  0.00    -0.387 OA
HETATM   21  C22 UNL     1      19.693  -0.582  53.796  1.00  0.00     0.201 C 
ENDROOT
BRANCH   9  22
HETATM   22  N3  UNL     1      15.784   1.437  51.853  1.00  0.00    -0.340 N 
HETATM   23  H6  UNL     1      15.568   0.413  51.905  1.00  0.00     0.167 HD
BRANCH  22  24
HETATM   24  C8  UNL     1      14.826   2.239  52.511  1.00  0.00     0.035 A 
HETATM   25  C9  UNL     1      15.135   3.552  52.889  1.00  0.00     0.032 A 
HETATM   26  C10 UNL     1      14.241   4.363  53.529  1.00  0.00     0.046 A 
HETATM   27  C11 UNL     1      12.982   3.903  53.829  1.00  0.00     0.138 A 
HETATM   28  F1  UNL     1      12.165   4.756  54.457  1.00  0.00    -0.204 F 
HETATM   29  C12 UNL     1      12.607   2.623  53.490  1.00  0.00     0.074 A 
HETATM   30 CL1  UNL     1      11.000   2.061  53.883  1.00  0.00    -0.081 Cl
HETATM   31  C13 UNL     1      13.547   1.865  52.853  1.00  0.00     0.056 A 
ENDBRANCH  22  24
ENDBRANCH   9  22
BRANCH  11  32
HETATM   32  O1  UNL     1      21.553   0.810  48.318  1.00  0.00    -0.284 OA
HETATM   33  H12 UNL     1      20.710   0.476  47.948  1.00  0.00     0.245 HD
ENDBRANCH  11  32
TORSDOF 3
ENDMDL
MODEL 4
REMARK VINA RESULT:      -9.0      1.653      2.040
REMARK  3 active torsions:
REMARK  status: ('A' for Active; 'I' for Inactive)
REMARK    1  A    between atoms: C7_9  and  N3_10 
REMARK    2  A    between atoms: N3_10  and  C8_11 
REMARK    3  A    between atoms: N4_20  and  O1_21 
ROOT
HETATM    1  C1  UNL     1      26.892   3.974  49.480  1.00  0.00     0.046 C 
HETATM    2  C2  UNL     1      25.492   3.984  49.981  1.00  0.00    -0.059 C 
HETATM    3  C3  UNL     1      24.898   2.912  50.491  1.00  0.00     0.022 C 
HETATM    4  C4  UNL     1      23.659   2.390  51.084  1.00  0.00     0.037 A 
HETATM    5  C5  UNL     1      22.391   2.420  50.567  1.00  0.00     0.070 A 
HETATM    6  N1  UNL     1      21.399   1.899  51.263  1.00  0.00    -0.244 NA
HETATM    7  C6  UNL     1      21.616   1.342  52.467  1.00  0.00     0.235 A 
HETATM    8  N2  UNL     1      22.830   1.286  53.017  1.00  0.00    -0.224 NA
HETATM    9  C7  UNL     1      23.866   1.806  52.339  1.00  0.00     0.141 A 
HETATM   10  C14 UNL     1      21.984   3.000  49.304  1.00  0.00     0.219 C 
HETATM   11  N4  UNL     1      20.642   2.879  48.901  1.00  0.00    -0.223 N 
HETATM   12  C15 UNL     1      19.929   3.987  49.448  1.00  0.00     0.243 C 
HETATM   13  O2  UNL     1      18.904   3.683  48.837  1.00  0.00    -0.271 OA
HETATM   14  C16 UNL     1      19.992   5.158  50.332  1.00  0.00     0.105 C 
HETATM   15  C17 UNL     1      19.549   6.458  49.655  1.00  0.00     0.009 C 
HETATM   16  C18 UNL     1      20.464   6.704  48.470  1.00  0.00     0.001 C 
HETATM   17  C19 UNL     1      21.912   6.879  48.905  1.00  0.00     0.002 C 
HETATM   18  C20 UNL     1      22.795   6.826  47.705  1.00  0.00     0.026 C 
HETATM   19  C21 UNL     1      24.263   6.753  47.908  1.00  0.00     0.168 C 
HETATM   20  O3  UNL     1      24.829   5.731  48.524  1.00  0.00    -0.387 OA
HETATM   21  C22 UNL     1      24.825   5.350  49.782  1.00  0.00     0.201 C 
ENDROOT
BRANCH   9  22
HETATM   22  N3  UNL     1      25.132   1.742  52.947  1.00  0.00    -0.340 N 
HETATM   23  H6  UNL     1      25.428   2.597  53.473  1.00  0.00     0.167 HD
BRANCH  22  24
HETATM   24  C8  UNL     1      26.096   0.710  52.981  1.00  0.00     0.035 A 
HETATM   25  C9  UNL     1      25.735  -0.610  52.680  1.00  0.00     0.032 A 
HETATM   26  C10 UNL     1      26.633  -1.640  52.703  1.00  0.00     0.046 A 
HETATM   27  C11 UNL     1      27.947  -1.405  53.029  1.00  0.00     0.138 A 
HETATM   28  F1  UNL     1      28.764  -2.465  53.029  1.00  0.00    -0.204 F 
HETATM   29  C12 UNL     1      28.373  -0.134  53.336  1.00  0.00     0.074 A 
HETATM   30 CL1  UNL     1      30.050   0.138  53.749  1.00  0.00    -0.081 Cl
HETATM   31  C13 UNL     1      27.428   0.849  53.296  1.00  0.00     0.056 A 
ENDBRANCH  22  24
ENDBRANCH   9  22
BRANCH  11  32
HETATM   32  O1  UNL     1      20.324   1.818  48.146  1.00  0.00    -0.284 OA
HETATM   33  H12 UNL     1      20.403   1.948  47.178  1.00  0.00     0.245 HD
ENDBRANCH  11  32
TORSDOF 3
ENDMDL
MODEL 5
REMARK VINA RESULT:      -8.9      2.299      4.223
REMARK  3 active torsions:
REMARK  status: ('A' for Active; 'I' for Inactive)
REMARK    1  A    between atoms: C7_9  and  N3_10 
REMARK    2  A    between atoms: N3_10  and  C8_11 
REMARK    3  A    between atoms: N4_20  and  O1_21 
ROOT
HETATM    1  C1  UNL     1      22.564   1.360  52.929  1.00  0.00     0.046 C 
HETATM    2  C2  UNL     1      22.904   2.284  51.814  1.00  0.00    -0.059 C 
HETATM    3  C3  UNL     1      24.101   2.840  51.674  1.00  0.00     0.022 C 
HETATM    4  C4  UNL     1      24.923   3.736  50.850  1.00  0.00     0.037 A 
HETATM    5  C5  UNL     1      24.661   5.029  50.480  1.00  0.00     0.070 A 
HETATM    6  N1  UNL     1      25.529   5.670  49.723  1.00  0.00    -0.244 NA
HETATM    7  C6  UNL     1      26.662   5.075  49.311  1.00  0.00     0.235 A 
HETATM    8  N2  UNL     1      26.967   3.819  49.642  1.00  0.00    -0.224 NA
HETATM    9  C7  UNL     1      26.108   3.132  50.411  1.00  0.00     0.141 A 
HETATM   10  C14 UNL     1      23.485   5.804  50.815  1.00  0.00     0.219 C 
HETATM   11  N4  UNL     1      23.416   7.147  50.402  1.00  0.00    -0.223 N 
HETATM   12  C15 UNL     1      22.849   7.164  49.094  1.00  0.00     0.243 C 
HETATM   13  O2  UNL     1      22.797   8.394  49.087  1.00  0.00    -0.271 OA
HETATM   14  C16 UNL     1      22.387   6.357  47.956  1.00  0.00     0.105 C 
HETATM   15  C17 UNL     1      20.955   6.679  47.522  1.00  0.00     0.009 C 
HETATM   16  C18 UNL     1      20.037   6.412  48.700  1.00  0.00     0.001 C 
HETATM   17  C19 UNL     1      20.076   4.950  49.123  1.00  0.00     0.002 C 
HETATM   18  C20 UNL     1      19.397   4.802  50.442  1.00  0.00     0.026 C 
HETATM   19  C21 UNL     1      19.506   3.506  51.154  1.00  0.00     0.168 C 
HETATM   20  O3  UNL     1      20.671   3.032  51.560  1.00  0.00    -0.387 OA
HETATM   21  C22 UNL     1      21.699   2.544  50.903  1.00  0.00     0.201 C 
ENDROOT
BRANCH   9  22
HETATM   22  N3  UNL     1      26.449   1.808  50.736  1.00  0.00    -0.340 N 
HETATM   23  H6  UNL     1      26.212   1.086  50.015  1.00  0.00     0.167 HD
BRANCH  22  24
HETATM   24  C8  UNL     1      27.070   1.262  51.881  1.00  0.00     0.035 A 
HETATM   25  C9  UNL     1      26.790  -0.050  52.286  1.00  0.00     0.032 A 
HETATM   26  C10 UNL     1      27.365  -0.618  53.387  1.00  0.00     0.046 A 
HETATM   27  C11 UNL     1      28.258   0.097  54.148  1.00  0.00     0.138 A 
HETATM   28  F1  UNL     1      28.777  -0.528  55.210  1.00  0.00    -0.204 F 
HETATM   29  C12 UNL     1      28.581   1.392  53.812  1.00  0.00     0.074 A 
HETATM   30 CL1  UNL     1      29.718   2.281  54.797  1.00  0.00    -0.081 Cl
HETATM   31  C13 UNL     1      27.971   1.900  52.703  1.00  0.00     0.056 A 
ENDBRANCH  22  24
ENDBRANCH   9  22
BRANCH  11  32
HETATM   32  O1  UNL     1      23.871   8.072  51.257  1.00  0.00    -0.284 OA
HETATM   33  H12 UNL     1      23.417   8.108  52.125  1.00  0.00     0.245 HD
ENDBRANCH  11  32
TORSDOF 3
ENDMDL
MODEL 6
REMARK VINA RESULT:      -8.9      2.544      4.680
REMARK  3 active torsions:
REMARK  status: ('A' for Active; 'I' for Inactive)
REMARK    1  A    between atoms: C7_9  and  N3_10 
REMARK    2  A    between atoms: N3_10  and  C8_11 
REMARK    3  A    between atoms: N4_20  and  O1_21 
ROOT
HETATM    1  C1  UNL     1      22.203   4.564  52.069  1.00  0.00     0.046 C 
HETATM    2  C2  UNL     1      22.994   5.174  50.968  1.00  0.00    -0.059 C 
HETATM    3  C3  UNL     1      24.312   5.050  50.870  1.00  0.00     0.022 C 
HETATM    4  C4  UNL     1      25.498   5.399  50.075  1.00  0.00     0.037 A 
HETATM    5  C5  UNL     1      25.933   6.642  49.699  1.00  0.00     0.070 A 
HETATM    6  N1  UNL     1      27.029   6.749  48.973  1.00  0.00    -0.244 NA
HETATM    7  C6  UNL     1      27.720   5.658  48.598  1.00  0.00     0.235 A 
HETATM    8  N2  UNL     1      27.341   4.424  48.937  1.00  0.00    -0.224 NA
HETATM    9  C7  UNL     1      26.231   4.275  49.676  1.00  0.00     0.141 A 
HETATM   10  C14 UNL     1      25.297   7.909  49.996  1.00  0.00     0.219 C 
HETATM   11  N4  UNL     1      25.925   9.098  49.584  1.00  0.00    -0.223 N 
HETATM   12  C15 UNL     1      25.484   9.378  48.257  1.00  0.00     0.243 C 
HETATM   13  O2  UNL     1      26.058  10.467  48.250  1.00  0.00    -0.271 OA
HETATM   14  C16 UNL     1      24.713   8.895  47.103  1.00  0.00     0.105 C 
HETATM   15  C17 UNL     1      23.651   9.887  46.621  1.00  0.00     0.009 C 
HETATM   16  C18 UNL     1      22.688  10.135  47.768  1.00  0.00     0.001 C 
HETATM   17  C19 UNL     1      21.974   8.859  48.189  1.00  0.00     0.002 C 
HETATM   18  C20 UNL     1      21.273   9.093  49.483  1.00  0.00     0.026 C 
HETATM   19  C21 UNL     1      20.694   7.928  50.197  1.00  0.00     0.168 C 
HETATM   20  O3  UNL     1      21.449   6.940  50.641  1.00  0.00    -0.387 OA
HETATM   21  C22 UNL     1      22.112   5.991  50.018  1.00  0.00     0.201 C 
ENDROOT
BRANCH   9  22
HETATM   22  N3  UNL     1      25.849   2.964  50.009  1.00  0.00    -0.340 N 
HETATM   23  H6  UNL     1      25.395   2.412  49.243  1.00  0.00     0.167 HD
BRANCH  22  24
HETATM   24  C8  UNL     1      25.973   2.237  51.215  1.00  0.00     0.035 A 
HETATM   25  C9  UNL     1      24.888   1.511  51.723  1.00  0.00     0.032 A 
HETATM   26  C10 UNL     1      24.962   0.797  52.885  1.00  0.00     0.046 A 
HETATM   27  C11 UNL     1      26.131   0.768  53.606  1.00  0.00     0.138 A 
HETATM   28  F1  UNL     1      26.124   0.046  54.733  1.00  0.00    -0.204 F 
HETATM   29  C12 UNL     1      27.238   1.457  53.169  1.00  0.00     0.074 A 
HETATM   30 CL1  UNL     1      28.713   1.406  54.105  1.00  0.00    -0.081 Cl
HETATM   31  C13 UNL     1      27.098   2.152  52.003  1.00  0.00     0.056 A 
ENDBRANCH  22  24
ENDBRANCH   9  22
BRANCH  11  32
HETATM   32  O1  UNL     1      26.758   9.682  50.455  1.00  0.00    -0.284 OA
HETATM   33  H12 UNL     1      26.689   9.370  51.382  1.00  0.00     0.245 HD
ENDBRANCH  11  32
TORSDOF 3
ENDMDL
MODEL 7
REMARK VINA RESULT:      -8.5      4.356      6.505
REMARK  3 active torsions:
REMARK  status: ('A' for Active; 'I' for Inactive)
REMARK    1  A    between atoms: C7_9  and  N3_10 
REMARK    2  A    between atoms: N3_10  and  C8_11 
REMARK    3  A    between atoms: N4_20  and  O1_21 
ROOT
HETATM    1  C1  UNL     1      31.153   4.869  47.821  1.00  0.00     0.046 C 
HETATM    2  C2  UNL     1      30.190   5.947  48.171  1.00  0.00    -0.059 C 
HETATM    3  C3  UNL     1      28.880   5.836  47.986  1.00  0.00     0.022 C 
HETATM    4  C4  UNL     1      27.583   6.508  48.134  1.00  0.00     0.037 A 
HETATM    5  C5  UNL     1      27.198   7.730  47.648  1.00  0.00     0.070 A 
HETATM    6  N1  UNL     1      25.979   8.167  47.896  1.00  0.00    -0.244 NA
HETATM    7  C6  UNL     1      25.113   7.432  48.616  1.00  0.00     0.235 A 
HETATM    8  N2  UNL     1      25.434   6.236  49.112  1.00  0.00    -0.224 NA
HETATM    9  C7  UNL     1      26.667   5.757  48.881  1.00  0.00     0.141 A 
HETATM   10  C14 UNL     1      28.011   8.652  46.882  1.00  0.00     0.219 C 
HETATM   11  N4  UNL     1      27.426   9.840  46.407  1.00  0.00    -0.223 N 
HETATM   12  C15 UNL     1      27.568  10.825  47.427  1.00  0.00     0.243 C 
HETATM   13  O2  UNL     1      27.121  11.708  46.695  1.00  0.00    -0.271 OA
HETATM   14  C16 UNL     1      27.994  11.096  48.808  1.00  0.00     0.105 C 
HETATM   15  C17 UNL     1      29.007  12.238  48.921  1.00  0.00     0.009 C 
HETATM   16  C18 UNL     1      30.232  11.859  48.110  1.00  0.00     0.001 C 
HETATM   17  C19 UNL     1      30.893  10.597  48.647  1.00  0.00     0.002 C 
HETATM   18  C20 UNL     1      31.899  10.112  47.660  1.00  0.00     0.026 C 
HETATM   19  C21 UNL     1      32.509   8.776  47.868  1.00  0.00     0.168 C 
HETATM   20  O3  UNL     1      31.784   7.672  47.861  1.00  0.00    -0.387 OA
HETATM   21  C22 UNL     1      30.901   7.194  48.709  1.00  0.00     0.201 C 
ENDROOT
BRANCH   9  22
HETATM   22  N3  UNL     1      26.982   4.499  49.423  1.00  0.00    -0.340 N 
HETATM   23  H6  UNL     1      27.976   4.189  49.308  1.00  0.00     0.167 HD
BRANCH  22  24
HETATM   24  C8  UNL     1      26.187   3.559  50.116  1.00  0.00     0.035 A 
HETATM   25  C9  UNL     1      26.740   2.771  51.133  1.00  0.00     0.032 A 
HETATM   26  C10 UNL     1      26.010   1.848  51.827  1.00  0.00     0.046 A 
HETATM   27  C11 UNL     1      24.679   1.662  51.541  1.00  0.00     0.138 A 
HETATM   28  F1  UNL     1      24.033   0.741  52.264  1.00  0.00    -0.204 F 
HETATM   29  C12 UNL     1      24.067   2.400  50.554  1.00  0.00     0.074 A 
HETATM   30 CL1  UNL     1      22.373   2.145  50.209  1.00  0.00    -0.081 Cl
HETATM   31  C13 UNL     1      24.852   3.303  49.899  1.00  0.00     0.056 A 
ENDBRANCH  22  24
ENDBRANCH   9  22
BRANCH  11  32
HETATM   32  O1  UNL     1      26.885   9.806  45.182  1.00  0.00    -0.284 OA
HETATM   33  H12 UNL     1      26.223   9.099  45.030  1.00  0.00     0.245 HD
ENDBRANCH  11  32
TORSDOF 3
ENDMDL
MODEL 8
REMARK VINA RESULT:      -8.4      3.474      5.808
REMARK  3 active torsions:
REMARK  status: ('A' for Active; 'I' for Inactive)
REMARK    1  A    between atoms: C7_9  and  N3_10 
REMARK    2  A    between atoms: N3_10  and  C8_11 
REMARK    3  A    between atoms: N4_20  and  O1_21 
ROOT
HETATM    1  C1  UNL     1      19.046   4.157  49.077  1.00  0.00     0.046 C 
HETATM    2  C2  UNL     1      20.529   4.259  49.083  1.00  0.00    -0.059 C 
HETATM    3  C3  UNL     1      21.287   3.732  50.036  1.00  0.00     0.022 C 
HETATM    4  C4  UNL     1      22.664   3.538  50.509  1.00  0.00     0.037 A 
HETATM    5  C5  UNL     1      23.621   4.487  50.754  1.00  0.00     0.070 A 
HETATM    6  N1  UNL     1      24.812   4.108  51.172  1.00  0.00    -0.244 NA
HETATM    7  C6  UNL     1      25.099   2.808  51.360  1.00  0.00     0.235 A 
HETATM    8  N2  UNL     1      24.206   1.843  51.138  1.00  0.00    -0.224 NA
HETATM    9  C7  UNL     1      22.981   2.189  50.711  1.00  0.00     0.141 A 
HETATM   10  C14 UNL     1      23.484   5.918  50.579  1.00  0.00     0.219 C 
HETATM   11  N4  UNL     1      24.556   6.753  50.946  1.00  0.00    -0.223 N 
HETATM   12  C15 UNL     1      25.417   6.866  49.815  1.00  0.00     0.243 C 
HETATM   13  O2  UNL     1      26.116   7.708  50.378  1.00  0.00    -0.271 OA
HETATM   14  C16 UNL     1      25.700   6.403  48.449  1.00  0.00     0.105 C 
HETATM   15  C17 UNL     1      25.825   7.542  47.433  1.00  0.00     0.009 C 
HETATM   16  C18 UNL     1      24.511   8.300  47.417  1.00  0.00     0.001 C 
HETATM   17  C19 UNL     1      23.355   7.411  46.979  1.00  0.00     0.002 C 
HETATM   18  C20 UNL     1      22.067   8.110  47.256  1.00  0.00     0.026 C 
HETATM   19  C21 UNL     1      20.803   7.347  47.116  1.00  0.00     0.168 C 
HETATM   20  O3  UNL     1      20.539   6.295  47.870  1.00  0.00    -0.387 OA
HETATM   21  C22 UNL     1      21.048   5.083  47.899  1.00  0.00     0.201 C 
ENDROOT
BRANCH   9  22
HETATM   22  N3  UNL     1      22.063   1.151  50.475  1.00  0.00    -0.340 N 
HETATM   23  H6  UNL     1      22.045   0.772  49.499  1.00  0.00     0.167 HD
BRANCH  22  24
HETATM   24  C8  UNL     1      21.144   0.509  51.335  1.00  0.00     0.035 A 
HETATM   25  C9  UNL     1      19.770   0.548  51.063  1.00  0.00     0.032 A 
HETATM   26  C10 UNL     1      18.845  -0.056  51.867  1.00  0.00     0.046 A 
HETATM   27  C11 UNL     1      19.245  -0.736  52.992  1.00  0.00     0.138 A 
HETATM   28  F1  UNL     1      18.280  -1.299  53.728  1.00  0.00    -0.204 F 
HETATM   29  C12 UNL     1      20.578  -0.815  53.322  1.00  0.00     0.074 A 
HETATM   30 CL1  UNL     1      21.061  -1.685  54.759  1.00  0.00    -0.081 Cl
HETATM   31  C13 UNL     1      21.450  -0.190  52.479  1.00  0.00     0.056 A 
ENDBRANCH  22  24
ENDBRANCH   9  22
BRANCH  11  32
HETATM   32  O1  UNL     1      24.556   7.232  52.197  1.00  0.00    -0.284 OA
HETATM   33  H12 UNL     1      25.438   7.355  52.604  1.00  0.00     0.245 HD
ENDBRANCH  11  32
TORSDOF 3
ENDMDL
MODEL 9
REMARK VINA RESULT:      -8.3      4.409      7.204
REMARK  3 active torsions:
REMARK  status: ('A' for Active; 'I' for Inactive)
REMARK    1  A    between atoms: C7_9  and  N3_10 
REMARK    2  A    between atoms: N3_10  and  C8_11 
REMARK    3  A    between atoms: N4_20  and  O1_21 
ROOT
HETATM    1  C1  UNL     1      24.453   2.618  53.352  1.00  0.00     0.046 C 
HETATM    2  C2  UNL     1      23.334   2.451  52.387  1.00  0.00    -0.059 C 
HETATM    3  C3  UNL     1      22.933   3.415  51.569  1.00  0.00     0.022 C 
HETATM    4  C4  UNL     1      21.981   3.778  50.511  1.00  0.00     0.037 A 
HETATM    5  C5  UNL     1      20.613   3.707  50.538  1.00  0.00     0.070 A 
HETATM    6  N1  UNL     1      19.928   4.076  49.474  1.00  0.00    -0.244 NA
HETATM    7  C6  UNL     1      20.552   4.519  48.368  1.00  0.00     0.235 A 
HETATM    8  N2  UNL     1      21.880   4.609  48.287  1.00  0.00    -0.224 NA
HETATM    9  C7  UNL     1      22.612   4.242  49.351  1.00  0.00     0.141 A 
HETATM   10  C14 UNL     1      19.792   3.233  51.633  1.00  0.00     0.219 C 
HETATM   11  N4  UNL     1      18.392   3.295  51.508  1.00  0.00    -0.223 N 
HETATM   12  C15 UNL     1      17.964   2.085  50.885  1.00  0.00     0.243 C 
HETATM   13  O2  UNL     1      16.778   2.373  51.045  1.00  0.00    -0.271 OA
HETATM   14  C16 UNL     1      18.384   0.836  50.236  1.00  0.00     0.105 C 
HETATM   15  C17 UNL     1      17.765  -0.416  50.865  1.00  0.00     0.009 C 
HETATM   16  C18 UNL     1      18.192  -0.468  52.320  1.00  0.00     0.001 C 
HETATM   17  C19 UNL     1      19.704  -0.577  52.459  1.00  0.00     0.002 C 
HETATM   18  C20 UNL     1      20.085  -0.334  53.879  1.00  0.00     0.026 C 
HETATM   19  C21 UNL     1      21.522  -0.171  54.209  1.00  0.00     0.168 C 
HETATM   20  O3  UNL     1      22.241   0.820  53.715  1.00  0.00    -0.387 OA
HETATM   21  C22 UNL     1      22.685   1.067  52.503  1.00  0.00     0.201 C 
ENDROOT
BRANCH   9  22
HETATM   22  N3  UNL     1      24.010   4.337  49.235  1.00  0.00    -0.340 N 
HETATM   23  H6  UNL     1      24.511   3.445  49.011  1.00  0.00     0.167 HD
BRANCH  22  24
HETATM   24  C8  UNL     1      24.881   5.442  49.365  1.00  0.00     0.035 A 
HETATM   25  C9  UNL     1      24.591   6.474  50.268  1.00  0.00     0.032 A 
HETATM   26  C10 UNL     1      25.403   7.562  50.425  1.00  0.00     0.046 A 
HETATM   27  C11 UNL     1      26.555   7.678  49.685  1.00  0.00     0.138 A 
HETATM   28  F1  UNL     1      27.296   8.772  49.896  1.00  0.00    -0.204 F 
HETATM   29  C12 UNL     1      26.903   6.704  48.778  1.00  0.00     0.074 A 
HETATM   30 CL1  UNL     1      28.373   6.876  47.848  1.00  0.00    -0.081 Cl
HETATM   31  C13 UNL     1      26.050   5.645  48.669  1.00  0.00     0.056 A 
ENDBRANCH  22  24
ENDBRANCH   9  22
BRANCH  11  32
HETATM   32  O1  UNL     1      17.787   4.401  51.961  1.00  0.00    -0.284 OA
HETATM   33  H12 UNL     1      18.065   5.239  51.538  1.00  0.00     0.245 HD
ENDBRANCH  11  32
TORSDOF 3
ENDMDL
