MODEL 1
REMARK VINA RESULT:      -8.2      0.000      0.000
REMARK  6 active torsions:
REMARK  status: ('A' for Active; 'I' for Inactive)
REMARK    1  A    between atoms: O1_2  and  C2_3 
REMARK    2  A    between atoms: C6_9  and  N3_10 
REMARK    3  A    between atoms: N3_10  and  C7_11 
REMARK    4  A    between atoms: C7_11  and  O2_12 
REMARK    5  A    between atoms: C9_14  and  C10_15 
REMARK    6  A    between atoms: C18_23  and  O3_24 
ROOT
HETATM    1  C2  UNL     1      25.671   0.716  53.513  1.00  0.00     0.103 A 
HETATM    2  C3  UNL     1      24.499   0.259  52.985  1.00  0.00     0.072 A 
HETATM    3  C4  UNL     1      23.522   1.124  52.575  1.00  0.00     0.075 A 
HETATM    4  N1  UNL     1      22.381   0.618  52.059  1.00  0.00    -0.241 NA
HETATM    5  C5  UNL     1      21.396   1.468  51.645  1.00  0.00     0.236 A 
HETATM    6  N2  UNL     1      21.521   2.798  51.732  1.00  0.00    -0.224 NA
HETATM    7  C6  UNL     1      22.636   3.342  52.238  1.00  0.00     0.140 A 
HETATM    8  C16 UNL     1      23.630   2.496  52.656  1.00  0.00     0.041 A 
HETATM    9  C17 UNL     1      24.826   2.914  53.194  1.00  0.00     0.057 A 
HETATM   10  C18 UNL     1      25.835   2.078  53.619  1.00  0.00     0.100 A 
ENDROOT
BRANCH   7  11
HETATM   11  N3  UNL     1      22.812   4.764  52.350  1.00  0.00    -0.342 N 
HETATM   12  H6  UNL     1      22.362   5.306  53.099  1.00  0.00     0.164 HD
BRANCH  11  13
HETATM   13  C7  UNL     1      23.615   5.575  51.458  1.00  0.00     0.141 A 
HETATM   14  C8  UNL     1      22.973   6.110  50.189  1.00  0.00     0.076 A 
HETATM   15  C9  UNL     1      24.006   5.001  50.143  1.00  0.00     0.079 A 
BRANCH  13  16
HETATM   16  O2  UNL     1      24.495   6.493  52.068  1.00  0.00    -0.370 OA
HETATM   17  H7  UNL     1      25.408   6.132  51.897  1.00  0.00     0.212 HD
ENDBRANCH  13  16
BRANCH  15  18
HETATM   18  C10 UNL     1      25.274   5.402  49.468  1.00  0.00    -0.049 A 
HETATM   19  C11 UNL     1      25.540   6.609  48.894  1.00  0.00     0.007 A 
HETATM   20  C12 UNL     1      26.747   6.888  48.294  1.00  0.00     0.001 A 
HETATM   21  C13 UNL     1      27.759   5.956  48.240  1.00  0.00     0.000 A 
HETATM   22  C14 UNL     1      27.553   4.714  48.802  1.00  0.00     0.001 A 
HETATM   23  C15 UNL     1      26.330   4.484  49.390  1.00  0.00     0.007 A 
ENDBRANCH  15  18
ENDBRANCH  11  13
ENDBRANCH   7  11
BRANCH  10  24
HETATM   24  O3  UNL     1      27.030   2.569  54.158  1.00  0.00    -0.358 OA
HETATM   25  H17 UNL     1      27.266   3.536  54.121  1.00  0.00     0.217 HD
ENDBRANCH  10  24
BRANCH   1  26
HETATM   26  O1  UNL     1      26.686  -0.115  53.941  1.00  0.00    -0.353 OA
HETATM   27  C1  UNL     1      27.573  -0.811  53.106  1.00  0.00     0.210 C 
ENDBRANCH   1  26
TORSDOF 6
ENDMDL
MODEL 2
REMARK VINA RESULT:      -7.7      2.596      7.198
REMARK  6 active torsions:
REMARK  status: ('A' for Active; 'I' for Inactive)
REMARK    1  A    between atoms: O1_2  and  C2_3 
REMARK    2  A    between atoms: C6_9  and  N3_10 
REMARK    3  A    between atoms: N3_10  and  C7_11 
REMARK    4  A    between atoms: C7_11  and  O2_12 
REMARK    5  A    between atoms: C9_14  and  C10_15 
REMARK    6  A    between atoms: C18_23  and  O3_24 
ROOT
HETATM    1  C2  UNL     1      27.452   6.536  48.147  1.00  0.00     0.103 A 
HETATM    2  C3  UNL     1      26.178   6.785  48.563  1.00  0.00     0.072 A 
HETATM    3  C4  UNL     1      25.484   5.871  49.307  1.00  0.00     0.075 A 
HETATM    4  N1  UNL     1      24.225   6.168  49.693  1.00  0.00    -0.241 NA
HETATM    5  C5  UNL     1      23.519   5.267  50.437  1.00  0.00     0.236 A 
HETATM    6  N2  UNL     1      24.035   4.086  50.802  1.00  0.00    -0.224 NA
HETATM    7  C6  UNL     1      25.280   3.751  50.440  1.00  0.00     0.140 A 
HETATM    8  C16 UNL     1      25.996   4.650  49.693  1.00  0.00     0.041 A 
HETATM    9  C17 UNL     1      27.283   4.439  49.253  1.00  0.00     0.057 A 
HETATM   10  C18 UNL     1      28.016   5.332  48.502  1.00  0.00     0.100 A 
ENDROOT
BRANCH   7  11
HETATM   11  N3  UNL     1      25.874   2.495  50.810  1.00  0.00    -0.342 N 
HETATM   12  H6  UNL     1      26.428   1.942  50.143  1.00  0.00     0.164 HD
BRANCH  11  13
HETATM   13  C7  UNL     1      25.769   1.878  52.116  1.00  0.00     0.141 A 
HETATM   14  C8  UNL     1      26.859   0.913  52.552  1.00  0.00     0.076 A 
HETATM   15  C9  UNL     1      25.471   0.422  52.186  1.00  0.00     0.079 A 
BRANCH  13  16
HETATM   16  O2  UNL     1      25.301   2.701  53.161  1.00  0.00    -0.370 OA
HETATM   17  H7  UNL     1      26.040   2.719  53.831  1.00  0.00     0.212 HD
ENDBRANCH  13  16
BRANCH  15  18
HETATM   18  C10 UNL     1      24.728  -0.162  53.341  1.00  0.00    -0.049 A 
HETATM   19  C11 UNL     1      25.273  -0.674  54.479  1.00  0.00     0.007 A 
HETATM   20  C12 UNL     1      24.501  -1.192  55.495  1.00  0.00     0.001 A 
HETATM   21  C13 UNL     1      23.127  -1.221  55.415  1.00  0.00     0.000 A 
HETATM   22  C14 UNL     1      22.514  -0.718  54.287  1.00  0.00     0.001 A 
HETATM   23  C15 UNL     1      23.328  -0.212  53.300  1.00  0.00     0.007 A 
ENDBRANCH  15  18
ENDBRANCH  11  13
ENDBRANCH   7  11
BRANCH  10  24
HETATM   24  O3  UNL     1      29.324   5.055  48.086  1.00  0.00    -0.358 OA
HETATM   25  H17 UNL     1      29.539   4.834  47.138  1.00  0.00     0.217 HD
ENDBRANCH  10  24
BRANCH   1  26
HETATM   26  O1  UNL     1      28.193   7.424  47.394  1.00  0.00    -0.353 OA
HETATM   27  C1  UNL     1      27.993   8.812  47.347  1.00  0.00     0.210 C 
ENDBRANCH   1  26
TORSDOF 6
ENDMDL
MODEL 3
REMARK VINA RESULT:      -7.7      1.492      2.053
REMARK  6 active torsions:
REMARK  status: ('A' for Active; 'I' for Inactive)
REMARK    1  A    between atoms: O1_2  and  C2_3 
REMARK    2  A    between atoms: C6_9  and  N3_10 
REMARK    3  A    between atoms: N3_10  and  C7_11 
REMARK    4  A    between atoms: C7_11  and  O2_12 
REMARK    5  A    between atoms: C9_14  and  C10_15 
REMARK    6  A    between atoms: C18_23  and  O3_24 
ROOT
HETATM    1  C2  UNL     1      28.142   0.561  53.308  1.00  0.00     0.103 A 
HETATM    2  C3  UNL     1      27.002  -0.178  53.190  1.00  0.00     0.072 A 
HETATM    3  C4  UNL     1      25.773   0.420  53.145  1.00  0.00     0.075 A 
HETATM    4  N1  UNL     1      24.676  -0.359  53.028  1.00  0.00    -0.241 NA
HETATM    5  C5  UNL     1      23.441   0.222  52.981  1.00  0.00     0.236 A 
HETATM    6  N2  UNL     1      23.276   1.549  53.048  1.00  0.00    -0.224 NA
HETATM    7  C6  UNL     1      24.337   2.358  53.165  1.00  0.00     0.140 A 
HETATM    8  C16 UNL     1      25.581   1.784  53.212  1.00  0.00     0.041 A 
HETATM    9  C17 UNL     1      26.756   2.490  53.330  1.00  0.00     0.057 A 
HETATM   10  C18 UNL     1      28.012   1.929  53.380  1.00  0.00     0.100 A 
ENDROOT
BRANCH   7  11
HETATM   11  N3  UNL     1      24.206   3.788  53.239  1.00  0.00    -0.342 N 
HETATM   12  H6  UNL     1      24.249   4.288  54.136  1.00  0.00     0.164 HD
BRANCH  11  13
HETATM   13  C7  UNL     1      24.008   4.665  52.104  1.00  0.00     0.141 A 
HETATM   14  C8  UNL     1      23.003   4.257  51.039  1.00  0.00     0.076 A 
HETATM   15  C9  UNL     1      24.495   4.215  50.772  1.00  0.00     0.079 A 
BRANCH  13  16
HETATM   16  O2  UNL     1      24.004   6.049  52.375  1.00  0.00    -0.370 OA
HETATM   17  H7  UNL     1      23.735   6.128  53.331  1.00  0.00     0.212 HD
ENDBRANCH  13  16
BRANCH  15  18
HETATM   18  C10 UNL     1      24.938   5.195  49.737  1.00  0.00    -0.049 A 
HETATM   19  C11 UNL     1      24.138   6.029  49.016  1.00  0.00     0.007 A 
HETATM   20  C12 UNL     1      24.643   6.904  48.080  1.00  0.00     0.001 A 
HETATM   21  C13 UNL     1      25.992   6.985  47.820  1.00  0.00     0.000 A 
HETATM   22  C14 UNL     1      26.856   6.167  48.518  1.00  0.00     0.001 A 
HETATM   23  C15 UNL     1      26.304   5.310  49.442  1.00  0.00     0.007 A 
ENDBRANCH  15  18
ENDBRANCH  11  13
ENDBRANCH   7  11
BRANCH  10  24
HETATM   24  O3  UNL     1      29.170   2.707  53.501  1.00  0.00    -0.358 OA
HETATM   25  H17 UNL     1      29.517   3.001  54.387  1.00  0.00     0.217 HD
ENDBRANCH  10  24
BRANCH   1  26
HETATM   26  O1  UNL     1      29.405   0.006  53.358  1.00  0.00    -0.353 OA
HETATM   27  C1  UNL     1      29.686  -1.357  53.535  1.00  0.00     0.210 C 
ENDBRANCH   1  26
TORSDOF 6
ENDMDL
MODEL 4
REMARK VINA RESULT:      -7.6      2.607      3.309
REMARK  6 active torsions:
REMARK  status: ('A' for Active; 'I' for Inactive)
REMARK    1  A    between atoms: O1_2  and  C2_3 
REMARK    2  A    between atoms: C6_9  and  N3_10 
REMARK    3  A    between atoms: N3_10  and  C7_11 
REMARK    4  A    between atoms: C7_11  and  O2_12 
REMARK    5  A    between atoms: C9_14  and  C10_15 
REMARK    6  A    between atoms: C18_23  and  O3_24 
ROOT
HETATM    1  C2  UNL     1      28.500   0.552  53.671  1.00  0.00     0.103 A 
HETATM    2  C3  UNL     1      27.399  -0.251  53.722  1.00  0.00     0.072 A 
HETATM    3  C4  UNL     1      26.141   0.261  53.558  1.00  0.00     0.075 A 
HETATM    4  N1  UNL     1      25.085  -0.578  53.619  1.00  0.00    -0.241 NA
HETATM    5  C5  UNL     1      23.822  -0.084  53.457  1.00  0.00     0.236 A 
HETATM    6  N2  UNL     1      23.591   1.217  53.239  1.00  0.00    -0.224 NA
HETATM    7  C6  UNL     1      24.609   2.084  53.172  1.00  0.00     0.140 A 
HETATM    8  C16 UNL     1      25.880   1.596  53.333  1.00  0.00     0.041 A 
HETATM    9  C17 UNL     1      27.018   2.369  53.289  1.00  0.00     0.057 A 
HETATM   10  C18 UNL     1      28.301   1.895  53.449  1.00  0.00     0.100 A 
ENDROOT
BRANCH   7  11
HETATM   11  N3  UNL     1      24.407   3.488  52.940  1.00  0.00    -0.342 N 
HETATM   12  H6  UNL     1      24.439   4.172  53.707  1.00  0.00     0.164 HD
BRANCH  11  13
HETATM   13  C7  UNL     1      24.144   4.088  51.648  1.00  0.00     0.141 A 
HETATM   14  C8  UNL     1      23.206   5.282  51.580  1.00  0.00     0.076 A 
HETATM   15  C9  UNL     1      22.789   3.921  51.057  1.00  0.00     0.079 A 
BRANCH  13  16
HETATM   16  O2  UNL     1      25.242   4.190  50.770  1.00  0.00    -0.370 OA
HETATM   17  H7  UNL     1      26.027   4.380  51.353  1.00  0.00     0.212 HD
ENDBRANCH  13  16
BRANCH  15  18
HETATM   18  C10 UNL     1      22.586   3.893  49.579  1.00  0.00    -0.049 A 
HETATM   19  C11 UNL     1      22.476   4.973  48.756  1.00  0.00     0.007 A 
HETATM   20  C12 UNL     1      22.292   4.846  47.397  1.00  0.00     0.001 A 
HETATM   21  C13 UNL     1      22.209   3.613  46.791  1.00  0.00     0.000 A 
HETATM   22  C14 UNL     1      22.314   2.479  47.570  1.00  0.00     0.001 A 
HETATM   23  C15 UNL     1      22.497   2.658  48.922  1.00  0.00     0.007 A 
ENDBRANCH  15  18
ENDBRANCH  11  13
ENDBRANCH   7  11
BRANCH  10  24
HETATM   24  O3  UNL     1      29.417   2.738  53.392  1.00  0.00    -0.358 OA
HETATM   25  H17 UNL     1      29.464   3.508  52.762  1.00  0.00     0.217 HD
ENDBRANCH  10  24
BRANCH   1  26
HETATM   26  O1  UNL     1      29.789   0.084  53.830  1.00  0.00    -0.353 OA
HETATM   27  C1  UNL     1      30.168  -1.267  53.833  1.00  0.00     0.210 C 
ENDBRANCH   1  26
TORSDOF 6
ENDMDL
MODEL 5
REMARK VINA RESULT:      -7.5      2.712      6.036
REMARK  6 active torsions:
REMARK  status: ('A' for Active; 'I' for Inactive)
REMARK    1  A    between atoms: O1_2  and  C2_3 
REMARK    2  A    between atoms: C6_9  and  N3_10 
REMARK    3  A    between atoms: N3_10  and  C7_11 
REMARK    4  A    between atoms: C7_11  and  O2_12 
REMARK    5  A    between atoms: C9_14  and  C10_15 
REMARK    6  A    between atoms: C18_23  and  O3_24 
ROOT
HETATM    1  C2  UNL     1      27.643   0.249  53.911  1.00  0.00     0.103 A 
HETATM    2  C3  UNL     1      27.859   1.037  52.820  1.00  0.00     0.072 A 
HETATM    3  C4  UNL     1      26.851   1.782  52.273  1.00  0.00     0.075 A 
HETATM    4  N1  UNL     1      27.120   2.546  51.192  1.00  0.00    -0.241 NA
HETATM    5  C5  UNL     1      26.124   3.296  50.634  1.00  0.00     0.236 A 
HETATM    6  N2  UNL     1      24.878   3.301  51.124  1.00  0.00    -0.224 NA
HETATM    7  C6  UNL     1      24.568   2.558  52.194  1.00  0.00     0.140 A 
HETATM    8  C16 UNL     1      25.561   1.802  52.761  1.00  0.00     0.041 A 
HETATM    9  C17 UNL     1      25.387   0.994  53.861  1.00  0.00     0.057 A 
HETATM   10  C18 UNL     1      26.373   0.229  54.442  1.00  0.00     0.100 A 
ENDROOT
BRANCH   7  11
HETATM   11  N3  UNL     1      23.244   2.534  52.753  1.00  0.00    -0.342 N 
HETATM   12  H6  UNL     1      23.060   2.831  53.720  1.00  0.00     0.164 HD
BRANCH  11  13
HETATM   13  C7  UNL     1      22.052   2.106  52.049  1.00  0.00     0.141 A 
HETATM   14  C8  UNL     1      20.965   3.132  51.775  1.00  0.00     0.076 A 
HETATM   15  C9  UNL     1      20.773   2.037  52.806  1.00  0.00     0.079 A 
BRANCH  13  16
HETATM   16  O2  UNL     1      22.243   1.198  50.988  1.00  0.00    -0.370 OA
HETATM   17  H7  UNL     1      23.068   1.509  50.522  1.00  0.00     0.212 HD
ENDBRANCH  13  16
BRANCH  15  18
HETATM   18  C10 UNL     1      19.708   1.059  52.440  1.00  0.00    -0.049 A 
HETATM   19  C11 UNL     1      18.863   1.143  51.374  1.00  0.00     0.007 A 
HETATM   20  C12 UNL     1      17.908   0.186  51.116  1.00  0.00     0.001 A 
HETATM   21  C13 UNL     1      17.753  -0.917  51.925  1.00  0.00     0.000 A 
HETATM   22  C14 UNL     1      18.578  -1.060  53.022  1.00  0.00     0.001 A 
HETATM   23  C15 UNL     1      19.516  -0.077  53.238  1.00  0.00     0.007 A 
ENDBRANCH  15  18
ENDBRANCH  11  13
ENDBRANCH   7  11
BRANCH  10  24
HETATM   24  O3  UNL     1      26.128  -0.574  55.563  1.00  0.00    -0.358 OA
HETATM   25  H17 UNL     1      25.666  -1.453  55.490  1.00  0.00     0.217 HD
ENDBRANCH  10  24
BRANCH   1  26
HETATM   26  O1  UNL     1      28.626  -0.521  54.499  1.00  0.00    -0.353 OA
HETATM   27  C1  UNL     1      29.787  -0.981  53.861  1.00  0.00     0.210 C 
ENDBRANCH   1  26
TORSDOF 6
ENDMDL
MODEL 6
REMARK VINA RESULT:      -7.4      2.385      3.169
REMARK  6 active torsions:
REMARK  status: ('A' for Active; 'I' for Inactive)
REMARK    1  A    between atoms: O1_2  and  C2_3 
REMARK    2  A    between atoms: C6_9  and  N3_10 
REMARK    3  A    between atoms: N3_10  and  C7_11 
REMARK    4  A    between atoms: C7_11  and  O2_12 
REMARK    5  A    between atoms: C9_14  and  C10_15 
REMARK    6  A    between atoms: C18_23  and  O3_24 
ROOT
HETATM    1  C2  UNL     1      22.967   0.016  53.577  1.00  0.00     0.103 A 
HETATM    2  C3  UNL     1      24.320  -0.046  53.418  1.00  0.00     0.072 A 
HETATM    3  C4  UNL     1      24.999   0.934  52.747  1.00  0.00     0.075 A 
HETATM    4  N1  UNL     1      26.339   0.824  52.618  1.00  0.00    -0.241 NA
HETATM    5  C5  UNL     1      27.032   1.793  51.952  1.00  0.00     0.236 A 
HETATM    6  N2  UNL     1      26.426   2.859  51.415  1.00  0.00    -0.224 NA
HETATM    7  C6  UNL     1      25.099   3.008  51.519  1.00  0.00     0.140 A 
HETATM    8  C16 UNL     1      24.395   2.039  52.187  1.00  0.00     0.041 A 
HETATM    9  C17 UNL     1      23.031   2.062  52.370  1.00  0.00     0.057 A 
HETATM   10  C18 UNL     1      22.309   1.098  53.038  1.00  0.00     0.100 A 
ENDROOT
BRANCH   7  11
HETATM   11  N3  UNL     1      24.408   4.136  50.959  1.00  0.00    -0.342 N 
HETATM   12  H6  UNL     1      23.392   4.254  51.064  1.00  0.00     0.164 HD
BRANCH  11  13
HETATM   13  C7  UNL     1      25.033   5.205  50.207  1.00  0.00     0.141 A 
HETATM   14  C8  UNL     1      24.453   5.574  48.852  1.00  0.00     0.076 A 
HETATM   15  C9  UNL     1      25.782   4.853  48.971  1.00  0.00     0.079 A 
BRANCH  13  16
HETATM   16  O2  UNL     1      25.470   6.321  50.950  1.00  0.00    -0.370 OA
HETATM   17  H7  UNL     1      25.898   6.927  50.284  1.00  0.00     0.212 HD
ENDBRANCH  13  16
BRANCH  15  18
HETATM   18  C10 UNL     1      26.941   5.669  48.507  1.00  0.00    -0.049 A 
HETATM   19  C11 UNL     1      26.899   6.955  48.061  1.00  0.00     0.007 A 
HETATM   20  C12 UNL     1      28.029   7.629  47.654  1.00  0.00     0.001 A 
HETATM   21  C13 UNL     1      29.271   7.037  47.676  1.00  0.00     0.000 A 
HETATM   22  C14 UNL     1      29.381   5.735  48.118  1.00  0.00     0.001 A 
HETATM   23  C15 UNL     1      28.224   5.104  48.513  1.00  0.00     0.007 A 
ENDBRANCH  15  18
ENDBRANCH  11  13
ENDBRANCH   7  11
BRANCH  10  24
HETATM   24  O3  UNL     1      20.920   1.181  53.189  1.00  0.00    -0.358 OA
HETATM   25  H17 UNL     1      20.308   1.245  52.405  1.00  0.00     0.217 HD
ENDBRANCH  10  24
BRANCH   1  26
HETATM   26  O1  UNL     1      22.236  -0.946  54.244  1.00  0.00    -0.353 OA
HETATM   27  C1  UNL     1      22.694  -1.704  55.333  1.00  0.00     0.210 C 
ENDBRANCH   1  26
TORSDOF 6
ENDMDL
MODEL 7
REMARK VINA RESULT:      -7.3      3.166      7.018
REMARK  6 active torsions:
REMARK  status: ('A' for Active; 'I' for Inactive)
REMARK    1  A    between atoms: O1_2  and  C2_3 
REMARK    2  A    between atoms: C6_9  and  N3_10 
REMARK    3  A    between atoms: N3_10  and  C7_11 
REMARK    4  A    between atoms: C7_11  and  O2_12 
REMARK    5  A    between atoms: C9_14  and  C10_15 
REMARK    6  A    between atoms: C18_23  and  O3_24 
ROOT
HETATM    1  C2  UNL     1      21.802   3.811  47.433  1.00  0.00     0.103 A 
HETATM    2  C3  UNL     1      21.762   4.998  48.103  1.00  0.00     0.072 A 
HETATM    3  C4  UNL     1      22.566   5.227  49.186  1.00  0.00     0.075 A 
HETATM    4  N1  UNL     1      22.487   6.420  49.814  1.00  0.00    -0.241 NA
HETATM    5  C5  UNL     1      23.283   6.665  50.896  1.00  0.00     0.236 A 
HETATM    6  N2  UNL     1      24.147   5.755  51.363  1.00  0.00    -0.224 NA
HETATM    7  C6  UNL     1      24.258   4.559  50.771  1.00  0.00     0.140 A 
HETATM    8  C16 UNL     1      23.463   4.305  49.683  1.00  0.00     0.041 A 
HETATM    9  C17 UNL     1      23.470   3.123  48.978  1.00  0.00     0.057 A 
HETATM   10  C18 UNL     1      22.679   2.852  47.885  1.00  0.00     0.100 A 
ENDROOT
BRANCH   7  11
HETATM   11  N3  UNL     1      25.173   3.554  51.238  1.00  0.00    -0.342 N 
HETATM   12  H6  UNL     1      26.103   3.433  50.819  1.00  0.00     0.164 HD
BRANCH  11  13
HETATM   13  C7  UNL     1      24.906   2.624  52.317  1.00  0.00     0.141 A 
HETATM   14  C8  UNL     1      25.731   1.350  52.396  1.00  0.00     0.076 A 
HETATM   15  C9  UNL     1      24.272   1.320  51.983  1.00  0.00     0.079 A 
BRANCH  13  16
HETATM   16  O2  UNL     1      24.630   3.190  53.578  1.00  0.00    -0.370 OA
HETATM   17  H7  UNL     1      25.364   3.846  53.737  1.00  0.00     0.212 HD
ENDBRANCH  13  16
BRANCH  15  18
HETATM   18  C10 UNL     1      23.395   0.612  52.960  1.00  0.00    -0.049 A 
HETATM   19  C11 UNL     1      23.766  -0.394  53.801  1.00  0.00     0.007 A 
HETATM   20  C12 UNL     1      22.881  -0.987  54.673  1.00  0.00     0.001 A 
HETATM   21  C13 UNL     1      21.563  -0.593  54.744  1.00  0.00     0.000 A 
HETATM   22  C14 UNL     1      21.125   0.421  53.919  1.00  0.00     0.001 A 
HETATM   23  C15 UNL     1      22.047   0.981  53.065  1.00  0.00     0.007 A 
ENDBRANCH  15  18
ENDBRANCH  11  13
ENDBRANCH   7  11
BRANCH  10  24
HETATM   24  O3  UNL     1      22.736   1.626  47.211  1.00  0.00    -0.358 OA
HETATM   25  H17 UNL     1      23.255   0.853  47.567  1.00  0.00     0.217 HD
ENDBRANCH  10  24
BRANCH   1  26
HETATM   26  O1  UNL     1      21.012   3.532  46.336  1.00  0.00    -0.353 OA
HETATM   27  C1  UNL     1      21.229   4.011  45.036  1.00  0.00     0.210 C 
ENDBRANCH   1  26
TORSDOF 6
ENDMDL
MODEL 8
REMARK VINA RESULT:      -7.1      2.892      7.291
REMARK  6 active torsions:
REMARK  status: ('A' for Active; 'I' for Inactive)
REMARK    1  A    between atoms: O1_2  and  C2_3 
REMARK    2  A    between atoms: C6_9  and  N3_10 
REMARK    3  A    between atoms: N3_10  and  C7_11 
REMARK    4  A    between atoms: C7_11  and  O2_12 
REMARK    5  A    between atoms: C9_14  and  C10_15 
REMARK    6  A    between atoms: C18_23  and  O3_24 
ROOT
HETATM    1  C2  UNL     1      26.328   9.703  49.139  1.00  0.00     0.103 A 
HETATM    2  C3  UNL     1      25.441   9.160  48.257  1.00  0.00     0.072 A 
HETATM    3  C4  UNL     1      24.875   7.936  48.485  1.00  0.00     0.075 A 
HETATM    4  N1  UNL     1      24.003   7.444  47.579  1.00  0.00    -0.241 NA
HETATM    5  C5  UNL     1      23.429   6.223  47.792  1.00  0.00     0.236 A 
HETATM    6  N2  UNL     1      23.702   5.489  48.877  1.00  0.00    -0.224 NA
HETATM    7  C6  UNL     1      24.562   5.938  49.801  1.00  0.00     0.140 A 
HETATM    8  C16 UNL     1      25.143   7.163  49.595  1.00  0.00     0.041 A 
HETATM    9  C17 UNL     1      26.042   7.748  50.458  1.00  0.00     0.057 A 
HETATM   10  C18 UNL     1      26.634   8.976  50.266  1.00  0.00     0.100 A 
ENDROOT
BRANCH   7  11
HETATM   11  N3  UNL     1      24.884   5.183  50.980  1.00  0.00    -0.342 N 
HETATM   12  H6  UNL     1      25.322   5.622  51.800  1.00  0.00     0.164 HD
BRANCH  11  13
HETATM   13  C7  UNL     1      24.639   3.766  51.153  1.00  0.00     0.141 A 
HETATM   14  C8  UNL     1      23.483   3.332  52.039  1.00  0.00     0.076 A 
HETATM   15  C9  UNL     1      24.924   3.158  52.480  1.00  0.00     0.079 A 
BRANCH  13  16
HETATM   16  O2  UNL     1      24.798   2.959  50.007  1.00  0.00    -0.370 OA
HETATM   17  H7  UNL     1      24.066   3.234  49.389  1.00  0.00     0.212 HD
ENDBRANCH  13  16
BRANCH  15  18
HETATM   18  C10 UNL     1      25.335   1.729  52.606  1.00  0.00    -0.049 A 
HETATM   19  C11 UNL     1      26.501   1.180  52.167  1.00  0.00     0.007 A 
HETATM   20  C12 UNL     1      26.793  -0.156  52.332  1.00  0.00     0.001 A 
HETATM   21  C13 UNL     1      25.916  -1.016  52.954  1.00  0.00     0.000 A 
HETATM   22  C14 UNL     1      24.716  -0.521  53.422  1.00  0.00     0.001 A 
HETATM   23  C15 UNL     1      24.471   0.820  53.233  1.00  0.00     0.007 A 
ENDBRANCH  15  18
ENDBRANCH  11  13
ENDBRANCH   7  11
BRANCH  10  24
HETATM   24  O3  UNL     1      27.542   9.514  51.186  1.00  0.00    -0.358 OA
HETATM   25  H17 UNL     1      28.201   8.945  51.670  1.00  0.00     0.217 HD
ENDBRANCH  10  24
BRANCH   1  26
HETATM   26  O1  UNL     1      26.926  10.933  48.954  1.00  0.00    -0.353 OA
HETATM   27  C1  UNL     1      26.390  11.993  48.208  1.00  0.00     0.210 C 
ENDBRANCH   1  26
TORSDOF 6
ENDMDL
MODEL 9
REMARK VINA RESULT:      -7.0      3.102      4.311
REMARK  6 active torsions:
REMARK  status: ('A' for Active; 'I' for Inactive)
REMARK    1  A    between atoms: O1_2  and  C2_3 
REMARK    2  A    between atoms: C6_9  and  N3_10 
REMARK    3  A    between atoms: N3_10  and  C7_11 
REMARK    4  A    between atoms: C7_11  and  O2_12 
REMARK    5  A    between atoms: C9_14  and  C10_15 
REMARK    6  A    between atoms: C18_23  and  O3_24 
ROOT
HETATM    1  C2  UNL     1      22.506   0.054  53.354  1.00  0.00     0.103 A 
HETATM    2  C3  UNL     1      23.723  -0.551  53.464  1.00  0.00     0.072 A 
HETATM    3  C4  UNL     1      24.870   0.090  53.086  1.00  0.00     0.075 A 
HETATM    4  N1  UNL     1      26.049  -0.555  53.216  1.00  0.00    -0.241 NA
HETATM    5  C5  UNL     1      27.204   0.071  52.842  1.00  0.00     0.236 A 
HETATM    6  N2  UNL     1      27.209   1.315  52.346  1.00  0.00    -0.224 NA
HETATM    7  C6  UNL     1      26.063   1.991  52.200  1.00  0.00     0.140 A 
HETATM    8  C16 UNL     1      24.899   1.370  52.572  1.00  0.00     0.041 A 
HETATM    9  C17 UNL     1      23.651   1.943  52.478  1.00  0.00     0.057 A 
HETATM   10  C18 UNL     1      22.473   1.333  52.847  1.00  0.00     0.100 A 
ENDROOT
BRANCH   7  11
HETATM   11  N3  UNL     1      26.023   3.327  51.672  1.00  0.00    -0.342 N 
HETATM   12  H6  UNL     1      26.337   4.136  52.224  1.00  0.00     0.164 HD
BRANCH  11  13
HETATM   13  C7  UNL     1      25.555   3.685  50.348  1.00  0.00     0.141 A 
HETATM   14  C8  UNL     1      25.327   5.153  50.032  1.00  0.00     0.076 A 
HETATM   15  C9  UNL     1      24.165   4.194  50.206  1.00  0.00     0.079 A 
BRANCH  13  16
HETATM   16  O2  UNL     1      26.109   2.962  49.272  1.00  0.00    -0.370 OA
HETATM   17  H7  UNL     1      26.471   3.652  48.651  1.00  0.00     0.212 HD
ENDBRANCH  13  16
BRANCH  15  18
HETATM   18  C10 UNL     1      23.385   3.978  48.953  1.00  0.00    -0.049 A 
HETATM   19  C11 UNL     1      22.923   2.786  48.482  1.00  0.00     0.007 A 
HETATM   20  C12 UNL     1      22.207   2.687  47.310  1.00  0.00     0.001 A 
HETATM   21  C13 UNL     1      21.916   3.794  46.545  1.00  0.00     0.000 A 
HETATM   22  C14 UNL     1      22.356   5.031  46.967  1.00  0.00     0.001 A 
HETATM   23  C15 UNL     1      23.067   5.078  48.144  1.00  0.00     0.007 A 
ENDBRANCH  15  18
ENDBRANCH  11  13
ENDBRANCH   7  11
BRANCH  10  24
HETATM   24  O3  UNL     1      21.234   1.974  52.725  1.00  0.00    -0.358 OA
HETATM   25  H17 UNL     1      20.972   2.458  51.895  1.00  0.00     0.217 HD
ENDBRANCH  10  24
BRANCH   1  26
HETATM   26  O1  UNL     1      21.321  -0.550  53.722  1.00  0.00    -0.353 OA
HETATM   27  C1  UNL     1      21.208  -1.797  54.354  1.00  0.00     0.210 C 
ENDBRANCH   1  26
TORSDOF 6
ENDMDL
