MODEL 1
REMARK VINA RESULT:      -9.7      0.000      0.000
REMARK  4 active torsions:
REMARK  status: ('A' for Active; 'I' for Inactive)
REMARK    1  A    between atoms: C6_6  and  C7_7 
REMARK    2  A    between atoms: C8_8  and  C9_9 
REMARK    3  A    between atoms: C9_9  and  N1_10 
REMARK    4  A    between atoms: N1_10  and  C10_11 
ROOT
HETATM    1  N1  UNL     1      24.938   3.321  52.107  1.00  0.00    -0.396 N 
HETATM    2  H9  UNL     1      25.063   4.231  52.560  1.00  0.00     0.155 HD
ENDROOT
BRANCH   1   3
HETATM    3  C9  UNL     1      25.614   3.137  50.873  1.00  0.00     0.143 C 
BRANCH   3   4
HETATM    4  C8  UNL     1      24.840   3.527  49.698  1.00  0.00    -0.008 C 
HETATM    5  C7  UNL     1      24.684   4.797  49.306  1.00  0.00    -0.001 C 
BRANCH   5   6
HETATM    6  C6  UNL     1      25.259   5.941  49.991  1.00  0.00     0.024 C 
HETATM    7  C5  UNL     1      26.222   6.662  49.459  1.00  0.00     0.008 C 
HETATM    8  C4  UNL     1      27.002   6.649  48.191  1.00  0.00     0.084 C 
HETATM    9  N5  UNL     1      26.872   7.752  50.069  1.00  0.00    -0.393 N 
HETATM   10  C3  UNL     1      28.472   6.674  48.390  1.00  0.00    -0.008 C 
HETATM   11  C2  UNL     1      29.235   6.857  47.344  1.00  0.00    -0.018 C 
HETATM   12  C1  UNL     1      28.710   7.780  46.568  1.00  0.00    -0.018 C 
HETATM   13  C22 UNL     1      28.208   8.730  47.365  1.00  0.00    -0.012 C 
HETATM   14  C21 UNL     1      28.426   9.129  48.745  1.00  0.00     0.047 C 
HETATM   15  C20 UNL     1      27.316   9.037  49.729  1.00  0.00     0.123 C 
HETATM   16  H18 UNL     1      27.021   7.400  51.041  1.00  0.00     0.159 HD
ENDBRANCH   5   6
ENDBRANCH   3   4
ENDBRANCH   1   3
BRANCH   1  17
HETATM   17  C10 UNL     1      24.798   2.205  52.979  1.00  0.00     0.222 C 
HETATM   18  C11 UNL     1      23.660   1.303  52.551  1.00  0.00     0.277 C 
HETATM   19  N2  UNL     1      23.539   0.029  52.908  1.00  0.00    -0.310 NA
HETATM   20  C12 UNL     1      24.621  -0.447  53.770  1.00  0.00     0.051 C 
HETATM   21  C13 UNL     1      25.773  -0.639  53.169  1.00  0.00     0.043 C 
HETATM   22  C14 UNL     1      27.153  -1.021  53.236  1.00  0.00     0.069 A 
HETATM   23  N3  UNL     1      27.810  -2.158  53.086  1.00  0.00    -0.260 NA
HETATM   24  C18 UNL     1      27.730   0.236  53.545  1.00  0.00     0.010 A 
HETATM   25  C15 UNL     1      29.166  -2.179  53.230  1.00  0.00     0.117 A 
HETATM   26  C16 UNL     1      29.842  -1.018  53.532  1.00  0.00     0.020 A 
HETATM   27  C17 UNL     1      29.122   0.144  53.679  1.00  0.00     0.017 A 
HETATM   28  C19 UNL     1      27.073   1.560  53.725  1.00  0.00     0.126 C 
HETATM   29  N4  UNL     1      25.956   1.462  53.215  1.00  0.00    -0.274 NA
ENDBRANCH   1  17
TORSDOF 4
ENDMDL
MODEL 2
REMARK VINA RESULT:      -9.5      4.168      6.796
REMARK  4 active torsions:
REMARK  status: ('A' for Active; 'I' for Inactive)
REMARK    1  A    between atoms: C6_6  and  C7_7 
REMARK    2  A    between atoms: C8_8  and  C9_9 
REMARK    3  A    between atoms: C9_9  and  N1_10 
REMARK    4  A    between atoms: N1_10  and  C10_11 
ROOT
HETATM    1  N1  UNL     1      21.569   4.764  51.057  1.00  0.00    -0.396 N 
HETATM    2  H9  UNL     1      20.938   5.243  51.705  1.00  0.00     0.155 HD
ENDROOT
BRANCH   1   3
HETATM    3  C9  UNL     1      22.956   4.993  51.249  1.00  0.00     0.143 C 
BRANCH   3   4
HETATM    4  C8  UNL     1      23.392   4.928  52.641  1.00  0.00    -0.008 C 
HETATM    5  C7  UNL     1      24.041   3.879  53.162  1.00  0.00    -0.001 C 
BRANCH   5   6
HETATM    6  C6  UNL     1      24.395   2.685  52.417  1.00  0.00     0.024 C 
HETATM    7  C5  UNL     1      25.466   1.976  52.700  1.00  0.00     0.008 C 
HETATM    8  C4  UNL     1      26.573   2.048  53.694  1.00  0.00     0.084 C 
HETATM    9  N5  UNL     1      25.913   0.837  52.004  1.00  0.00    -0.393 N 
HETATM   10  C3  UNL     1      27.926   1.979  53.091  1.00  0.00    -0.008 C 
HETATM   11  C2  UNL     1      28.954   1.842  53.889  1.00  0.00    -0.018 C 
HETATM   12  C1  UNL     1      28.665   0.979  54.838  1.00  0.00    -0.018 C 
HETATM   13  C22 UNL     1      27.955  -0.006  54.278  1.00  0.00    -0.012 C 
HETATM   14  C21 UNL     1      27.772  -0.491  52.921  1.00  0.00     0.047 C 
HETATM   15  C20 UNL     1      26.430  -0.434  52.286  1.00  0.00     0.123 C 
HETATM   16  H18 UNL     1      25.783   1.126  51.008  1.00  0.00     0.159 HD
ENDBRANCH   5   6
ENDBRANCH   3   4
ENDBRANCH   1   3
BRANCH   1  17
HETATM   17  C10 UNL     1      21.147   3.482  50.607  1.00  0.00     0.222 C 
HETATM   18  C11 UNL     1      21.947   3.019  49.408  1.00  0.00     0.277 C 
HETATM   19  N2  UNL     1      22.058   1.753  49.027  1.00  0.00    -0.310 NA
HETATM   20  C12 UNL     1      21.327   0.812  49.878  1.00  0.00     0.051 C 
HETATM   21  C13 UNL     1      21.864   0.591  51.056  1.00  0.00     0.043 C 
HETATM   22  C14 UNL     1      21.821  -0.068  52.328  1.00  0.00     0.069 A 
HETATM   23  N3  UNL     1      22.299  -1.206  52.801  1.00  0.00    -0.260 NA
HETATM   24  C18 UNL     1      21.056   0.876  53.057  1.00  0.00     0.010 A 
HETATM   25  C15 UNL     1      22.062  -1.551  54.099  1.00  0.00     0.117 A 
HETATM   26  C16 UNL     1      21.328  -0.714  54.909  1.00  0.00     0.020 A 
HETATM   27  C17 UNL     1      20.850   0.462  54.379  1.00  0.00     0.017 A 
HETATM   28  C19 UNL     1      20.486   2.178  52.611  1.00  0.00     0.126 C 
HETATM   29  N4  UNL     1      21.087   2.482  51.578  1.00  0.00    -0.274 NA
ENDBRANCH   1  17
TORSDOF 4
ENDMDL
MODEL 3
REMARK VINA RESULT:      -9.4      2.440      3.981
REMARK  4 active torsions:
REMARK  status: ('A' for Active; 'I' for Inactive)
REMARK    1  A    between atoms: C6_6  and  C7_7 
REMARK    2  A    between atoms: C8_8  and  C9_9 
REMARK    3  A    between atoms: C9_9  and  N1_10 
REMARK    4  A    between atoms: N1_10  and  C10_11 
ROOT
HETATM    1  N1  UNL     1      20.405   0.030  51.847  1.00  0.00    -0.396 N 
HETATM    2  H9  UNL     1      19.537  -0.514  51.841  1.00  0.00     0.155 HD
ENDROOT
BRANCH   1   3
HETATM    3  C9  UNL     1      20.427   1.182  51.020  1.00  0.00     0.143 C 
BRANCH   3   4
HETATM    4  C8  UNL     1      21.086   0.989  49.732  1.00  0.00    -0.008 C 
HETATM    5  C7  UNL     1      21.741   1.961  49.085  1.00  0.00    -0.001 C 
BRANCH   5   6
HETATM    6  C6  UNL     1      21.882   3.319  49.577  1.00  0.00     0.024 C 
HETATM    7  C5  UNL     1      23.049   3.921  49.643  1.00  0.00     0.008 C 
HETATM    8  C4  UNL     1      24.460   3.573  49.317  1.00  0.00     0.084 C 
HETATM    9  N5  UNL     1      23.287   5.213  50.151  1.00  0.00    -0.393 N 
HETATM   10  C3  UNL     1      25.409   3.815  50.430  1.00  0.00    -0.008 C 
HETATM   11  C2  UNL     1      26.691   3.722  50.182  1.00  0.00    -0.018 C 
HETATM   12  C1  UNL     1      26.958   4.278  49.021  1.00  0.00    -0.018 C 
HETATM   13  C22 UNL     1      26.206   5.380  48.926  1.00  0.00    -0.012 C 
HETATM   14  C21 UNL     1      25.511   6.231  49.877  1.00  0.00     0.047 C 
HETATM   15  C20 UNL     1      24.032   6.353  49.822  1.00  0.00     0.123 C 
HETATM   16  H18 UNL     1      22.699   5.218  51.015  1.00  0.00     0.159 HD
ENDBRANCH   5   6
ENDBRANCH   3   4
ENDBRANCH   1   3
BRANCH   1  17
HETATM   17  C10 UNL     1      21.111   0.065  53.082  1.00  0.00     0.222 C 
HETATM   18  C11 UNL     1      20.758  -1.117  53.960  1.00  0.00     0.277 C 
HETATM   19  N2  UNL     1      21.516  -1.561  54.956  1.00  0.00    -0.310 NA
HETATM   20  C12 UNL     1      22.752  -0.800  55.144  1.00  0.00     0.051 C 
HETATM   21  C13 UNL     1      23.678  -1.006  54.237  1.00  0.00     0.043 C 
HETATM   22  C14 UNL     1      24.984  -0.721  53.717  1.00  0.00     0.069 A 
HETATM   23  N3  UNL     1      26.187  -1.241  53.891  1.00  0.00    -0.260 NA
HETATM   24  C18 UNL     1      24.669   0.380  52.883  1.00  0.00     0.010 A 
HETATM   25  C15 UNL     1      27.255  -0.707  53.231  1.00  0.00     0.117 A 
HETATM   26  C16 UNL     1      27.076   0.368  52.390  1.00  0.00     0.020 A 
HETATM   27  C17 UNL     1      25.808   0.879  52.237  1.00  0.00     0.017 A 
HETATM   28  C19 UNL     1      23.351   1.025  52.623  1.00  0.00     0.126 C 
HETATM   29  N4  UNL     1      22.495   0.218  52.991  1.00  0.00    -0.274 NA
ENDBRANCH   1  17
TORSDOF 4
ENDMDL
MODEL 4
REMARK VINA RESULT:      -9.4      1.906      2.663
REMARK  4 active torsions:
REMARK  status: ('A' for Active; 'I' for Inactive)
REMARK    1  A    between atoms: C6_6  and  C7_7 
REMARK    2  A    between atoms: C8_8  and  C9_9 
REMARK    3  A    between atoms: C9_9  and  N1_10 
REMARK    4  A    between atoms: N1_10  and  C10_11 
ROOT
HETATM    1  N1  UNL     1      26.511   3.684  50.830  1.00  0.00    -0.396 N 
HETATM    2  H9  UNL     1      27.525   3.648  50.690  1.00  0.00     0.155 HD
ENDROOT
BRANCH   1   3
HETATM    3  C9  UNL     1      25.731   3.974  49.681  1.00  0.00     0.143 C 
BRANCH   3   4
HETATM    4  C8  UNL     1      25.803   5.362  49.236  1.00  0.00    -0.008 C 
HETATM    5  C7  UNL     1      26.891   5.900  48.669  1.00  0.00    -0.001 C 
BRANCH   5   6
HETATM    6  C6  UNL     1      28.126   5.178  48.424  1.00  0.00     0.024 C 
HETATM    7  C5  UNL     1      29.253   5.795  48.143  1.00  0.00     0.008 C 
HETATM    8  C4  UNL     1      29.694   7.208  47.979  1.00  0.00     0.084 C 
HETATM    9  N5  UNL     1      30.482   5.178  47.843  1.00  0.00    -0.393 N 
HETATM   10  C3  UNL     1      30.412   7.469  46.707  1.00  0.00    -0.008 C 
HETATM   11  C2  UNL     1      31.003   8.626  46.556  1.00  0.00    -0.018 C 
HETATM   12  C1  UNL     1      31.603   8.966  47.676  1.00  0.00    -0.018 C 
HETATM   13  C22 UNL     1      32.144   7.856  48.190  1.00  0.00    -0.012 C 
HETATM   14  C21 UNL     1      32.514   6.556  47.657  1.00  0.00     0.047 C 
HETATM   15  C20 UNL     1      31.840   5.329  48.154  1.00  0.00     0.123 C 
HETATM   16  H18 UNL     1      30.188   4.408  47.200  1.00  0.00     0.159 HD
ENDBRANCH   5   6
ENDBRANCH   3   4
ENDBRANCH   1   3
BRANCH   1  17
HETATM   17  C10 UNL     1      25.983   2.792  51.804  1.00  0.00     0.222 C 
HETATM   18  C11 UNL     1      24.724   2.110  51.312  1.00  0.00     0.277 C 
HETATM   19  N2  UNL     1      24.244   0.976  51.808  1.00  0.00    -0.310 NA
HETATM   20  C12 UNL     1      25.049   0.421  52.898  1.00  0.00     0.051 C 
HETATM   21  C13 UNL     1      26.186  -0.124  52.531  1.00  0.00     0.043 C 
HETATM   22  C14 UNL     1      27.406  -0.790  52.882  1.00  0.00     0.069 A 
HETATM   23  N3  UNL     1      27.774  -2.054  52.997  1.00  0.00    -0.260 NA
HETATM   24  C18 UNL     1      28.231   0.338  53.116  1.00  0.00     0.010 A 
HETATM   25  C15 UNL     1      29.050  -2.355  53.372  1.00  0.00     0.117 A 
HETATM   26  C16 UNL     1      29.948  -1.343  53.628  1.00  0.00     0.020 A 
HETATM   27  C17 UNL     1      29.526  -0.040  53.496  1.00  0.00     0.017 A 
HETATM   28  C19 UNL     1      27.906   1.788  53.005  1.00  0.00     0.126 C 
HETATM   29  N4  UNL     1      26.878   1.859  52.329  1.00  0.00    -0.274 NA
ENDBRANCH   1  17
TORSDOF 4
ENDMDL
MODEL 5
REMARK VINA RESULT:      -9.2      1.481      8.099
REMARK  4 active torsions:
REMARK  status: ('A' for Active; 'I' for Inactive)
REMARK    1  A    between atoms: C6_6  and  C7_7 
REMARK    2  A    between atoms: C8_8  and  C9_9 
REMARK    3  A    between atoms: C9_9  and  N1_10 
REMARK    4  A    between atoms: N1_10  and  C10_11 
ROOT
HETATM    1  N1  UNL     1      24.911   4.108  51.241  1.00  0.00    -0.396 N 
HETATM    2  H9  UNL     1      25.358   4.247  52.151  1.00  0.00     0.155 HD
ENDROOT
BRANCH   1   3
HETATM    3  C9  UNL     1      23.962   3.056  51.164  1.00  0.00     0.143 C 
BRANCH   3   4
HETATM    4  C8  UNL     1      23.318   2.729  52.432  1.00  0.00    -0.008 C 
HETATM    5  C7  UNL     1      23.527   1.583  53.092  1.00  0.00    -0.001 C 
BRANCH   5   6
HETATM    6  C6  UNL     1      24.415   0.528  52.637  1.00  0.00     0.024 C 
HETATM    7  C5  UNL     1      25.697   0.520  52.927  1.00  0.00     0.008 C 
HETATM    8  C4  UNL     1      26.634   1.393  53.689  1.00  0.00     0.084 C 
HETATM    9  N5  UNL     1      26.640  -0.430  52.490  1.00  0.00    -0.393 N 
HETATM   10  C3  UNL     1      27.844   1.783  52.926  1.00  0.00    -0.008 C 
HETATM   11  C2  UNL     1      28.813   2.386  53.567  1.00  0.00    -0.018 C 
HETATM   12  C1  UNL     1      28.988   1.818  54.740  1.00  0.00    -0.018 C 
HETATM   13  C22 UNL     1      28.847   0.499  54.567  1.00  0.00    -0.012 C 
HETATM   14  C21 UNL     1      28.916  -0.397  53.426  1.00  0.00     0.047 C 
HETATM   15  C20 UNL     1      27.714  -1.164  53.009  1.00  0.00     0.123 C 
HETATM   16  H18 UNL     1      26.379  -0.547  51.484  1.00  0.00     0.159 HD
ENDBRANCH   5   6
ENDBRANCH   3   4
ENDBRANCH   1   3
BRANCH   1  17
HETATM   17  C10 UNL     1      24.690   5.282  50.469  1.00  0.00     0.222 C 
HETATM   18  C11 UNL     1      24.096   6.396  51.304  1.00  0.00     0.277 C 
HETATM   19  N2  UNL     1      24.148   7.683  50.982  1.00  0.00    -0.310 NA
HETATM   20  C12 UNL     1      24.843   7.948  49.721  1.00  0.00     0.051 C 
HETATM   21  C13 UNL     1      26.149   7.821  49.765  1.00  0.00     0.043 C 
HETATM   22  C14 UNL     1      27.418   7.871  49.100  1.00  0.00     0.069 A 
HETATM   23  N3  UNL     1      28.331   8.808  48.909  1.00  0.00    -0.260 NA
HETATM   24  C18 UNL     1      27.487   6.537  48.625  1.00  0.00     0.010 A 
HETATM   25  C15 UNL     1      29.458   8.517  48.198  1.00  0.00     0.117 A 
HETATM   26  C16 UNL     1      29.640   7.253  47.684  1.00  0.00     0.020 A 
HETATM   27  C17 UNL     1      28.667   6.307  47.906  1.00  0.00     0.017 A 
HETATM   28  C19 UNL     1      26.516   5.420  48.796  1.00  0.00     0.126 C 
HETATM   29  N4  UNL     1      25.780   5.744  49.731  1.00  0.00    -0.274 NA
ENDBRANCH   1  17
TORSDOF 4
ENDMDL
MODEL 6
REMARK VINA RESULT:      -9.2      1.962      8.812
REMARK  4 active torsions:
REMARK  status: ('A' for Active; 'I' for Inactive)
REMARK    1  A    between atoms: C6_6  and  C7_7 
REMARK    2  A    between atoms: C8_8  and  C9_9 
REMARK    3  A    between atoms: C9_9  and  N1_10 
REMARK    4  A    between atoms: N1_10  and  C10_11 
ROOT
HETATM    1  N1  UNL     1      26.868   3.026  51.693  1.00  0.00    -0.396 N 
HETATM    2  H9  UNL     1      27.206   3.833  52.224  1.00  0.00     0.155 HD
ENDROOT
BRANCH   1   3
HETATM    3  C9  UNL     1      26.628   1.843  52.438  1.00  0.00     0.143 C 
BRANCH   3   4
HETATM    4  C8  UNL     1      26.902   0.606  51.713  1.00  0.00    -0.008 C 
HETATM    5  C7  UNL     1      26.575  -0.608  52.174  1.00  0.00    -0.001 C 
BRANCH   5   6
HETATM    6  C6  UNL     1      25.910  -0.848  53.442  1.00  0.00     0.024 C 
HETATM    7  C5  UNL     1      24.620  -0.650  53.603  1.00  0.00     0.008 C 
HETATM    8  C4  UNL     1      23.487  -0.189  52.753  1.00  0.00     0.084 C 
HETATM    9  N5  UNL     1      23.902  -0.808  54.804  1.00  0.00    -0.393 N 
HETATM   10  C3  UNL     1      22.703   0.920  53.349  1.00  0.00    -0.008 C 
HETATM   11  C2  UNL     1      21.580   1.265  52.771  1.00  0.00    -0.018 C 
HETATM   12  C1  UNL     1      20.926   0.187  52.399  1.00  0.00    -0.018 C 
HETATM   13  C22 UNL     1      21.077  -0.725  53.365  1.00  0.00    -0.012 C 
HETATM   14  C21 UNL     1      21.444  -0.676  54.770  1.00  0.00     0.047 C 
HETATM   15  C20 UNL     1      22.684  -1.346  55.239  1.00  0.00     0.123 C 
HETATM   16  H18 UNL     1      24.543  -0.364  55.500  1.00  0.00     0.159 HD
ENDBRANCH   5   6
ENDBRANCH   3   4
ENDBRANCH   1   3
BRANCH   1  17
HETATM   17  C10 UNL     1      26.022   3.316  50.587  1.00  0.00     0.222 C 
HETATM   18  C11 UNL     1      24.594   3.564  51.026  1.00  0.00     0.277 C 
HETATM   19  N2  UNL     1      23.694   4.224  50.307  1.00  0.00    -0.310 NA
HETATM   20  C12 UNL     1      24.202   4.707  49.022  1.00  0.00     0.051 C 
HETATM   21  C13 UNL     1      25.019   5.733  49.094  1.00  0.00     0.043 C 
HETATM   22  C14 UNL     1      25.862   6.689  48.437  1.00  0.00     0.069 A 
HETATM   23  N3  UNL     1      25.682   7.904  47.948  1.00  0.00    -0.260 NA
HETATM   24  C18 UNL     1      27.075   5.957  48.415  1.00  0.00     0.010 A 
HETATM   25  C15 UNL     1      26.725   8.556  47.359  1.00  0.00     0.117 A 
HETATM   26  C16 UNL     1      27.957   7.947  47.276  1.00  0.00     0.020 A 
HETATM   27  C17 UNL     1      28.103   6.682  47.798  1.00  0.00     0.017 A 
HETATM   28  C19 UNL     1      27.369   4.596  48.943  1.00  0.00     0.126 C 
HETATM   29  N4  UNL     1      26.459   4.328  49.731  1.00  0.00    -0.274 NA
ENDBRANCH   1  17
TORSDOF 4
ENDMDL
MODEL 7
REMARK VINA RESULT:      -9.2      1.461      3.462
REMARK  4 active torsions:
REMARK  status: ('A' for Active; 'I' for Inactive)
REMARK    1  A    between atoms: C6_6  and  C7_7 
REMARK    2  A    between atoms: C8_8  and  C9_9 
REMARK    3  A    between atoms: C9_9  and  N1_10 
REMARK    4  A    between atoms: N1_10  and  C10_11 
ROOT
HETATM    1  N1  UNL     1      26.146   3.074  51.462  1.00  0.00    -0.396 N 
HETATM    2  H9  UNL     1      26.545   3.606  52.240  1.00  0.00     0.155 HD
ENDROOT
BRANCH   1   3
HETATM    3  C9  UNL     1      26.379   3.596  50.163  1.00  0.00     0.143 C 
BRANCH   3   4
HETATM    4  C8  UNL     1      25.174   4.026  49.460  1.00  0.00    -0.008 C 
HETATM    5  C7  UNL     1      24.763   5.300  49.413  1.00  0.00    -0.001 C 
BRANCH   5   6
HETATM    6  C6  UNL     1      25.458   6.407  50.046  1.00  0.00     0.024 C 
HETATM    7  C5  UNL     1      26.439   7.048  49.451  1.00  0.00     0.008 C 
HETATM    8  C4  UNL     1      27.144   6.962  48.141  1.00  0.00     0.084 C 
HETATM    9  N5  UNL     1      27.199   8.096  50.005  1.00  0.00    -0.393 N 
HETATM   10  C3  UNL     1      28.620   6.881  48.259  1.00  0.00    -0.008 C 
HETATM   11  C2  UNL     1      29.335   6.995  47.169  1.00  0.00    -0.018 C 
HETATM   12  C1  UNL     1      28.835   7.944  46.409  1.00  0.00    -0.018 C 
HETATM   13  C22 UNL     1      28.450   8.938  47.215  1.00  0.00    -0.012 C 
HETATM   14  C21 UNL     1      28.773   9.337  48.575  1.00  0.00     0.047 C 
HETATM   15  C20 UNL     1      27.716   9.340  49.620  1.00  0.00     0.123 C 
HETATM   16  H18 UNL     1      27.377   7.746  50.974  1.00  0.00     0.159 HD
ENDBRANCH   5   6
ENDBRANCH   3   4
ENDBRANCH   1   3
BRANCH   1  17
HETATM   17  C10 UNL     1      26.099   1.662  51.630  1.00  0.00     0.222 C 
HETATM   18  C11 UNL     1      27.238   1.165  52.495  1.00  0.00     0.277 C 
HETATM   19  N2  UNL     1      27.237   0.002  53.137  1.00  0.00    -0.310 NA
HETATM   20  C12 UNL     1      26.017  -0.782  52.938  1.00  0.00     0.051 C 
HETATM   21  C13 UNL     1      24.957  -0.337  53.571  1.00  0.00     0.043 C 
HETATM   22  C14 UNL     1      23.563  -0.460  53.885  1.00  0.00     0.069 A 
HETATM   23  N3  UNL     1      22.876  -1.064  54.838  1.00  0.00    -0.260 NA
HETATM   24  C18 UNL     1      23.015   0.292  52.816  1.00  0.00     0.010 A 
HETATM   25  C15 UNL     1      21.514  -0.990  54.839  1.00  0.00     0.117 A 
HETATM   26  C16 UNL     1      20.863  -0.287  53.850  1.00  0.00     0.020 A 
HETATM   27  C17 UNL     1      21.615   0.328  52.877  1.00  0.00     0.017 A 
HETATM   28  C19 UNL     1      23.708   1.007  51.708  1.00  0.00     0.126 C 
HETATM   29  N4  UNL     1      24.881   1.137  52.064  1.00  0.00    -0.274 NA
ENDBRANCH   1  17
TORSDOF 4
ENDMDL
MODEL 8
REMARK VINA RESULT:      -8.8      3.472      6.666
REMARK  4 active torsions:
REMARK  status: ('A' for Active; 'I' for Inactive)
REMARK    1  A    between atoms: C6_6  and  C7_7 
REMARK    2  A    between atoms: C8_8  and  C9_9 
REMARK    3  A    between atoms: C9_9  and  N1_10 
REMARK    4  A    between atoms: N1_10  and  C10_11 
ROOT
HETATM    1  N1  UNL     1      22.392   4.320  50.342  1.00  0.00    -0.396 N 
HETATM    2  H9  UNL     1      21.986   5.147  50.789  1.00  0.00     0.155 HD
ENDROOT
BRANCH   1   3
HETATM    3  C9  UNL     1      23.767   4.083  50.597  1.00  0.00     0.143 C 
BRANCH   3   4
HETATM    4  C8  UNL     1      24.521   3.601  49.443  1.00  0.00    -0.008 C 
HETATM    5  C7  UNL     1      25.824   3.298  49.489  1.00  0.00    -0.001 C 
BRANCH   5   6
HETATM    6  C6  UNL     1      26.648   3.407  50.679  1.00  0.00     0.024 C 
HETATM    7  C5  UNL     1      26.787   2.411  51.526  1.00  0.00     0.008 C 
HETATM    8  C4  UNL     1      26.280   1.016  51.640  1.00  0.00     0.084 C 
HETATM    9  N5  UNL     1      27.521   2.443  52.727  1.00  0.00    -0.393 N 
HETATM   10  C3  UNL     1      25.654   0.710  52.949  1.00  0.00    -0.008 C 
HETATM   11  C2  UNL     1      25.352  -0.535  53.215  1.00  0.00    -0.018 C 
HETATM   12  C1  UNL     1      26.321  -1.324  52.804  1.00  0.00    -0.018 C 
HETATM   13  C22 UNL     1      27.477  -0.708  53.076  1.00  0.00    -0.012 C 
HETATM   14  C21 UNL     1      27.882   0.354  53.980  1.00  0.00     0.047 C 
HETATM   15  C20 UNL     1      28.416   1.630  53.436  1.00  0.00     0.123 C 
HETATM   16  H18 UNL     1      27.250   3.371  53.124  1.00  0.00     0.159 HD
ENDBRANCH   5   6
ENDBRANCH   3   4
ENDBRANCH   1   3
BRANCH   1  17
HETATM   17  C10 UNL     1      21.524   3.203  50.191  1.00  0.00     0.222 C 
HETATM   18  C11 UNL     1      21.831   2.425  48.929  1.00  0.00     0.277 C 
HETATM   19  N2  UNL     1      21.478   1.161  48.724  1.00  0.00    -0.310 NA
HETATM   20  C12 UNL     1      20.751   0.562  49.844  1.00  0.00     0.051 C 
HETATM   21  C13 UNL     1      21.483   0.275  50.896  1.00  0.00     0.043 C 
HETATM   22  C14 UNL     1      21.579  -0.240  52.231  1.00  0.00     0.069 A 
HETATM   23  N3  UNL     1      21.818  -1.432  52.751  1.00  0.00    -0.260 NA
HETATM   24  C18 UNL     1      21.322   0.947  52.960  1.00  0.00     0.010 A 
HETATM   25  C15 UNL     1      21.829  -1.586  54.106  1.00  0.00     0.117 A 
HETATM   26  C16 UNL     1      21.592  -0.504  54.923  1.00  0.00     0.020 A 
HETATM   27  C17 UNL     1      21.349   0.718  54.342  1.00  0.00     0.017 A 
HETATM   28  C19 UNL     1      21.051   2.324  52.461  1.00  0.00     0.126 C 
HETATM   29  N4  UNL     1      21.432   2.347  51.289  1.00  0.00    -0.274 NA
ENDBRANCH   1  17
TORSDOF 4
ENDMDL
MODEL 9
REMARK VINA RESULT:      -8.6      2.971      9.172
REMARK  4 active torsions:
REMARK  status: ('A' for Active; 'I' for Inactive)
REMARK    1  A    between atoms: C6_6  and  C7_7 
REMARK    2  A    between atoms: C8_8  and  C9_9 
REMARK    3  A    between atoms: C9_9  and  N1_10 
REMARK    4  A    between atoms: N1_10  and  C10_11 
ROOT
HETATM    1  N1  UNL     1      26.253   4.642  50.099  1.00  0.00    -0.396 N 
HETATM    2  H9  UNL     1      25.560   4.915  50.801  1.00  0.00     0.155 HD
ENDROOT
BRANCH   1   3
HETATM    3  C9  UNL     1      26.393   3.250  49.866  1.00  0.00     0.143 C 
BRANCH   3   4
HETATM    4  C8  UNL     1      26.547   2.447  51.076  1.00  0.00    -0.008 C 
HETATM    5  C7  UNL     1      25.521   1.872  51.715  1.00  0.00    -0.001 C 
BRANCH   5   6
HETATM    6  C6  UNL     1      24.136   1.969  51.291  1.00  0.00     0.024 C 
HETATM    7  C5  UNL     1      23.164   1.358  51.933  1.00  0.00     0.008 C 
HETATM    8  C4  UNL     1      23.050   0.477  53.128  1.00  0.00     0.084 C 
HETATM    9  N5  UNL     1      21.804   1.355  51.567  1.00  0.00    -0.393 N 
HETATM   10  C3  UNL     1      22.310  -0.783  52.876  1.00  0.00    -0.008 C 
HETATM   11  C2  UNL     1      21.992  -1.531  53.901  1.00  0.00    -0.018 C 
HETATM   12  C1  UNL     1      21.582  -0.771  54.893  1.00  0.00    -0.018 C 
HETATM   13  C22 UNL     1      20.843   0.210  54.363  1.00  0.00    -0.012 C 
HETATM   14  C21 UNL     1      20.139   0.395  53.106  1.00  0.00     0.047 C 
HETATM   15  C20 UNL     1      20.549   1.480  52.177  1.00  0.00     0.123 C 
HETATM   16  H18 UNL     1      21.858   1.209  50.533  1.00  0.00     0.159 HD
ENDBRANCH   5   6
ENDBRANCH   3   4
ENDBRANCH   1   3
BRANCH   1  17
HETATM   17  C10 UNL     1      26.418   5.535  49.004  1.00  0.00     0.222 C 
HETATM   18  C11 UNL     1      25.637   6.816  49.206  1.00  0.00     0.277 C 
HETATM   19  N2  UNL     1      25.896   7.957  48.579  1.00  0.00    -0.310 NA
HETATM   20  C12 UNL     1      27.026   7.879  47.652  1.00  0.00     0.051 C 
HETATM   21  C13 UNL     1      28.210   7.825  48.218  1.00  0.00     0.043 C 
HETATM   22  C14 UNL     1      29.636   7.735  48.094  1.00  0.00     0.069 A 
HETATM   23  N3  UNL     1      30.617   8.616  48.005  1.00  0.00    -0.260 NA
HETATM   24  C18 UNL     1      29.781   6.326  48.076  1.00  0.00     0.010 A 
HETATM   25  C15 UNL     1      31.904   8.182  47.883  1.00  0.00     0.117 A 
HETATM   26  C16 UNL     1      32.175   6.832  47.853  1.00  0.00     0.020 A 
HETATM   27  C17 UNL     1      31.125   5.949  47.949  1.00  0.00     0.017 A 
HETATM   28  C19 UNL     1      28.740   5.265  48.176  1.00  0.00     0.126 C 
HETATM   29  N4  UNL     1      27.735   5.812  48.633  1.00  0.00    -0.274 NA
ENDBRANCH   1  17
TORSDOF 4
ENDMDL
