MODEL 1
REMARK VINA RESULT:      -8.6      0.000      0.000
REMARK  5 active torsions:
REMARK  status: ('A' for Active; 'I' for Inactive)
REMARK    1  A    between atoms: N2_11  and  C8_12 
REMARK    2  A    between atoms: N3_20  and  C16_21 
REMARK    3  A    between atoms: C16_21  and  C17_22 
REMARK    4  A    between atoms: C17_22  and  C18_23 
REMARK    5  A    between atoms: C18_23  and  N4_24 
ROOT
HETATM    1  O1  UNL     1      24.520  -1.076  55.339  1.00  0.00    -0.271 OA
HETATM    2  C1  UNL     1      23.443  -1.054  54.654  1.00  0.00     0.248 C 
HETATM    3  C2  UNL     1      22.321  -1.809  55.257  1.00  0.00     0.279 C 
HETATM    4  O2  UNL     1      21.049  -1.374  54.851  1.00  0.00    -0.340 OA
HETATM    5  C3  UNL     1      20.891  -0.696  53.650  1.00  0.00     0.096 A 
HETATM    6  C4  UNL     1      19.646  -0.559  53.225  1.00  0.00     0.051 A 
HETATM    7  C5  UNL     1      19.506   0.157  51.962  1.00  0.00     0.012 A 
HETATM    8  C6  UNL     1      18.385   0.444  51.335  1.00  0.00     0.090 C 
HETATM    9  N1  UNL     1      18.119   1.708  51.337  1.00  0.00    -0.257 NA
HETATM   10  C7  UNL     1      19.251   2.584  51.573  1.00  0.00     0.423 C 
HETATM   11  N2  UNL     1      20.441   2.132  50.898  1.00  0.00     0.132 N 
HETATM   12  C13 UNL     1      20.580   0.728  51.094  1.00  0.00     0.287 A 
HETATM   13  C14 UNL     1      21.865   0.452  51.784  1.00  0.00     0.046 A 
HETATM   14  C15 UNL     1      22.051  -0.183  52.933  1.00  0.00     0.069 A 
HETATM   15  N3  UNL     1      23.367  -0.345  53.412  1.00  0.00    -0.314 N 
ENDROOT
BRANCH  15  16
HETATM   16  C16 UNL     1      24.551   0.126  52.769  1.00  0.00     0.134 C 
BRANCH  16  17
HETATM   17  C17 UNL     1      24.691   1.611  53.137  1.00  0.00     0.050 C 
BRANCH  17  18
HETATM   18  C18 UNL     1      25.901   1.757  54.030  1.00  0.00     0.274 C 
BRANCH  18  19
HETATM   19  N4  UNL     1      26.940   0.894  53.557  1.00  0.00     0.092 N 
HETATM   20  C19 UNL     1      27.968   1.535  52.802  1.00  0.00     0.298 C 
HETATM   21  C20 UNL     1      28.759   2.527  53.628  1.00  0.00     0.198 C 
HETATM   22  O3  UNL     1      29.307   1.921  54.740  1.00  0.00    -0.388 OA
HETATM   23  C21 UNL     1      29.008   0.579  54.875  1.00  0.00     0.198 C 
HETATM   24  C22 UNL     1      27.566   0.238  54.691  1.00  0.00     0.298 C 
ENDBRANCH  18  19
ENDBRANCH  17  18
ENDBRANCH  16  17
ENDBRANCH  15  16
BRANCH  11  25
HETATM   25  C8  UNL     1      20.493   2.569  49.520  1.00  0.00     0.272 A 
HETATM   26  C9  UNL     1      21.514   3.644  49.426  1.00  0.00     0.013 A 
HETATM   27  C10 UNL     1      22.473   3.275  48.565  1.00  0.00    -0.002 A 
HETATM   28  C11 UNL     1      22.150   1.938  48.038  1.00  0.00    -0.002 A 
HETATM   29  C12 UNL     1      20.999   1.547  48.605  1.00  0.00     0.013 A 
ENDBRANCH  11  25
TORSDOF 5
ENDMDL
MODEL 2
REMARK VINA RESULT:      -8.5      2.053      2.774
REMARK  5 active torsions:
REMARK  status: ('A' for Active; 'I' for Inactive)
REMARK    1  A    between atoms: N2_11  and  C8_12 
REMARK    2  A    between atoms: N3_20  and  C16_21 
REMARK    3  A    between atoms: C16_21  and  C17_22 
REMARK    4  A    between atoms: C17_22  and  C18_23 
REMARK    5  A    between atoms: C18_23  and  N4_24 
ROOT
HETATM    1  O1  UNL     1      22.828  -1.556  55.476  1.00  0.00    -0.271 OA
HETATM    2  C1  UNL     1      22.337  -0.831  54.546  1.00  0.00     0.248 C 
HETATM    3  C2  UNL     1      20.887  -0.564  54.682  1.00  0.00     0.279 C 
HETATM    4  O2  UNL     1      20.454   0.608  54.040  1.00  0.00    -0.340 OA
HETATM    5  C3  UNL     1      21.184   1.139  52.985  1.00  0.00     0.096 A 
HETATM    6  C4  UNL     1      20.575   2.077  52.278  1.00  0.00     0.051 A 
HETATM    7  C5  UNL     1      21.361   2.619  51.176  1.00  0.00     0.012 A 
HETATM    8  C6  UNL     1      21.001   3.567  50.338  1.00  0.00     0.090 C 
HETATM    9  N1  UNL     1      21.670   4.661  50.501  1.00  0.00    -0.257 NA
HETATM   10  C7  UNL     1      22.941   4.519  51.184  1.00  0.00     0.423 C 
HETATM   11  N2  UNL     1      23.651   3.333  50.777  1.00  0.00     0.132 N 
HETATM   12  C13 UNL     1      22.740   2.237  50.743  1.00  0.00     0.287 A 
HETATM   13  C14 UNL     1      23.198   1.187  51.686  1.00  0.00     0.046 A 
HETATM   14  C15 UNL     1      22.533   0.665  52.707  1.00  0.00     0.069 A 
HETATM   15  N3  UNL     1      23.155  -0.338  53.480  1.00  0.00    -0.314 N 
ENDROOT
BRANCH  15  16
HETATM   16  C16 UNL     1      24.469  -0.854  53.270  1.00  0.00     0.134 C 
BRANCH  16  17
HETATM   17  C17 UNL     1      25.329  -0.358  54.443  1.00  0.00     0.050 C 
BRANCH  17  18
HETATM   18  C18 UNL     1      25.999   0.928  54.018  1.00  0.00     0.274 C 
BRANCH  18  19
HETATM   19  N4  UNL     1      27.109   0.620  53.169  1.00  0.00     0.092 N 
HETATM   20  C19 UNL     1      27.846   1.747  52.696  1.00  0.00     0.298 C 
HETATM   21  C20 UNL     1      28.528   2.504  53.816  1.00  0.00     0.198 C 
HETATM   22  O3  UNL     1      29.361   1.674  54.539  1.00  0.00    -0.388 OA
HETATM   23  C21 UNL     1      29.378   0.360  54.116  1.00  0.00     0.198 C 
HETATM   24  C22 UNL     1      28.031  -0.242  53.887  1.00  0.00     0.298 C 
ENDBRANCH  18  19
ENDBRANCH  17  18
ENDBRANCH  16  17
ENDBRANCH  15  16
BRANCH  11  25
HETATM   25  C8  UNL     1      24.415   3.536  49.567  1.00  0.00     0.272 A 
HETATM   26  C9  UNL     1      24.709   4.988  49.456  1.00  0.00     0.013 A 
HETATM   27  C10 UNL     1      26.037   5.175  49.439  1.00  0.00    -0.002 A 
HETATM   28  C11 UNL     1      26.702   3.865  49.537  1.00  0.00    -0.002 A 
HETATM   29  C12 UNL     1      25.744   2.928  49.610  1.00  0.00     0.013 A 
ENDBRANCH  11  25
TORSDOF 5
ENDMDL
MODEL 3
REMARK VINA RESULT:      -8.5      2.636      4.997
REMARK  5 active torsions:
REMARK  status: ('A' for Active; 'I' for Inactive)
REMARK    1  A    between atoms: N2_11  and  C8_12 
REMARK    2  A    between atoms: N3_20  and  C16_21 
REMARK    3  A    between atoms: C16_21  and  C17_22 
REMARK    4  A    between atoms: C17_22  and  C18_23 
REMARK    5  A    between atoms: C18_23  and  N4_24 
ROOT
HETATM    1  O1  UNL     1      28.198   2.405  53.903  1.00  0.00    -0.271 OA
HETATM    2  C1  UNL     1      27.287   1.509  53.866  1.00  0.00     0.248 C 
HETATM    3  C2  UNL     1      27.640   0.252  54.564  1.00  0.00     0.279 C 
HETATM    4  O2  UNL     1      26.533  -0.493  55.003  1.00  0.00    -0.340 OA
HETATM    5  C3  UNL     1      25.296  -0.337  54.392  1.00  0.00     0.096 A 
HETATM    6  C4  UNL     1      24.389  -1.253  54.684  1.00  0.00     0.051 A 
HETATM    7  C5  UNL     1      23.099  -1.068  54.030  1.00  0.00     0.012 A 
HETATM    8  C6  UNL     1      22.027  -1.820  54.165  1.00  0.00     0.090 C 
HETATM    9  N1  UNL     1      21.069  -1.220  54.790  1.00  0.00    -0.257 NA
HETATM   10  C7  UNL     1      21.140   0.229  54.800  1.00  0.00     0.423 C 
HETATM   11  N2  UNL     1      21.578   0.763  53.535  1.00  0.00     0.132 N 
HETATM   12  C13 UNL     1      22.690   0.003  53.070  1.00  0.00     0.287 A 
HETATM   13  C14 UNL     1      23.865   0.895  52.915  1.00  0.00     0.046 A 
HETATM   14  C15 UNL     1      25.055   0.781  53.489  1.00  0.00     0.069 A 
HETATM   15  N3  UNL     1      26.044   1.742  53.196  1.00  0.00    -0.314 N 
ENDROOT
BRANCH  15  16
HETATM   16  C16 UNL     1      25.884   2.861  52.324  1.00  0.00     0.134 C 
BRANCH  16  17
HETATM   17  C17 UNL     1      26.462   2.445  50.963  1.00  0.00     0.050 C 
BRANCH  17  18
HETATM   18  C18 UNL     1      26.007   3.455  49.935  1.00  0.00     0.274 C 
BRANCH  18  19
HETATM   19  N4  UNL     1      24.697   3.917  50.281  1.00  0.00     0.092 N 
HETATM   20  C19 UNL     1      24.550   5.335  50.355  1.00  0.00     0.298 C 
HETATM   21  C20 UNL     1      24.760   6.009  49.016  1.00  0.00     0.198 C 
HETATM   22  O3  UNL     1      23.897   5.501  48.065  1.00  0.00    -0.388 OA
HETATM   23  C21 UNL     1      23.064   4.497  48.516  1.00  0.00     0.198 C 
HETATM   24  C22 UNL     1      23.745   3.424  49.300  1.00  0.00     0.298 C 
ENDBRANCH  18  19
ENDBRANCH  17  18
ENDBRANCH  16  17
ENDBRANCH  15  16
BRANCH  11  25
HETATM   25  C8  UNL     1      20.491   0.903  52.591  1.00  0.00     0.272 A 
HETATM   26  C9  UNL     1      20.373   2.344  52.249  1.00  0.00     0.013 A 
HETATM   27  C10 UNL     1      20.552   2.507  50.930  1.00  0.00    -0.002 A 
HETATM   28  C11 UNL     1      20.799   1.190  50.319  1.00  0.00    -0.002 A 
HETATM   29  C12 UNL     1      20.760   0.274  51.299  1.00  0.00     0.013 A 
ENDBRANCH  11  25
TORSDOF 5
ENDMDL
MODEL 4
REMARK VINA RESULT:      -7.9      2.669      4.876
REMARK  5 active torsions:
REMARK  status: ('A' for Active; 'I' for Inactive)
REMARK    1  A    between atoms: N2_11  and  C8_12 
REMARK    2  A    between atoms: N3_20  and  C16_21 
REMARK    3  A    between atoms: C16_21  and  C17_22 
REMARK    4  A    between atoms: C17_22  and  C18_23 
REMARK    5  A    between atoms: C18_23  and  N4_24 
ROOT
HETATM    1  O1  UNL     1      26.988   3.764  49.810  1.00  0.00    -0.271 OA
HETATM    2  C1  UNL     1      25.766   3.934  50.139  1.00  0.00     0.248 C 
HETATM    3  C2  UNL     1      25.055   4.957  49.339  1.00  0.00     0.279 C 
HETATM    4  O2  UNL     1      23.662   4.786  49.291  1.00  0.00    -0.340 OA
HETATM    5  C3  UNL     1      23.008   4.079  50.292  1.00  0.00     0.096 A 
HETATM    6  C4  UNL     1      21.690   4.191  50.310  1.00  0.00     0.051 A 
HETATM    7  C5  UNL     1      21.027   3.440  51.369  1.00  0.00     0.012 A 
HETATM    8  C6  UNL     1      19.733   3.364  51.595  1.00  0.00     0.090 C 
HETATM    9  N1  UNL     1      19.248   2.193  51.346  1.00  0.00    -0.257 NA
HETATM   10  C7  UNL     1      20.209   1.108  51.340  1.00  0.00     0.423 C 
HETATM   11  N2  UNL     1      21.189   1.239  52.389  1.00  0.00     0.132 N 
HETATM   12  C13 UNL     1      21.645   2.588  52.431  1.00  0.00     0.287 A 
HETATM   13  C14 UNL     1      23.109   2.620  52.192  1.00  0.00     0.046 A 
HETATM   14  C15 UNL     1      23.764   3.276  51.243  1.00  0.00     0.069 A 
HETATM   15  N3  UNL     1      25.170   3.176  51.198  1.00  0.00    -0.314 N 
ENDROOT
BRANCH  15  16
HETATM   16  C16 UNL     1      25.980   2.413  52.092  1.00  0.00     0.134 C 
BRANCH  16  17
HETATM   17  C17 UNL     1      25.770   0.936  51.725  1.00  0.00     0.050 C 
BRANCH  17  18
HETATM   18  C18 UNL     1      27.106   0.238  51.824  1.00  0.00     0.274 C 
BRANCH  18  19
HETATM   19  N4  UNL     1      27.041  -0.756  52.852  1.00  0.00     0.092 N 
HETATM   20  C19 UNL     1      28.137  -0.761  53.766  1.00  0.00     0.298 C 
HETATM   21  C20 UNL     1      28.212   0.510  54.585  1.00  0.00     0.198 C 
HETATM   22  O3  UNL     1      27.035   0.727  55.272  1.00  0.00    -0.388 OA
HETATM   23  C21 UNL     1      26.054  -0.220  55.055  1.00  0.00     0.198 C 
HETATM   24  C22 UNL     1      25.823  -0.565  53.620  1.00  0.00     0.298 C 
ENDBRANCH  18  19
ENDBRANCH  17  18
ENDBRANCH  16  17
ENDBRANCH  15  16
BRANCH  11  25
HETATM   25  C8  UNL     1      20.720   0.709  53.649  1.00  0.00     0.272 A 
HETATM   26  C9  UNL     1      19.765  -0.390  53.350  1.00  0.00     0.013 A 
HETATM   27  C10 UNL     1      20.215  -1.532  53.889  1.00  0.00    -0.002 A 
HETATM   28  C11 UNL     1      21.491  -1.264  54.575  1.00  0.00    -0.002 A 
HETATM   29  C12 UNL     1      21.765   0.041  54.423  1.00  0.00     0.013 A 
ENDBRANCH  11  25
TORSDOF 5
ENDMDL
MODEL 5
REMARK VINA RESULT:      -7.9      3.561      6.860
REMARK  5 active torsions:
REMARK  status: ('A' for Active; 'I' for Inactive)
REMARK    1  A    between atoms: N2_11  and  C8_12 
REMARK    2  A    between atoms: N3_20  and  C16_21 
REMARK    3  A    between atoms: C16_21  and  C17_22 
REMARK    4  A    between atoms: C17_22  and  C18_23 
REMARK    5  A    between atoms: C18_23  and  N4_24 
ROOT
HETATM    1  O1  UNL     1      22.132   2.477  47.435  1.00  0.00    -0.271 OA
HETATM    2  C1  UNL     1      22.082   2.111  48.657  1.00  0.00     0.248 C 
HETATM    3  C2  UNL     1      20.858   1.360  49.018  1.00  0.00     0.279 C 
HETATM    4  O2  UNL     1      21.009   0.511  50.127  1.00  0.00    -0.340 OA
HETATM    5  C3  UNL     1      22.002   0.754  51.066  1.00  0.00     0.096 A 
HETATM    6  C4  UNL     1      21.906   0.074  52.196  1.00  0.00     0.051 A 
HETATM    7  C5  UNL     1      22.961   0.346  53.165  1.00  0.00     0.012 A 
HETATM    8  C6  UNL     1      23.109  -0.207  54.350  1.00  0.00     0.090 C 
HETATM    9  N1  UNL     1      24.139  -0.983  54.416  1.00  0.00    -0.257 NA
HETATM   10  C7  UNL     1      25.162  -0.749  53.414  1.00  0.00     0.423 C 
HETATM   11  N2  UNL     1      25.372   0.654  53.165  1.00  0.00     0.132 N 
HETATM   12  C13 UNL     1      24.107   1.299  53.048  1.00  0.00     0.287 A 
HETATM   13  C14 UNL     1      23.994   1.923  51.707  1.00  0.00     0.046 A 
HETATM   14  C15 UNL     1      23.066   1.708  50.784  1.00  0.00     0.069 A 
HETATM   15  N3  UNL     1      23.141   2.419  49.569  1.00  0.00    -0.314 N 
ENDROOT
BRANCH  15  16
HETATM   16  C16 UNL     1      24.149   3.368  49.220  1.00  0.00     0.134 C 
BRANCH  16  17
HETATM   17  C17 UNL     1      23.497   4.756  49.311  1.00  0.00     0.050 C 
BRANCH  17  18
HETATM   18  C18 UNL     1      24.506   5.707  49.912  1.00  0.00     0.274 C 
BRANCH  18  19
HETATM   19  N4  UNL     1      23.892   6.425  50.987  1.00  0.00     0.092 N 
HETATM   20  C19 UNL     1      23.995   7.846  50.908  1.00  0.00     0.298 C 
HETATM   21  C20 UNL     1      23.261   8.414  49.712  1.00  0.00     0.198 C 
HETATM   22  O3  UNL     1      21.931   8.045  49.726  1.00  0.00    -0.388 OA
HETATM   23  C21 UNL     1      21.565   7.237  50.785  1.00  0.00     0.198 C 
HETATM   24  C22 UNL     1      22.481   6.085  51.039  1.00  0.00     0.298 C 
ENDBRANCH  18  19
ENDBRANCH  17  18
ENDBRANCH  16  17
ENDBRANCH  15  16
BRANCH  11  25
HETATM   25  C8  UNL     1      26.281   1.253  54.116  1.00  0.00     0.272 A 
HETATM   26  C9  UNL     1      27.320   0.242  54.445  1.00  0.00     0.013 A 
HETATM   27  C10 UNL     1      28.529   0.721  54.117  1.00  0.00    -0.002 A 
HETATM   28  C11 UNL     1      28.367   2.072  53.553  1.00  0.00    -0.002 A 
HETATM   29  C12 UNL     1      27.057   2.361  53.561  1.00  0.00     0.013 A 
ENDBRANCH  11  25
TORSDOF 5
ENDMDL
MODEL 6
REMARK VINA RESULT:      -7.8      2.003      2.892
REMARK  5 active torsions:
REMARK  status: ('A' for Active; 'I' for Inactive)
REMARK    1  A    between atoms: N2_11  and  C8_12 
REMARK    2  A    between atoms: N3_20  and  C16_21 
REMARK    3  A    between atoms: C16_21  and  C17_22 
REMARK    4  A    between atoms: C17_22  and  C18_23 
REMARK    5  A    between atoms: C18_23  and  N4_24 
ROOT
HETATM    1  O1  UNL     1      25.092  -0.631  55.166  1.00  0.00    -0.271 OA
HETATM    2  C1  UNL     1      23.951  -0.766  54.609  1.00  0.00     0.248 C 
HETATM    3  C2  UNL     1      22.965  -1.523  55.413  1.00  0.00     0.279 C 
HETATM    4  O2  UNL     1      21.626  -1.229  55.109  1.00  0.00    -0.340 OA
HETATM    5  C3  UNL     1      21.287  -0.708  53.867  1.00  0.00     0.096 A 
HETATM    6  C4  UNL     1      19.998  -0.710  53.574  1.00  0.00     0.051 A 
HETATM    7  C5  UNL     1      19.667  -0.158  52.265  1.00  0.00     0.012 A 
HETATM    8  C6  UNL     1      18.467  -0.026  51.741  1.00  0.00     0.090 C 
HETATM    9  N1  UNL     1      18.100   1.208  51.637  1.00  0.00    -0.257 NA
HETATM   10  C7  UNL     1      19.173   2.183  51.646  1.00  0.00     0.423 C 
HETATM   11  N2  UNL     1      20.319   1.740  50.894  1.00  0.00     0.132 N 
HETATM   12  C13 UNL     1      20.595   0.382  51.224  1.00  0.00     0.287 A 
HETATM   13  C14 UNL     1      21.962   0.280  51.790  1.00  0.00     0.046 A 
HETATM   14  C15 UNL     1      22.319  -0.202  52.973  1.00  0.00     0.069 A 
HETATM   15  N3  UNL     1      23.687  -0.214  53.314  1.00  0.00    -0.314 N 
ENDROOT
BRANCH  15  16
HETATM   16  C16 UNL     1      24.754   0.261  52.494  1.00  0.00     0.134 C 
BRANCH  16  17
HETATM   17  C17 UNL     1      25.068   1.690  52.964  1.00  0.00     0.050 C 
BRANCH  17  18
HETATM   18  C18 UNL     1      25.679   2.438  51.802  1.00  0.00     0.274 C 
BRANCH  18  19
HETATM   19  N4  UNL     1      24.660   2.720  50.838  1.00  0.00     0.092 N 
HETATM   20  C19 UNL     1      23.607   3.569  51.294  1.00  0.00     0.298 C 
HETATM   21  C20 UNL     1      24.093   4.963  51.629  1.00  0.00     0.198 C 
HETATM   22  O3  UNL     1      24.721   5.543  50.546  1.00  0.00    -0.388 OA
HETATM   23  C21 UNL     1      24.794   4.743  49.423  1.00  0.00     0.198 C 
HETATM   24  C22 UNL     1      25.265   3.349  49.677  1.00  0.00     0.298 C 
ENDBRANCH  18  19
ENDBRANCH  17  18
ENDBRANCH  16  17
ENDBRANCH  15  16
BRANCH  11  25
HETATM   25  C8  UNL     1      20.190   2.016  49.481  1.00  0.00     0.272 A 
HETATM   26  C9  UNL     1      20.438   3.467  49.279  1.00  0.00     0.013 A 
HETATM   27  C10 UNL     1      21.484   3.632  48.456  1.00  0.00    -0.002 A 
HETATM   28  C11 UNL     1      21.992   2.307  48.063  1.00  0.00    -0.002 A 
HETATM   29  C12 UNL     1      21.229   1.384  48.668  1.00  0.00     0.013 A 
ENDBRANCH  11  25
TORSDOF 5
ENDMDL
MODEL 7
REMARK VINA RESULT:      -7.8      2.419      6.084
REMARK  5 active torsions:
REMARK  status: ('A' for Active; 'I' for Inactive)
REMARK    1  A    between atoms: N2_11  and  C8_12 
REMARK    2  A    between atoms: N3_20  and  C16_21 
REMARK    3  A    between atoms: C16_21  and  C17_22 
REMARK    4  A    between atoms: C17_22  and  C18_23 
REMARK    5  A    between atoms: C18_23  and  N4_24 
ROOT
HETATM    1  O1  UNL     1      18.609   0.010  51.604  1.00  0.00    -0.271 OA
HETATM    2  C1  UNL     1      19.637  -0.042  52.360  1.00  0.00     0.248 C 
HETATM    3  C2  UNL     1      19.456  -0.859  53.581  1.00  0.00     0.279 C 
HETATM    4  O2  UNL     1      20.651  -1.370  54.115  1.00  0.00    -0.340 OA
HETATM    5  C3  UNL     1      21.862  -0.747  53.844  1.00  0.00     0.096 A 
HETATM    6  C4  UNL     1      22.886  -1.129  54.589  1.00  0.00     0.051 A 
HETATM    7  C5  UNL     1      24.146  -0.462  54.285  1.00  0.00     0.012 A 
HETATM    8  C6  UNL     1      25.311  -0.670  54.860  1.00  0.00     0.090 C 
HETATM    9  N1  UNL     1      26.165  -1.235  54.072  1.00  0.00    -0.257 NA
HETATM   10  C7  UNL     1      25.889  -1.103  52.655  1.00  0.00     0.423 C 
HETATM   11  N2  UNL     1      25.400   0.208  52.313  1.00  0.00     0.132 N 
HETATM   12  C13 UNL     1      24.413   0.598  53.265  1.00  0.00     0.287 A 
HETATM   13  C14 UNL     1      23.126   0.841  52.568  1.00  0.00     0.046 A 
HETATM   14  C15 UNL     1      21.956   0.259  52.795  1.00  0.00     0.069 A 
HETATM   15  N3  UNL     1      20.845   0.646  52.017  1.00  0.00    -0.314 N 
ENDROOT
BRANCH  15  16
HETATM   16  C16 UNL     1      20.858   1.623  50.976  1.00  0.00     0.134 C 
BRANCH  16  17
HETATM   17  C17 UNL     1      20.441   2.955  51.617  1.00  0.00     0.050 C 
BRANCH  17  18
HETATM   18  C18 UNL     1      21.058   4.074  50.810  1.00  0.00     0.274 C 
BRANCH  18  19
HETATM   19  N4  UNL     1      21.630   5.036  51.701  1.00  0.00     0.092 N 
HETATM   20  C19 UNL     1      22.833   4.626  52.351  1.00  0.00     0.298 C 
HETATM   21  C20 UNL     1      23.971   4.411  51.376  1.00  0.00     0.198 C 
HETATM   22  O3  UNL     1      24.208   5.548  50.631  1.00  0.00    -0.388 OA
HETATM   23  C21 UNL     1      23.366   6.607  50.908  1.00  0.00     0.198 C 
HETATM   24  C22 UNL     1      21.916   6.254  50.965  1.00  0.00     0.298 C 
ENDBRANCH  18  19
ENDBRANCH  17  18
ENDBRANCH  16  17
ENDBRANCH  15  16
BRANCH  11  25
HETATM   25  C8  UNL     1      26.469   1.160  52.111  1.00  0.00     0.272 A 
HETATM   26  C9  UNL     1      26.334   2.218  53.145  1.00  0.00     0.013 A 
HETATM   27  C10 UNL     1      27.445   2.256  53.894  1.00  0.00    -0.002 A 
HETATM   28  C11 UNL     1      28.382   1.230  53.405  1.00  0.00    -0.002 A 
HETATM   29  C12 UNL     1      27.797   0.606  52.372  1.00  0.00     0.013 A 
ENDBRANCH  11  25
TORSDOF 5
ENDMDL
MODEL 8
REMARK VINA RESULT:      -7.6      3.007      5.311
REMARK  5 active torsions:
REMARK  status: ('A' for Active; 'I' for Inactive)
REMARK    1  A    between atoms: N2_11  and  C8_12 
REMARK    2  A    between atoms: N3_20  and  C16_21 
REMARK    3  A    between atoms: C16_21  and  C17_22 
REMARK    4  A    between atoms: C17_22  and  C18_23 
REMARK    5  A    between atoms: C18_23  and  N4_24 
ROOT
HETATM    1  O1  UNL     1      27.673   4.354  48.935  1.00  0.00    -0.271 OA
HETATM    2  C1  UNL     1      26.511   4.655  49.372  1.00  0.00     0.248 C 
HETATM    3  C2  UNL     1      26.131   6.071  49.167  1.00  0.00     0.279 C 
HETATM    4  O2  UNL     1      24.744   6.295  49.124  1.00  0.00    -0.340 OA
HETATM    5  C3  UNL     1      23.871   5.399  49.726  1.00  0.00     0.096 A 
HETATM    6  C4  UNL     1      22.624   5.816  49.866  1.00  0.00     0.051 A 
HETATM    7  C5  UNL     1      21.726   4.858  50.500  1.00  0.00     0.012 A 
HETATM    8  C6  UNL     1      20.441   5.015  50.738  1.00  0.00     0.090 C 
HETATM    9  N1  UNL     1      19.700   4.247  50.010  1.00  0.00    -0.257 NA
HETATM   10  C7  UNL     1      20.362   3.082  49.456  1.00  0.00     0.423 C 
HETATM   11  N2  UNL     1      21.271   2.473  50.393  1.00  0.00     0.132 N 
HETATM   12  C13 UNL     1      22.042   3.493  51.021  1.00  0.00     0.287 A 
HETATM   13  C14 UNL     1      23.481   3.263  50.743  1.00  0.00     0.046 A 
HETATM   14  C15 UNL     1      24.340   4.091  50.163  1.00  0.00     0.069 A 
HETATM   15  N3  UNL     1      25.678   3.675  50.000  1.00  0.00    -0.314 N 
ENDROOT
BRANCH  15  16
HETATM   16  C16 UNL     1      26.212   2.414  50.402  1.00  0.00     0.134 C 
BRANCH  16  17
HETATM   17  C17 UNL     1      26.849   2.626  51.784  1.00  0.00     0.050 C 
BRANCH  17  18
HETATM   18  C18 UNL     1      26.065   1.811  52.787  1.00  0.00     0.274 C 
BRANCH  18  19
HETATM   19  N4  UNL     1      26.958   1.320  53.792  1.00  0.00     0.092 N 
HETATM   20  C19 UNL     1      26.386   0.396  54.717  1.00  0.00     0.298 C 
HETATM   21  C20 UNL     1      25.950  -0.892  54.051  1.00  0.00     0.198 C 
HETATM   22  O3  UNL     1      27.003  -1.489  53.388  1.00  0.00    -0.388 OA
HETATM   23  C21 UNL     1      28.194  -0.793  53.449  1.00  0.00     0.198 C 
HETATM   24  C22 UNL     1      28.083   0.665  53.148  1.00  0.00     0.298 C 
ENDBRANCH  18  19
ENDBRANCH  17  18
ENDBRANCH  16  17
ENDBRANCH  15  16
BRANCH  11  25
HETATM   25  C8  UNL     1      20.603   1.563  51.297  1.00  0.00     0.272 A 
HETATM   26  C9  UNL     1      21.249   0.232  51.159  1.00  0.00     0.013 A 
HETATM   27  C10 UNL     1      21.755  -0.144  52.342  1.00  0.00    -0.002 A 
HETATM   28  C11 UNL     1      21.477   0.909  53.334  1.00  0.00    -0.002 A 
HETATM   29  C12 UNL     1      20.809   1.889  52.707  1.00  0.00     0.013 A 
ENDBRANCH  11  25
TORSDOF 5
ENDMDL
MODEL 9
REMARK VINA RESULT:      -7.5      2.884      7.709
REMARK  5 active torsions:
REMARK  status: ('A' for Active; 'I' for Inactive)
REMARK    1  A    between atoms: N2_11  and  C8_12 
REMARK    2  A    between atoms: N3_20  and  C16_21 
REMARK    3  A    between atoms: C16_21  and  C17_22 
REMARK    4  A    between atoms: C17_22  and  C18_23 
REMARK    5  A    between atoms: C18_23  and  N4_24 
ROOT
HETATM    1  O1  UNL     1      22.847   5.855  49.130  1.00  0.00    -0.271 OA
HETATM    2  C1  UNL     1      23.695   4.962  49.470  1.00  0.00     0.248 C 
HETATM    3  C2  UNL     1      25.105   5.330  49.209  1.00  0.00     0.279 C 
HETATM    4  O2  UNL     1      26.034   4.666  50.026  1.00  0.00    -0.340 OA
HETATM    5  C3  UNL     1      25.709   3.450  50.613  1.00  0.00     0.096 A 
HETATM    6  C4  UNL     1      26.717   2.777  51.141  1.00  0.00     0.051 A 
HETATM    7  C5  UNL     1      26.350   1.504  51.751  1.00  0.00     0.012 A 
HETATM    8  C6  UNL     1      27.152   0.656  52.358  1.00  0.00     0.090 C 
HETATM    9  N1  UNL     1      26.940   0.590  53.631  1.00  0.00    -0.257 NA
HETATM   10  C7  UNL     1      25.635   1.043  54.071  1.00  0.00     0.423 C 
HETATM   11  N2  UNL     1      24.583   0.633  53.176  1.00  0.00     0.132 N 
HETATM   12  C13 UNL     1      24.998   0.870  51.834  1.00  0.00     0.287 A 
HETATM   13  C14 UNL     1      24.054   1.812  51.185  1.00  0.00     0.046 A 
HETATM   14  C15 UNL     1      24.329   2.982  50.624  1.00  0.00     0.069 A 
HETATM   15  N3  UNL     1      23.275   3.724  50.052  1.00  0.00    -0.314 N 
ENDROOT
BRANCH  15  16
HETATM   16  C16 UNL     1      21.903   3.333  50.023  1.00  0.00     0.134 C 
BRANCH  16  17
HETATM   17  C17 UNL     1      21.276   3.825  51.337  1.00  0.00     0.050 C 
BRANCH  17  18
HETATM   18  C18 UNL     1      19.796   4.017  51.103  1.00  0.00     0.274 C 
BRANCH  18  19
HETATM   19  N4  UNL     1      19.066   3.147  51.974  1.00  0.00     0.092 N 
HETATM   20  C19 UNL     1      17.937   2.501  51.386  1.00  0.00     0.298 C 
HETATM   21  C20 UNL     1      18.329   1.551  50.274  1.00  0.00     0.198 C 
HETATM   22  O3  UNL     1      19.224   0.602  50.726  1.00  0.00    -0.388 OA
HETATM   23  C21 UNL     1      19.583   0.730  52.053  1.00  0.00     0.198 C 
HETATM   24  C22 UNL     1      19.959   2.114  52.469  1.00  0.00     0.298 C 
ENDBRANCH  18  19
ENDBRANCH  17  18
ENDBRANCH  16  17
ENDBRANCH  15  16
BRANCH  11  25
HETATM   25  C8  UNL     1      24.120  -0.709  53.449  1.00  0.00     0.272 A 
HETATM   26  C9  UNL     1      24.203  -0.925  54.917  1.00  0.00     0.013 A 
HETATM   27  C10 UNL     1      22.983  -1.206  55.397  1.00  0.00    -0.002 A 
HETATM   28  C11 UNL     1      22.020  -1.193  54.283  1.00  0.00    -0.002 A 
HETATM   29  C12 UNL     1      22.699  -0.902  53.163  1.00  0.00     0.013 A 
ENDBRANCH  11  25
TORSDOF 5
ENDMDL
