MODEL 1
REMARK VINA RESULT:      -8.0      0.000      0.000
REMARK  7 active torsions:
REMARK  status: ('A' for Active; 'I' for Inactive)
REMARK    1  A    between atoms: N1_1  and  C1_2 
REMARK    2  A    between atoms: C1_2  and  C2_3 
REMARK    3  A    between atoms: C5_6  and  N2_7 
REMARK       I    between atoms: N2_7  and  C6_8 
REMARK    4  A    between atoms: C6_8  and  C7_10 
REMARK    5  A    between atoms: C8_11  and  C9_12 
REMARK    6  A    between atoms: C9_12  and  C14_17 
REMARK    7  A    between atoms: C11_14  and  C12_15 
ROOT
HETATM    1  C2  UNL     1      20.824  -0.171  53.311  1.00  0.00    -0.014 C 
HETATM    2  C3  UNL     1      22.139   0.131  53.187  1.00  0.00     0.060 C 
HETATM    3  C4  UNL     1      22.920   1.154  52.434  1.00  0.00     0.005 C 
HETATM    4  C5  UNL     1      24.215   1.395  52.378  1.00  0.00     0.014 C 
HETATM    5  C15 UNL     1      24.869   0.596  53.382  1.00  0.00     0.073 C 
HETATM    6  C16 UNL     1      26.050   0.232  53.951  1.00  0.00    -0.015 C 
HETATM    7  C17 UNL     1      25.473  -0.714  55.005  1.00  0.00    -0.001 C 
HETATM    8  C18 UNL     1      24.381  -1.311  55.606  1.00  0.00     0.126 C 
HETATM    9  N3  UNL     1      22.947  -1.145  55.296  1.00  0.00    -0.415 N 
HETATM   10  C19 UNL     1      22.130  -1.984  54.442  1.00  0.00     0.114 C 
HETATM   11  C20 UNL     1      20.784  -1.451  54.101  1.00  0.00     0.027 C 
HETATM   12  H17 UNL     1      22.267  -0.388  55.680  1.00  0.00     0.153 HD
ENDROOT
BRANCH   4  13
HETATM   13  N2  UNL     1      24.860   2.394  51.610  1.00  0.00    -0.327 N 
HETATM   14  C6  UNL     1      24.720   3.036  50.377  1.00  0.00     0.245 C 
HETATM   15  O1  UNL     1      23.730   2.624  49.747  1.00  0.00    -0.268 OA
HETATM   16  H7  UNL     1      25.715   2.829  52.010  1.00  0.00     0.169 HD
BRANCH  14  17
HETATM   17  C7  UNL     1      25.479   4.051  49.716  1.00  0.00     0.071 C 
HETATM   18  C8  UNL     1      26.708   4.059  49.382  1.00  0.00    -0.006 C 
BRANCH  18  19
HETATM   19  C9  UNL     1      27.483   5.214  48.654  1.00  0.00     0.018 A 
HETATM   20  C10 UNL     1      29.011   5.354  48.234  1.00  0.00     0.043 A 
HETATM   21  C11 UNL     1      28.229   6.171  48.036  1.00  0.00    -0.057 A 
BRANCH  21  22
HETATM   22  C12 UNL     1      27.503   6.901  47.865  1.00  0.00    -0.064 A 
HETATM   23  C13 UNL     1      26.734   7.705  47.692  1.00  0.00     0.034 A 
HETATM   24  C14 UNL     1      28.096   8.024  48.407  1.00  0.00     0.041 A 
ENDBRANCH  21  22
ENDBRANCH  18  19
ENDBRANCH  14  17
ENDBRANCH   4  13
BRANCH   1  25
HETATM   25  C1  UNL     1      19.343   0.052  53.004  1.00  0.00     0.272 C 
BRANCH  25  26
HETATM   26  N1  UNL     1      18.581  -1.037  53.563  1.00  0.00     0.078 N 
HETATM   27  H1  UNL     1      18.243  -0.754  54.530  1.00  0.00     0.312 HD
HETATM   28  H2  UNL     1      19.271  -1.828  53.739  1.00  0.00     0.312 HD
ENDBRANCH  25  26
ENDBRANCH   1  25
TORSDOF 7
ENDMDL
MODEL 2
REMARK VINA RESULT:      -7.9      1.941      2.688
REMARK  7 active torsions:
REMARK  status: ('A' for Active; 'I' for Inactive)
REMARK    1  A    between atoms: N1_1  and  C1_2 
REMARK    2  A    between atoms: C1_2  and  C2_3 
REMARK    3  A    between atoms: C5_6  and  N2_7 
REMARK       I    between atoms: N2_7  and  C6_8 
REMARK    4  A    between atoms: C6_8  and  C7_10 
REMARK    5  A    between atoms: C8_11  and  C9_12 
REMARK    6  A    between atoms: C9_12  and  C14_17 
REMARK    7  A    between atoms: C11_14  and  C12_15 
ROOT
HETATM    1  C2  UNL     1      23.553   0.472  53.167  1.00  0.00    -0.014 C 
HETATM    2  C3  UNL     1      24.775   0.967  52.856  1.00  0.00     0.060 C 
HETATM    3  C4  UNL     1      25.281   2.024  51.934  1.00  0.00     0.005 C 
HETATM    4  C5  UNL     1      26.503   2.462  51.697  1.00  0.00     0.014 C 
HETATM    5  C15 UNL     1      27.391   1.880  52.670  1.00  0.00     0.073 C 
HETATM    6  C16 UNL     1      28.672   1.766  53.112  1.00  0.00    -0.015 C 
HETATM    7  C17 UNL     1      28.386   0.846  54.300  1.00  0.00    -0.001 C 
HETATM    8  C18 UNL     1      27.485   0.143  55.077  1.00  0.00     0.126 C 
HETATM    9  N3  UNL     1      26.018   0.047  54.938  1.00  0.00    -0.415 N 
HETATM   10  C19 UNL     1      25.265  -0.991  54.260  1.00  0.00     0.114 C 
HETATM   11  C20 UNL     1      23.820  -0.715  54.052  1.00  0.00     0.027 C 
HETATM   12  H17 UNL     1      25.266   0.719  55.345  1.00  0.00     0.153 HD
ENDROOT
BRANCH   4  13
HETATM   13  N2  UNL     1      26.879   3.473  50.779  1.00  0.00    -0.327 N 
HETATM   14  C6  UNL     1      26.399   4.075  49.613  1.00  0.00     0.245 C 
HETATM   15  O1  UNL     1      25.307   3.597  49.258  1.00  0.00    -0.268 OA
HETATM   16  H7  UNL     1      27.781   3.960  50.947  1.00  0.00     0.169 HD
BRANCH  14  17
HETATM   17  C7  UNL     1      26.911   5.110  48.771  1.00  0.00     0.071 C 
HETATM   18  C8  UNL     1      28.114   5.490  48.590  1.00  0.00    -0.006 C 
BRANCH  18  19
HETATM   19  C9  UNL     1      28.610   6.641  47.644  1.00  0.00     0.018 A 
HETATM   20  C10 UNL     1      30.074   7.116  47.246  1.00  0.00     0.043 A 
HETATM   21  C11 UNL     1      29.122   7.620  46.848  1.00  0.00    -0.057 A 
BRANCH  21  22
HETATM   22  C12 UNL     1      28.243   8.063  46.499  1.00  0.00    -0.064 A 
HETATM   23  C13 UNL     1      27.306   8.544  46.101  1.00  0.00     0.034 A 
HETATM   24  C14 UNL     1      28.566   8.336  45.184  1.00  0.00     0.041 A 
ENDBRANCH  21  22
ENDBRANCH  18  19
ENDBRANCH  14  17
ENDBRANCH   4  13
BRANCH   1  25
HETATM   25  C1  UNL     1      22.030   0.425  53.032  1.00  0.00     0.272 C 
BRANCH  25  26
HETATM   26  N1  UNL     1      21.525  -0.663  53.831  1.00  0.00     0.078 N 
HETATM   27  H1  UNL     1      22.194  -0.831  54.639  1.00  0.00     0.312 HD
HETATM   28  H2  UNL     1      21.602  -1.539  53.231  1.00  0.00     0.312 HD
ENDBRANCH  25  26
ENDBRANCH   1  25
TORSDOF 7
ENDMDL
MODEL 3
REMARK VINA RESULT:      -7.8      2.227      4.254
REMARK  7 active torsions:
REMARK  status: ('A' for Active; 'I' for Inactive)
REMARK    1  A    between atoms: N1_1  and  C1_2 
REMARK    2  A    between atoms: C1_2  and  C2_3 
REMARK    3  A    between atoms: C5_6  and  N2_7 
REMARK       I    between atoms: N2_7  and  C6_8 
REMARK    4  A    between atoms: C6_8  and  C7_10 
REMARK    5  A    between atoms: C8_11  and  C9_12 
REMARK    6  A    between atoms: C9_12  and  C14_17 
REMARK    7  A    between atoms: C11_14  and  C12_15 
ROOT
HETATM    1  C2  UNL     1      27.015  -0.497  52.933  1.00  0.00    -0.014 C 
HETATM    2  C3  UNL     1      26.445   0.653  52.499  1.00  0.00     0.060 C 
HETATM    3  C4  UNL     1      26.881   1.783  51.630  1.00  0.00     0.005 C 
HETATM    4  C5  UNL     1      26.252   2.874  51.238  1.00  0.00     0.014 C 
HETATM    5  C15 UNL     1      24.869   2.765  51.626  1.00  0.00     0.073 C 
HETATM    6  C16 UNL     1      23.647   3.361  51.650  1.00  0.00    -0.015 C 
HETATM    7  C17 UNL     1      22.889   2.223  52.335  1.00  0.00    -0.001 C 
HETATM    8  C18 UNL     1      22.879   0.955  52.885  1.00  0.00     0.126 C 
HETATM    9  N3  UNL     1      23.990  -0.010  53.012  1.00  0.00    -0.415 N 
HETATM   10  C19 UNL     1      24.851  -0.212  54.160  1.00  0.00     0.114 C 
HETATM   11  C20 UNL     1      26.047  -1.066  53.935  1.00  0.00     0.027 C 
HETATM   12  H17 UNL     1      24.322  -0.741  52.279  1.00  0.00     0.153 HD
ENDROOT
BRANCH   4  13
HETATM   13  N2  UNL     1      26.769   3.902  50.414  1.00  0.00    -0.327 N 
HETATM   14  C6  UNL     1      26.383   4.671  49.313  1.00  0.00     0.245 C 
HETATM   15  O1  UNL     1      25.235   4.389  48.927  1.00  0.00    -0.268 OA
HETATM   16  H7  UNL     1      27.732   4.239  50.615  1.00  0.00     0.169 HD
BRANCH  14  17
HETATM   17  C7  UNL     1      27.039   5.697  48.564  1.00  0.00     0.071 C 
HETATM   18  C8  UNL     1      28.264   5.801  48.229  1.00  0.00    -0.006 C 
BRANCH  18  19
HETATM   19  C9  UNL     1      28.922   6.961  47.401  1.00  0.00     0.018 A 
HETATM   20  C10 UNL     1      30.304   7.728  47.580  1.00  0.00     0.043 A 
HETATM   21  C11 UNL     1      29.558   7.969  46.742  1.00  0.00    -0.057 A 
BRANCH  21  22
HETATM   22  C12 UNL     1      28.865   8.173  45.988  1.00  0.00    -0.064 A 
HETATM   23  C13 UNL     1      28.108   8.408  45.189  1.00  0.00     0.034 A 
HETATM   24  C14 UNL     1      28.067   9.128  46.585  1.00  0.00     0.041 A 
ENDBRANCH  21  22
ENDBRANCH  18  19
ENDBRANCH  14  17
ENDBRANCH   4  13
BRANCH   1  25
HETATM   25  C1  UNL     1      28.169  -1.498  53.011  1.00  0.00     0.272 C 
BRANCH  25  26
HETATM   26  N1  UNL     1      27.628  -2.835  52.992  1.00  0.00     0.078 N 
HETATM   27  H1  UNL     1      26.641  -2.796  52.601  1.00  0.00     0.312 HD
HETATM   28  H2  UNL     1      27.505  -3.125  54.009  1.00  0.00     0.312 HD
ENDBRANCH  25  26
ENDBRANCH   1  25
TORSDOF 7
ENDMDL
MODEL 4
REMARK VINA RESULT:      -7.8      1.779      3.526
REMARK  7 active torsions:
REMARK  status: ('A' for Active; 'I' for Inactive)
REMARK    1  A    between atoms: N1_1  and  C1_2 
REMARK    2  A    between atoms: C1_2  and  C2_3 
REMARK    3  A    between atoms: C5_6  and  N2_7 
REMARK       I    between atoms: N2_7  and  C6_8 
REMARK    4  A    between atoms: C6_8  and  C7_10 
REMARK    5  A    between atoms: C8_11  and  C9_12 
REMARK    6  A    between atoms: C9_12  and  C14_17 
REMARK    7  A    between atoms: C11_14  and  C12_15 
ROOT
HETATM    1  C2  UNL     1      24.124  -0.276  53.987  1.00  0.00    -0.014 C 
HETATM    2  C3  UNL     1      23.906   0.576  52.957  1.00  0.00     0.060 C 
HETATM    3  C4  UNL     1      24.755   1.508  52.161  1.00  0.00     0.005 C 
HETATM    4  C5  UNL     1      24.464   2.303  51.149  1.00  0.00     0.014 C 
HETATM    5  C15 UNL     1      23.125   2.009  50.710  1.00  0.00     0.073 C 
HETATM    6  C16 UNL     1      22.118   2.319  49.849  1.00  0.00    -0.015 C 
HETATM    7  C17 UNL     1      21.121   1.263  50.328  1.00  0.00    -0.001 C 
HETATM    8  C18 UNL     1      20.807   0.208  51.163  1.00  0.00     0.126 C 
HETATM    9  N3  UNL     1      21.640  -0.434  52.200  1.00  0.00    -0.415 N 
HETATM   10  C19 UNL     1      21.651  -0.147  53.621  1.00  0.00     0.114 C 
HETATM   11  C20 UNL     1      22.760  -0.758  54.400  1.00  0.00     0.027 C 
HETATM   12  H17 UNL     1      22.355  -1.244  52.071  1.00  0.00     0.153 HD
ENDROOT
BRANCH   4  13
HETATM   13  N2  UNL     1      25.354   3.168  50.467  1.00  0.00    -0.327 N 
HETATM   14  C6  UNL     1      25.388   4.475  49.974  1.00  0.00     0.245 C 
HETATM   15  O1  UNL     1      24.328   5.085  50.196  1.00  0.00    -0.268 OA
HETATM   16  H7  UNL     1      26.286   2.789  50.208  1.00  0.00     0.169 HD
BRANCH  14  17
HETATM   17  C7  UNL     1      26.387   5.227  49.280  1.00  0.00     0.071 C 
HETATM   18  C8  UNL     1      27.541   4.868  48.878  1.00  0.00    -0.006 C 
BRANCH  18  19
HETATM   19  C9  UNL     1      28.594   5.750  48.117  1.00  0.00     0.018 A 
HETATM   20  C10 UNL     1      30.172   5.611  47.970  1.00  0.00     0.043 A 
HETATM   21  C11 UNL     1      29.570   6.464  47.490  1.00  0.00    -0.057 A 
BRANCH  21  22
HETATM   22  C12 UNL     1      29.004   7.230  47.064  1.00  0.00    -0.064 A 
HETATM   23  C13 UNL     1      28.397   8.070  46.623  1.00  0.00     0.034 A 
HETATM   24  C14 UNL     1      29.026   8.187  48.058  1.00  0.00     0.041 A 
ENDBRANCH  21  22
ENDBRANCH  18  19
ENDBRANCH  14  17
ENDBRANCH   4  13
BRANCH   1  25
HETATM   25  C1  UNL     1      25.021  -0.955  55.023  1.00  0.00     0.272 C 
BRANCH  25  26
HETATM   26  N1  UNL     1      26.325  -0.342  54.984  1.00  0.00     0.078 N 
HETATM   27  H1  UNL     1      26.229   0.636  54.579  1.00  0.00     0.312 HD
HETATM   28  H2  UNL     1      26.891  -0.880  54.261  1.00  0.00     0.312 HD
ENDBRANCH  25  26
ENDBRANCH   1  25
TORSDOF 7
ENDMDL
MODEL 5
REMARK VINA RESULT:      -7.8      2.845     10.018
REMARK  7 active torsions:
REMARK  status: ('A' for Active; 'I' for Inactive)
REMARK    1  A    between atoms: N1_1  and  C1_2 
REMARK    2  A    between atoms: C1_2  and  C2_3 
REMARK    3  A    between atoms: C5_6  and  N2_7 
REMARK       I    between atoms: N2_7  and  C6_8 
REMARK    4  A    between atoms: C6_8  and  C7_10 
REMARK    5  A    between atoms: C8_11  and  C9_12 
REMARK    6  A    between atoms: C9_12  and  C14_17 
REMARK    7  A    between atoms: C11_14  and  C12_15 
ROOT
HETATM    1  C2  UNL     1      29.640   6.136  48.123  1.00  0.00    -0.014 C 
HETATM    2  C3  UNL     1      28.333   5.846  48.328  1.00  0.00     0.060 C 
HETATM    3  C4  UNL     1      27.592   4.783  49.065  1.00  0.00     0.005 C 
HETATM    4  C5  UNL     1      26.299   4.576  49.231  1.00  0.00     0.014 C 
HETATM    5  C15 UNL     1      25.588   5.721  48.726  1.00  0.00     0.073 C 
HETATM    6  C16 UNL     1      24.375   6.292  48.493  1.00  0.00    -0.015 C 
HETATM    7  C17 UNL     1      24.890   7.607  47.906  1.00  0.00    -0.001 C 
HETATM    8  C18 UNL     1      25.945   8.423  47.546  1.00  0.00     0.126 C 
HETATM    9  N3  UNL     1      27.396   8.173  47.671  1.00  0.00    -0.415 N 
HETATM   10  C19 UNL     1      28.288   7.649  46.656  1.00  0.00     0.114 C 
HETATM   11  C20 UNL     1      29.645   7.259  47.121  1.00  0.00     0.027 C 
HETATM   12  H17 UNL     1      28.032   8.369  48.531  1.00  0.00     0.153 HD
ENDROOT
BRANCH   4  13
HETATM   13  N2  UNL     1      25.695   3.515  49.947  1.00  0.00    -0.327 N 
HETATM   14  C6  UNL     1      26.008   2.615  50.970  1.00  0.00     0.245 C 
HETATM   15  O1  UNL     1      27.161   2.784  51.402  1.00  0.00    -0.268 OA
HETATM   16  H7  UNL     1      24.723   3.253  49.687  1.00  0.00     0.169 HD
BRANCH  14  17
HETATM   17  C7  UNL     1      25.273   1.563  51.598  1.00  0.00     0.071 C 
HETATM   18  C8  UNL     1      24.581   1.581  52.668  1.00  0.00    -0.006 C 
BRANCH  18  19
HETATM   19  C9  UNL     1      23.794   0.382  53.306  1.00  0.00     0.018 A 
HETATM   20  C10 UNL     1      24.259  -0.773  54.296  1.00  0.00     0.043 A 
HETATM   21  C11 UNL     1      23.187  -0.687  53.894  1.00  0.00    -0.057 A 
BRANCH  21  22
HETATM   22  C12 UNL     1      22.218  -0.590  53.516  1.00  0.00    -0.064 A 
HETATM   23  C13 UNL     1      21.166  -0.479  53.131  1.00  0.00     0.034 A 
HETATM   24  C14 UNL     1      21.509  -0.224  54.643  1.00  0.00     0.041 A 
ENDBRANCH  21  22
ENDBRANCH  18  19
ENDBRANCH  14  17
ENDBRANCH   4  13
BRANCH   1  25
HETATM   25  C1  UNL     1      31.136   5.875  48.306  1.00  0.00     0.272 C 
BRANCH  25  26
HETATM   26  N1  UNL     1      31.514   6.251  49.645  1.00  0.00     0.078 N 
HETATM   27  H1  UNL     1      31.188   7.247  49.823  1.00  0.00     0.312 HD
HETATM   28  H2  UNL     1      32.577   6.310  49.654  1.00  0.00     0.312 HD
ENDBRANCH  25  26
ENDBRANCH   1  25
TORSDOF 7
ENDMDL
MODEL 6
REMARK VINA RESULT:      -7.7      1.687      3.597
REMARK  7 active torsions:
REMARK  status: ('A' for Active; 'I' for Inactive)
REMARK    1  A    between atoms: N1_1  and  C1_2 
REMARK    2  A    between atoms: C1_2  and  C2_3 
REMARK    3  A    between atoms: C5_6  and  N2_7 
REMARK       I    between atoms: N2_7  and  C6_8 
REMARK    4  A    between atoms: C6_8  and  C7_10 
REMARK    5  A    between atoms: C8_11  and  C9_12 
REMARK    6  A    between atoms: C9_12  and  C14_17 
REMARK    7  A    between atoms: C11_14  and  C12_15 
ROOT
HETATM    1  C2  UNL     1      23.559  -0.500  54.163  1.00  0.00    -0.014 C 
HETATM    2  C3  UNL     1      23.478   0.337  53.101  1.00  0.00     0.060 C 
HETATM    3  C4  UNL     1      24.463   1.105  52.286  1.00  0.00     0.005 C 
HETATM    4  C5  UNL     1      24.302   1.897  51.244  1.00  0.00     0.014 C 
HETATM    5  C15 UNL     1      22.938   1.787  50.796  1.00  0.00     0.073 C 
HETATM    6  C16 UNL     1      21.996   2.211  49.911  1.00  0.00    -0.015 C 
HETATM    7  C17 UNL     1      20.850   1.330  50.410  1.00  0.00    -0.001 C 
HETATM    8  C18 UNL     1      20.376   0.363  51.276  1.00  0.00     0.126 C 
HETATM    9  N3  UNL     1      21.096  -0.356  52.347  1.00  0.00    -0.415 N 
HETATM   10  C19 UNL     1      21.135  -0.023  53.757  1.00  0.00     0.114 C 
HETATM   11  C20 UNL     1      22.135  -0.762  54.572  1.00  0.00     0.027 C 
HETATM   12  H17 UNL     1      21.685  -1.266  52.256  1.00  0.00     0.153 HD
ENDROOT
BRANCH   4  13
HETATM   13  N2  UNL     1      25.315   2.598  50.546  1.00  0.00    -0.327 N 
HETATM   14  C6  UNL     1      25.563   3.878  50.044  1.00  0.00     0.245 C 
HETATM   15  O1  UNL     1      24.623   4.658  50.274  1.00  0.00    -0.268 OA
HETATM   16  H7  UNL     1      26.167   2.066  50.278  1.00  0.00     0.169 HD
BRANCH  14  17
HETATM   17  C7  UNL     1      26.665   4.448  49.333  1.00  0.00     0.071 C 
HETATM   18  C8  UNL     1      26.859   5.652  48.965  1.00  0.00    -0.006 C 
BRANCH  18  19
HETATM   19  C9  UNL     1      28.099   6.212  48.183  1.00  0.00     0.018 A 
HETATM   20  C10 UNL     1      28.272   7.508  47.276  1.00  0.00     0.043 A 
HETATM   21  C11 UNL     1      29.123   6.762  47.472  1.00  0.00    -0.057 A 
BRANCH  21  22
HETATM   22  C12 UNL     1      29.882   6.071  47.662  1.00  0.00    -0.064 A 
HETATM   23  C13 UNL     1      30.711   5.342  47.883  1.00  0.00     0.034 A 
HETATM   24  C14 UNL     1      30.657   6.747  48.584  1.00  0.00     0.041 A 
ENDBRANCH  21  22
ENDBRANCH  18  19
ENDBRANCH  14  17
ENDBRANCH   4  13
BRANCH   1  25
HETATM   25  C1  UNL     1      24.337  -1.267  55.234  1.00  0.00     0.272 C 
BRANCH  25  26
HETATM   26  N1  UNL     1      25.734  -0.926  55.129  1.00  0.00     0.078 N 
HETATM   27  H1  UNL     1      26.203  -1.122  56.063  1.00  0.00     0.312 HD
HETATM   28  H2  UNL     1      25.779   0.132  55.021  1.00  0.00     0.312 HD
ENDBRANCH  25  26
ENDBRANCH   1  25
TORSDOF 7
ENDMDL
MODEL 7
REMARK VINA RESULT:      -7.7      1.733      2.142
REMARK  7 active torsions:
REMARK  status: ('A' for Active; 'I' for Inactive)
REMARK    1  A    between atoms: N1_1  and  C1_2 
REMARK    2  A    between atoms: C1_2  and  C2_3 
REMARK    3  A    between atoms: C5_6  and  N2_7 
REMARK       I    between atoms: N2_7  and  C6_8 
REMARK    4  A    between atoms: C6_8  and  C7_10 
REMARK    5  A    between atoms: C8_11  and  C9_12 
REMARK    6  A    between atoms: C9_12  and  C14_17 
REMARK    7  A    between atoms: C11_14  and  C12_15 
ROOT
HETATM    1  C2  UNL     1      21.729   1.527  52.637  1.00  0.00    -0.014 C 
HETATM    2  C3  UNL     1      23.042   1.545  52.304  1.00  0.00     0.060 C 
HETATM    3  C4  UNL     1      23.938   2.504  51.598  1.00  0.00     0.005 C 
HETATM    4  C5  UNL     1      25.227   2.453  51.323  1.00  0.00     0.014 C 
HETATM    5  C15 UNL     1      25.796   1.329  52.021  1.00  0.00     0.073 C 
HETATM    6  C16 UNL     1      26.913   0.594  52.268  1.00  0.00    -0.015 C 
HETATM    7  C17 UNL     1      26.277  -0.404  53.237  1.00  0.00    -0.001 C 
HETATM    8  C18 UNL     1      25.173  -0.856  53.934  1.00  0.00     0.126 C 
HETATM    9  N3  UNL     1      23.801  -0.308  53.953  1.00  0.00    -0.415 N 
HETATM   10  C19 UNL     1      22.673  -0.735  53.150  1.00  0.00     0.114 C 
HETATM   11  C20 UNL     1      21.478   0.148  53.185  1.00  0.00     0.027 C 
HETATM   12  H17 UNL     1      23.410   0.481  54.592  1.00  0.00     0.153 HD
ENDROOT
BRANCH   4  13
HETATM   13  N2  UNL     1      25.985   3.424  50.625  1.00  0.00    -0.327 N 
HETATM   14  C6  UNL     1      25.834   4.324  49.567  1.00  0.00     0.245 C 
HETATM   15  O1  UNL     1      24.692   4.282  49.079  1.00  0.00    -0.268 OA
HETATM   16  H7  UNL     1      26.971   3.566  50.922  1.00  0.00     0.169 HD
BRANCH  14  17
HETATM   17  C7  UNL     1      26.722   5.263  48.954  1.00  0.00     0.071 C 
HETATM   18  C8  UNL     1      27.922   5.107  48.558  1.00  0.00    -0.006 C 
BRANCH  18  19
HETATM   19  C9  UNL     1      28.845   6.187  47.889  1.00  0.00     0.018 A 
HETATM   20  C10 UNL     1      30.393   6.504  48.070  1.00  0.00     0.043 A 
HETATM   21  C11 UNL     1      29.710   7.097  47.361  1.00  0.00    -0.057 A 
BRANCH  21  22
HETATM   22  C12 UNL     1      29.072   7.622  46.724  1.00  0.00    -0.064 A 
HETATM   23  C13 UNL     1      28.379   8.204  46.054  1.00  0.00     0.034 A 
HETATM   24  C14 UNL     1      28.623   8.637  47.544  1.00  0.00     0.041 A 
ENDBRANCH  21  22
ENDBRANCH  18  19
ENDBRANCH  14  17
ENDBRANCH   4  13
BRANCH   1  25
HETATM   25  C1  UNL     1      20.328   2.140  52.679  1.00  0.00     0.272 C 
BRANCH  25  26
HETATM   26  N1  UNL     1      20.404   3.507  52.229  1.00  0.00     0.078 N 
HETATM   27  H1  UNL     1      19.959   3.573  51.266  1.00  0.00     0.312 HD
HETATM   28  H2  UNL     1      21.435   3.714  52.064  1.00  0.00     0.312 HD
ENDBRANCH  25  26
ENDBRANCH   1  25
TORSDOF 7
ENDMDL
MODEL 8
REMARK VINA RESULT:      -7.7      1.553      2.275
REMARK  7 active torsions:
REMARK  status: ('A' for Active; 'I' for Inactive)
REMARK    1  A    between atoms: N1_1  and  C1_2 
REMARK    2  A    between atoms: C1_2  and  C2_3 
REMARK    3  A    between atoms: C5_6  and  N2_7 
REMARK       I    between atoms: N2_7  and  C6_8 
REMARK    4  A    between atoms: C6_8  and  C7_10 
REMARK    5  A    between atoms: C8_11  and  C9_12 
REMARK    6  A    between atoms: C9_12  and  C14_17 
REMARK    7  A    between atoms: C11_14  and  C12_15 
ROOT
HETATM    1  C2  UNL     1      18.980   0.421  52.022  1.00  0.00    -0.014 C 
HETATM    2  C3  UNL     1      20.331   0.460  52.118  1.00  0.00     0.060 C 
HETATM    3  C4  UNL     1      21.412   1.259  51.472  1.00  0.00     0.005 C 
HETATM    4  C5  UNL     1      22.721   1.247  51.634  1.00  0.00     0.014 C 
HETATM    5  C15 UNL     1      23.030   0.417  52.770  1.00  0.00     0.073 C 
HETATM    6  C16 UNL     1      24.005  -0.120  53.552  1.00  0.00    -0.015 C 
HETATM    7  C17 UNL     1      23.087  -0.859  54.527  1.00  0.00    -0.001 C 
HETATM    8  C18 UNL     1      21.815  -1.193  54.950  1.00  0.00     0.126 C 
HETATM    9  N3  UNL     1      20.512  -0.784  54.387  1.00  0.00    -0.415 N 
HETATM   10  C19 UNL     1      19.697  -1.515  53.438  1.00  0.00     0.114 C 
HETATM   11  C20 UNL     1      18.558  -0.766  52.844  1.00  0.00     0.027 C 
HETATM   12  H17 UNL     1      19.943   0.115  54.614  1.00  0.00     0.153 HD
ENDROOT
BRANCH   4  13
HETATM   13  N2  UNL     1      23.668   2.047  50.951  1.00  0.00    -0.327 N 
HETATM   14  C6  UNL     1      24.322   3.272  51.100  1.00  0.00     0.245 C 
HETATM   15  O1  UNL     1      23.992   3.851  52.150  1.00  0.00    -0.268 OA
HETATM   16  H7  UNL     1      24.032   1.690  50.045  1.00  0.00     0.169 HD
BRANCH  14  17
HETATM   17  C7  UNL     1      25.276   3.970  50.296  1.00  0.00     0.071 C 
HETATM   18  C8  UNL     1      25.265   5.176  49.885  1.00  0.00    -0.006 C 
BRANCH  18  19
HETATM   19  C9  UNL     1      26.351   5.883  48.999  1.00  0.00     0.018 A 
HETATM   20  C10 UNL     1      26.325   7.259  48.202  1.00  0.00     0.043 A 
HETATM   21  C11 UNL     1      27.234   6.558  48.211  1.00  0.00    -0.057 A 
BRANCH  21  22
HETATM   22  C12 UNL     1      28.049   5.906  48.234  1.00  0.00    -0.064 A 
HETATM   23  C13 UNL     1      28.943   5.221  48.252  1.00  0.00     0.034 A 
HETATM   24  C14 UNL     1      29.100   6.754  47.947  1.00  0.00     0.041 A 
ENDBRANCH  21  22
ENDBRANCH  18  19
ENDBRANCH  14  17
ENDBRANCH   4  13
BRANCH   1  25
HETATM   25  C1  UNL     1      17.643   0.896  51.450  1.00  0.00     0.272 C 
BRANCH  25  26
HETATM   26  N1  UNL     1      17.585   2.333  51.535  1.00  0.00     0.078 N 
HETATM   27  H1  UNL     1      17.863   2.741  50.593  1.00  0.00     0.312 HD
HETATM   28  H2  UNL     1      18.363   2.629  52.198  1.00  0.00     0.312 HD
ENDBRANCH  25  26
ENDBRANCH   1  25
TORSDOF 7
ENDMDL
MODEL 9
REMARK VINA RESULT:      -7.6      3.201      9.825
REMARK  7 active torsions:
REMARK  status: ('A' for Active; 'I' for Inactive)
REMARK    1  A    between atoms: N1_1  and  C1_2 
REMARK    2  A    between atoms: C1_2  and  C2_3 
REMARK    3  A    between atoms: C5_6  and  N2_7 
REMARK       I    between atoms: N2_7  and  C6_8 
REMARK    4  A    between atoms: C6_8  and  C7_10 
REMARK    5  A    between atoms: C8_11  and  C9_12 
REMARK    6  A    between atoms: C9_12  and  C14_17 
REMARK    7  A    between atoms: C11_14  and  C12_15 
ROOT
HETATM    1  C2  UNL     1      26.338   0.755  53.736  1.00  0.00    -0.014 C 
HETATM    2  C3  UNL     1      25.195   0.879  53.019  1.00  0.00     0.060 C 
HETATM    3  C4  UNL     1      23.839   0.263  53.082  1.00  0.00     0.005 C 
HETATM    4  C5  UNL     1      22.761   0.452  52.346  1.00  0.00     0.014 C 
HETATM    5  C15 UNL     1      22.990   1.585  51.487  1.00  0.00     0.073 C 
HETATM    6  C16 UNL     1      22.494   2.381  50.502  1.00  0.00    -0.015 C 
HETATM    7  C17 UNL     1      23.689   3.329  50.399  1.00  0.00    -0.001 C 
HETATM    8  C18 UNL     1      24.942   3.724  50.828  1.00  0.00     0.126 C 
HETATM    9  N3  UNL     1      25.786   3.138  51.890  1.00  0.00    -0.415 N 
HETATM   10  C19 UNL     1      26.849   2.166  51.731  1.00  0.00     0.114 C 
HETATM   11  C20 UNL     1      27.367   1.557  52.985  1.00  0.00     0.027 C 
HETATM   12  H17 UNL     1      25.766   3.363  52.954  1.00  0.00     0.153 HD
ENDROOT
BRANCH   4  13
HETATM   13  N2  UNL     1      21.514  -0.204  52.484  1.00  0.00    -0.327 N 
HETATM   14  C6  UNL     1      20.450  -0.276  53.387  1.00  0.00     0.245 C 
HETATM   15  O1  UNL     1      20.628   0.457  54.375  1.00  0.00    -0.268 OA
HETATM   16  H7  UNL     1      21.232  -0.861  51.729  1.00  0.00     0.169 HD
BRANCH  14  17
HETATM   17  C7  UNL     1      19.225  -1.013  53.391  1.00  0.00     0.071 C 
HETATM   18  C8  UNL     1      18.271  -1.009  52.547  1.00  0.00    -0.006 C 
BRANCH  18  19
HETATM   19  C9  UNL     1      16.946  -1.848  52.614  1.00  0.00     0.018 A 
HETATM   20  C10 UNL     1      15.445  -1.475  52.243  1.00  0.00     0.043 A 
HETATM   21  C11 UNL     1      15.753  -2.505  52.647  1.00  0.00    -0.057 A 
BRANCH  21  22
HETATM   22  C12 UNL     1      16.055  -3.434  53.016  1.00  0.00    -0.064 A 
HETATM   23  C13 UNL     1      16.364  -4.446  53.400  1.00  0.00     0.034 A 
HETATM   24  C14 UNL     1      15.230  -4.297  52.322  1.00  0.00     0.041 A 
ENDBRANCH  21  22
ENDBRANCH  18  19
ENDBRANCH  14  17
ENDBRANCH   4  13
BRANCH   1  25
HETATM   25  C1  UNL     1      27.174   0.161  54.871  1.00  0.00     0.272 C 
BRANCH  25  26
HETATM   26  N1  UNL     1      28.416   0.887  54.964  1.00  0.00     0.078 N 
HETATM   27  H1  UNL     1      28.972   0.725  54.072  1.00  0.00     0.312 HD
HETATM   28  H2  UNL     1      28.987   0.413  55.727  1.00  0.00     0.312 HD
ENDBRANCH  25  26
ENDBRANCH   1  25
TORSDOF 7
ENDMDL
