MODEL 1
REMARK VINA RESULT:      -8.5      0.000      0.000
REMARK  2 active torsions:
REMARK  status: ('A' for Active; 'I' for Inactive)
REMARK    1  A    between atoms: C2_2  and  C3_4 
REMARK    2  A    between atoms: C17_20  and  C18_21 
ROOT
HETATM    1  C3  UNL     1      26.552   0.489  53.015  1.00  0.00     0.004 C 
HETATM    2  C4  UNL     1      25.436  -0.054  53.290  1.00  0.00    -0.052 C 
HETATM    3  C5  UNL     1      25.169  -1.271  54.043  1.00  0.00     0.049 C 
HETATM    4  C6  UNL     1      24.106   0.255  52.904  1.00  0.00     0.003 C 
HETATM    5  C7  UNL     1      22.822   0.202  52.796  1.00  0.00    -0.025 C 
HETATM    6  C8  UNL     1      21.500   0.603  52.340  1.00  0.00     0.035 C 
HETATM    7  C9  UNL     1      21.396   1.771  51.430  1.00  0.00     0.007 C 
HETATM    8  C10 UNL     1      19.902   1.891  51.057  1.00  0.00     0.014 C 
HETATM    9  C11 UNL     1      21.662   3.022  52.189  1.00  0.00    -0.024 C 
HETATM   10  C12 UNL     1      22.505   4.023  52.007  1.00  0.00    -0.005 C 
HETATM   11  C13 UNL     1      23.435   4.022  50.842  1.00  0.00     0.196 C 
HETATM   12  O2  UNL     1      24.785   4.052  51.300  1.00  0.00    -0.369 OA
HETATM   13  C14 UNL     1      25.763   3.290  50.702  1.00  0.00     0.117 A 
HETATM   14  C15 UNL     1      26.554   2.824  49.553  1.00  0.00     0.055 C 
HETATM   15  C16 UNL     1      26.227   2.629  51.744  1.00  0.00    -0.025 A 
HETATM   16  O3  UNL     1      25.205   3.489  52.086  1.00  0.00     0.000 OA
HETATM   17  C17 UNL     1      27.122   1.675  52.357  1.00  0.00     0.089 C 
HETATM   18  H22 UNL     1      25.160   3.705  53.104  1.00  0.00     0.000 HD
ENDROOT
BRANCH   1  19
HETATM   19  C2  UNL     1      27.694  -0.290  53.564  1.00  0.00     0.153 C 
HETATM   20  C1  UNL     1      28.868  -1.085  53.312  1.00  0.00     0.096 C 
HETATM   21  O1  UNL     1      27.701  -0.301  54.855  1.00  0.00    -0.293 OA
ENDBRANCH   1  19
BRANCH  17  22
HETATM   22  C18 UNL     1      27.962   2.358  53.429  1.00  0.00     0.404 C 
HETATM   23  O4  UNL     1      28.917   2.672  54.115  1.00  0.00    -0.429 OA
ENDBRANCH  17  22
TORSDOF 2
ENDMDL
MODEL 2
REMARK VINA RESULT:      -8.4      1.048      1.277
REMARK  2 active torsions:
REMARK  status: ('A' for Active; 'I' for Inactive)
REMARK    1  A    between atoms: C2_2  and  C3_4 
REMARK    2  A    between atoms: C17_20  and  C18_21 
ROOT
HETATM    1  C3  UNL     1      25.432   0.536  52.667  1.00  0.00     0.004 C 
HETATM    2  C4  UNL     1      24.210   0.302  52.929  1.00  0.00    -0.052 C 
HETATM    3  C5  UNL     1      23.618  -0.852  53.589  1.00  0.00     0.049 C 
HETATM    4  C6  UNL     1      23.017   0.999  52.607  1.00  0.00     0.003 C 
HETATM    5  C7  UNL     1      21.769   1.314  52.532  1.00  0.00    -0.025 C 
HETATM    6  C8  UNL     1      20.608   2.103  52.147  1.00  0.00     0.035 C 
HETATM    7  C9  UNL     1      20.830   3.327  51.337  1.00  0.00     0.007 C 
HETATM    8  C10 UNL     1      19.426   3.888  51.018  1.00  0.00     0.014 C 
HETATM    9  C11 UNL     1      21.437   4.386  52.187  1.00  0.00    -0.024 C 
HETATM   10  C12 UNL     1      22.525   5.126  52.062  1.00  0.00    -0.005 C 
HETATM   11  C13 UNL     1      23.412   4.966  50.874  1.00  0.00     0.196 C 
HETATM   12  O2  UNL     1      24.719   4.581  51.295  1.00  0.00    -0.369 OA
HETATM   13  C14 UNL     1      25.443   3.631  50.609  1.00  0.00     0.117 A 
HETATM   14  C15 UNL     1      26.068   3.064  49.405  1.00  0.00     0.055 C 
HETATM   15  C16 UNL     1      25.709   2.782  51.581  1.00  0.00    -0.025 A 
HETATM   16  O3  UNL     1      24.970   3.860  52.021  1.00  0.00     0.000 OA
HETATM   17  C17 UNL     1      26.306   1.568  52.090  1.00  0.00     0.089 C 
HETATM   18  H22 UNL     1      24.991   3.992  53.053  1.00  0.00     0.000 HD
ENDROOT
BRANCH   1  19
HETATM   19  C2  UNL     1      26.314  -0.573  53.119  1.00  0.00     0.153 C 
HETATM   20  C1  UNL     1      27.141  -1.699  52.771  1.00  0.00     0.096 C 
HETATM   21  O1  UNL     1      26.447  -0.598  54.403  1.00  0.00    -0.293 OA
ENDBRANCH   1  19
BRANCH  17  22
HETATM   22  C18 UNL     1      27.309   1.898  53.189  1.00  0.00     0.404 C 
HETATM   23  O4  UNL     1      27.866   2.481  54.100  1.00  0.00    -0.429 OA
ENDBRANCH  17  22
TORSDOF 2
ENDMDL
MODEL 3
REMARK VINA RESULT:      -8.2      2.129      5.782
REMARK  2 active torsions:
REMARK  status: ('A' for Active; 'I' for Inactive)
REMARK    1  A    between atoms: C2_2  and  C3_4 
REMARK    2  A    between atoms: C17_20  and  C18_21 
ROOT
HETATM    1  C3  UNL     1      21.504   0.903  52.165  1.00  0.00     0.004 C 
HETATM    2  C4  UNL     1      22.019   0.067  52.972  1.00  0.00    -0.052 C 
HETATM    3  C5  UNL     1      21.373  -0.996  53.727  1.00  0.00     0.049 C 
HETATM    4  C6  UNL     1      23.334  -0.076  53.486  1.00  0.00     0.003 C 
HETATM    5  C7  UNL     1      24.345  -0.529  54.144  1.00  0.00    -0.025 C 
HETATM    6  C8  UNL     1      25.723  -0.585  54.612  1.00  0.00     0.035 C 
HETATM    7  C9  UNL     1      26.670   0.449  54.126  1.00  0.00     0.007 C 
HETATM    8  C10 UNL     1      28.005   0.181  54.856  1.00  0.00     0.014 C 
HETATM    9  C11 UNL     1      27.002   0.194  52.700  1.00  0.00    -0.024 C 
HETATM   10  C12 UNL     1      26.943   0.945  51.614  1.00  0.00    -0.005 C 
HETATM   11  C13 UNL     1      26.464   2.354  51.698  1.00  0.00     0.196 C 
HETATM   12  O2  UNL     1      25.309   2.523  50.878  1.00  0.00    -0.369 OA
HETATM   13  C14 UNL     1      24.234   3.273  51.299  1.00  0.00     0.117 A 
HETATM   14  C15 UNL     1      23.597   4.499  51.803  1.00  0.00     0.055 C 
HETATM   15  C16 UNL     1      23.260   2.395  51.168  1.00  0.00    -0.025 A 
HETATM   16  O3  UNL     1      24.482   1.874  50.799  1.00  0.00     0.000 OA
HETATM   17  C17 UNL     1      21.872   2.002  51.259  1.00  0.00     0.089 C 
HETATM   18  H22 UNL     1      24.415   1.015  50.215  1.00  0.00     0.000 HD
ENDROOT
BRANCH   1  19
HETATM   19  C2  UNL     1      20.035   0.712  52.036  1.00  0.00     0.153 C 
HETATM   20  C1  UNL     1      18.941  -0.118  51.603  1.00  0.00     0.096 C 
HETATM   21  O1  UNL     1      19.370   1.712  52.512  1.00  0.00    -0.293 OA
ENDBRANCH   1  19
BRANCH  17  22
HETATM   22  C18 UNL     1      21.357   1.577  49.890  1.00  0.00     0.404 C 
HETATM   23  O4  UNL     1      21.301   1.048  48.795  1.00  0.00    -0.429 OA
ENDBRANCH  17  22
TORSDOF 2
ENDMDL
MODEL 4
REMARK VINA RESULT:      -8.2      1.984      3.929
REMARK  2 active torsions:
REMARK  status: ('A' for Active; 'I' for Inactive)
REMARK    1  A    between atoms: C2_2  and  C3_4 
REMARK    2  A    between atoms: C17_20  and  C18_21 
ROOT
HETATM    1  C3  UNL     1      26.728   0.273  53.537  1.00  0.00     0.004 C 
HETATM    2  C4  UNL     1      26.646   1.472  53.121  1.00  0.00    -0.052 C 
HETATM    3  C5  UNL     1      27.704   2.455  52.942  1.00  0.00     0.049 C 
HETATM    4  C6  UNL     1      25.535   2.289  52.782  1.00  0.00     0.003 C 
HETATM    5  C7  UNL     1      24.837   3.301  52.395  1.00  0.00    -0.025 C 
HETATM    6  C8  UNL     1      23.633   4.053  52.076  1.00  0.00     0.035 C 
HETATM    7  C9  UNL     1      22.320   3.384  52.259  1.00  0.00     0.007 C 
HETATM    8  C10 UNL     1      21.250   4.448  51.930  1.00  0.00     0.014 C 
HETATM    9  C11 UNL     1      22.126   2.362  51.197  1.00  0.00    -0.024 C 
HETATM   10  C12 UNL     1      21.836   1.073  51.231  1.00  0.00    -0.005 C 
HETATM   11  C13 UNL     1      21.638   0.380  52.536  1.00  0.00     0.196 C 
HETATM   12  O2  UNL     1      22.590  -0.672  52.675  1.00  0.00    -0.369 OA
HETATM   13  C14 UNL     1      23.222  -0.915  53.874  1.00  0.00     0.117 A 
HETATM   14  C15 UNL     1      23.250  -1.202  55.316  1.00  0.00     0.055 C 
HETATM   15  C16 UNL     1      24.484  -0.851  53.500  1.00  0.00    -0.025 A 
HETATM   16  O3  UNL     1      23.619  -0.636  52.448  1.00  0.00     0.000 OA
HETATM   17  C17 UNL     1      25.902  -0.921  53.769  1.00  0.00     0.089 C 
HETATM   18  H22 UNL     1      24.058  -0.754  51.511  1.00  0.00     0.000 HD
ENDROOT
BRANCH   1  19
HETATM   19  C2  UNL     1      28.127  -0.097  53.877  1.00  0.00     0.153 C 
HETATM   20  C1  UNL     1      29.451  -0.433  53.421  1.00  0.00     0.096 C 
HETATM   21  O1  UNL     1      28.316  -0.167  55.153  1.00  0.00    -0.293 OA
ENDBRANCH   1  19
BRANCH  17  22
HETATM   22  C18 UNL     1      26.543  -2.017  52.926  1.00  0.00     0.404 C 
HETATM   23  O4  UNL     1      26.764  -2.774  51.999  1.00  0.00    -0.429 OA
ENDBRANCH  17  22
TORSDOF 2
ENDMDL
MODEL 5
REMARK VINA RESULT:      -7.8      2.681      4.762
REMARK  2 active torsions:
REMARK  status: ('A' for Active; 'I' for Inactive)
REMARK    1  A    between atoms: C2_2  and  C3_4 
REMARK    2  A    between atoms: C17_20  and  C18_21 
ROOT
HETATM    1  C3  UNL     1      24.997   2.947  50.274  1.00  0.00     0.004 C 
HETATM    2  C4  UNL     1      25.380   2.300  51.299  1.00  0.00    -0.052 C 
HETATM    3  C5  UNL     1      26.703   2.233  51.901  1.00  0.00     0.049 C 
HETATM    4  C6  UNL     1      24.714   1.373  52.143  1.00  0.00     0.003 C 
HETATM    5  C7  UNL     1      24.484   0.537  53.097  1.00  0.00    -0.025 C 
HETATM    6  C8  UNL     1      23.712  -0.402  53.897  1.00  0.00     0.035 C 
HETATM    7  C9  UNL     1      22.311  -0.680  53.493  1.00  0.00     0.007 C 
HETATM    8  C10 UNL     1      21.794  -1.763  54.465  1.00  0.00     0.014 C 
HETATM    9  C11 UNL     1      21.457   0.497  53.805  1.00  0.00    -0.024 C 
HETATM   10  C12 UNL     1      20.631   1.227  53.077  1.00  0.00    -0.005 C 
HETATM   11  C13 UNL     1      20.422   0.915  51.635  1.00  0.00     0.196 C 
HETATM   12  O2  UNL     1      20.801   2.035  50.837  1.00  0.00    -0.369 OA
HETATM   13  C14 UNL     1      21.493   1.873  49.657  1.00  0.00     0.117 A 
HETATM   14  C15 UNL     1      21.692   1.318  48.310  1.00  0.00     0.055 C 
HETATM   15  C16 UNL     1      22.537   2.646  49.880  1.00  0.00    -0.025 A 
HETATM   16  O3  UNL     1      21.662   2.634  50.946  1.00  0.00     0.000 OA
HETATM   17  C17 UNL     1      23.791   3.245  49.486  1.00  0.00     0.089 C 
HETATM   18  H22 UNL     1      21.792   3.428  51.606  1.00  0.00     0.000 HD
ENDROOT
BRANCH   1  19
HETATM   19  C2  UNL     1      26.115   3.706  49.653  1.00  0.00     0.153 C 
HETATM   20  C1  UNL     1      26.720   4.982  49.368  1.00  0.00     0.096 C 
HETATM   21  O1  UNL     1      26.983   2.929  49.096  1.00  0.00    -0.293 OA
ENDBRANCH   1  19
BRANCH  17  22
HETATM   22  C18 UNL     1      23.674   4.764  49.498  1.00  0.00     0.404 C 
HETATM   23  O4  UNL     1      23.201   5.880  49.604  1.00  0.00    -0.429 OA
ENDBRANCH  17  22
TORSDOF 2
ENDMDL
MODEL 6
REMARK VINA RESULT:      -7.7      2.468      6.152
REMARK  2 active torsions:
REMARK  status: ('A' for Active; 'I' for Inactive)
REMARK    1  A    between atoms: C2_2  and  C3_4 
REMARK    2  A    between atoms: C17_20  and  C18_21 
ROOT
HETATM    1  C3  UNL     1      23.870   3.866  49.968  1.00  0.00     0.004 C 
HETATM    2  C4  UNL     1      25.089   3.569  50.167  1.00  0.00    -0.052 C 
HETATM    3  C5  UNL     1      26.288   4.264  49.721  1.00  0.00     0.049 C 
HETATM    4  C6  UNL     1      25.709   2.452  50.786  1.00  0.00     0.003 C 
HETATM    5  C7  UNL     1      26.613   1.656  51.244  1.00  0.00    -0.025 C 
HETATM    6  C8  UNL     1      27.146   0.469  51.896  1.00  0.00     0.035 C 
HETATM    7  C9  UNL     1      26.186  -0.550  52.389  1.00  0.00     0.007 C 
HETATM    8  C10 UNL     1      27.043  -1.712  52.941  1.00  0.00     0.014 C 
HETATM    9  C11 UNL     1      25.486  -0.037  53.595  1.00  0.00    -0.024 C 
HETATM   10  C12 UNL     1      24.208   0.092  53.908  1.00  0.00    -0.005 C 
HETATM   11  C13 UNL     1      23.152  -0.324  52.942  1.00  0.00     0.196 C 
HETATM   12  O2  UNL     1      22.334   0.796  52.607  1.00  0.00    -0.369 OA
HETATM   13  C14 UNL     1      21.907   1.012  51.316  1.00  0.00     0.117 A 
HETATM   14  C15 UNL     1      21.241   0.624  50.065  1.00  0.00     0.055 C 
HETATM   15  C16 UNL     1      22.344   2.240  51.119  1.00  0.00    -0.025 A 
HETATM   16  O3  UNL     1      22.653   1.774  52.380  1.00  0.00     0.000 OA
HETATM   17  C17 UNL     1      22.509   3.423  50.307  1.00  0.00     0.089 C 
HETATM   18  H22 UNL     1      22.900   2.525  53.057  1.00  0.00     0.000 HD
ENDROOT
BRANCH   1  19
HETATM   19  C2  UNL     1      23.730   5.101  49.151  1.00  0.00     0.153 C 
HETATM   20  C1  UNL     1      23.892   6.528  49.050  1.00  0.00     0.096 C 
HETATM   21  O1  UNL     1      23.248   4.857  47.978  1.00  0.00    -0.293 OA
ENDBRANCH   1  19
BRANCH  17  22
HETATM   22  C18 UNL     1      21.859   4.622  50.986  1.00  0.00     0.404 C 
HETATM   23  O4  UNL     1      21.537   5.423  51.844  1.00  0.00    -0.429 OA
ENDBRANCH  17  22
TORSDOF 2
ENDMDL
MODEL 7
REMARK VINA RESULT:      -7.7      3.291      6.360
REMARK  2 active torsions:
REMARK  status: ('A' for Active; 'I' for Inactive)
REMARK    1  A    between atoms: C2_2  and  C3_4 
REMARK    2  A    between atoms: C17_20  and  C18_21 
ROOT
HETATM    1  C3  UNL     1      26.157   6.434  48.988  1.00  0.00     0.004 C 
HETATM    2  C4  UNL     1      26.706   5.297  49.133  1.00  0.00    -0.052 C 
HETATM    3  C5  UNL     1      27.907   4.770  48.500  1.00  0.00     0.049 C 
HETATM    4  C6  UNL     1      26.321   4.139  49.858  1.00  0.00     0.003 C 
HETATM    5  C7  UNL     1      26.334   2.950  50.356  1.00  0.00    -0.025 C 
HETATM    6  C8  UNL     1      25.847   1.818  51.131  1.00  0.00     0.035 C 
HETATM    7  C9  UNL     1      24.550   1.959  51.838  1.00  0.00     0.007 C 
HETATM    8  C10 UNL     1      24.265   0.585  52.485  1.00  0.00     0.014 C 
HETATM    9  C11 UNL     1      24.713   2.862  53.008  1.00  0.00    -0.024 C 
HETATM   10  C12 UNL     1      24.080   3.956  53.395  1.00  0.00    -0.005 C 
HETATM   11  C13 UNL     1      22.955   4.502  52.584  1.00  0.00     0.196 C 
HETATM   12  O2  UNL     1      23.267   5.826  52.155  1.00  0.00    -0.369 OA
HETATM   13  C14 UNL     1      22.964   6.258  50.883  1.00  0.00     0.117 A 
HETATM   14  C15 UNL     1      22.053   6.505  49.756  1.00  0.00     0.055 C 
HETATM   15  C16 UNL     1      24.150   6.665  50.477  1.00  0.00    -0.025 A 
HETATM   16  O3  UNL     1      24.182   6.172  51.764  1.00  0.00     0.000 OA
HETATM   17  C17 UNL     1      25.035   7.241  49.491  1.00  0.00     0.089 C 
HETATM   18  H22 UNL     1      25.024   6.460  52.305  1.00  0.00     0.000 HD
ENDROOT
BRANCH   1  19
HETATM   19  C2  UNL     1      26.895   7.281  48.013  1.00  0.00     0.153 C 
HETATM   20  C1  UNL     1      28.127   7.925  47.636  1.00  0.00     0.096 C 
HETATM   21  O1  UNL     1      26.152   7.643  47.021  1.00  0.00    -0.293 OA
ENDBRANCH   1  19
BRANCH  17  22
HETATM   22  C18 UNL     1      25.674   8.512  50.037  1.00  0.00     0.404 C 
HETATM   23  O4  UNL     1      26.034   9.671  50.129  1.00  0.00    -0.429 OA
ENDBRANCH  17  22
TORSDOF 2
ENDMDL
MODEL 8
REMARK VINA RESULT:      -7.2      2.528      6.399
REMARK  2 active torsions:
REMARK  status: ('A' for Active; 'I' for Inactive)
REMARK    1  A    between atoms: C2_2  and  C3_4 
REMARK    2  A    between atoms: C17_20  and  C18_21 
ROOT
HETATM    1  C3  UNL     1      19.994   1.266  51.586  1.00  0.00     0.004 C 
HETATM    2  C4  UNL     1      20.031   0.300  52.411  1.00  0.00    -0.052 C 
HETATM    3  C5  UNL     1      18.962  -0.601  52.818  1.00  0.00     0.049 C 
HETATM    4  C6  UNL     1      21.052  -0.180  53.272  1.00  0.00     0.003 C 
HETATM    5  C7  UNL     1      21.679  -0.891  54.146  1.00  0.00    -0.025 C 
HETATM    6  C8  UNL     1      22.791  -1.299  54.991  1.00  0.00     0.035 C 
HETATM    7  C9  UNL     1      24.047  -0.511  54.926  1.00  0.00     0.007 C 
HETATM    8  C10 UNL     1      24.991  -1.124  55.983  1.00  0.00     0.014 C 
HETATM    9  C11 UNL     1      24.745  -0.786  53.642  1.00  0.00    -0.024 C 
HETATM   10  C12 UNL     1      25.198  -0.004  52.679  1.00  0.00    -0.005 C 
HETATM   11  C13 UNL     1      25.040   1.476  52.774  1.00  0.00     0.196 C 
HETATM   12  O2  UNL     1      24.269   1.953  51.672  1.00  0.00    -0.369 OA
HETATM   13  C14 UNL     1      23.310   2.927  51.837  1.00  0.00     0.117 A 
HETATM   14  C15 UNL     1      22.835   4.251  52.263  1.00  0.00     0.055 C 
HETATM   15  C16 UNL     1      22.258   2.319  51.327  1.00  0.00    -0.025 A 
HETATM   16  O3  UNL     1      23.387   1.529  51.280  1.00  0.00     0.000 OA
HETATM   17  C17 UNL     1      20.861   2.274  50.958  1.00  0.00     0.089 C 
HETATM   18  H22 UNL     1      23.318   0.735  50.611  1.00  0.00     0.000 HD
ENDROOT
BRANCH   1  19
HETATM   19  C2  UNL     1      18.636   1.445  51.008  1.00  0.00     0.153 C 
HETATM   20  C1  UNL     1      17.624   0.984  50.093  1.00  0.00     0.096 C 
HETATM   21  O1  UNL     1      18.022   2.463  51.512  1.00  0.00    -0.293 OA
ENDBRANCH   1  19
BRANCH  17  22
HETATM   22  C18 UNL     1      20.721   2.040  49.459  1.00  0.00     0.404 C 
HETATM   23  O4  UNL     1      20.979   1.700  48.319  1.00  0.00    -0.429 OA
ENDBRANCH  17  22
TORSDOF 2
ENDMDL
MODEL 9
REMARK VINA RESULT:      -7.2      5.114      7.761
REMARK  2 active torsions:
REMARK  status: ('A' for Active; 'I' for Inactive)
REMARK    1  A    between atoms: C2_2  and  C3_4 
REMARK    2  A    between atoms: C17_20  and  C18_21 
ROOT
HETATM    1  C3  UNL     1      28.330   7.419  47.418  1.00  0.00     0.004 C 
HETATM    2  C4  UNL     1      28.500   6.283  47.963  1.00  0.00    -0.052 C 
HETATM    3  C5  UNL     1      29.725   5.511  48.113  1.00  0.00     0.049 C 
HETATM    4  C6  UNL     1      27.589   5.347  48.518  1.00  0.00     0.003 C 
HETATM    5  C7  UNL     1      27.121   4.291  49.090  1.00  0.00    -0.025 C 
HETATM    6  C8  UNL     1      26.104   3.401  49.630  1.00  0.00     0.035 C 
HETATM    7  C9  UNL     1      24.684   3.822  49.540  1.00  0.00     0.007 C 
HETATM    8  C10 UNL     1      23.854   2.649  50.107  1.00  0.00     0.014 C 
HETATM    9  C11 UNL     1      24.426   4.923  50.506  1.00  0.00    -0.024 C 
HETATM   10  C12 UNL     1      23.915   6.134  50.375  1.00  0.00    -0.005 C 
HETATM   11  C13 UNL     1      23.466   6.621  49.039  1.00  0.00     0.196 C 
HETATM   12  O2  UNL     1      24.202   7.787  48.676  1.00  0.00    -0.369 OA
HETATM   13  C14 UNL     1      24.655   7.979  47.390  1.00  0.00     0.117 A 
HETATM   14  C15 UNL     1      24.485   8.088  45.934  1.00  0.00     0.055 C 
HETATM   15  C16 UNL     1      25.942   8.165  47.612  1.00  0.00    -0.025 A 
HETATM   16  O3  UNL     1      25.240   7.945  48.778  1.00  0.00     0.000 OA
HETATM   17  C17 UNL     1      27.290   8.428  47.166  1.00  0.00     0.089 C 
HETATM   18  H22 UNL     1      25.746   8.245  49.637  1.00  0.00     0.000 HD
ENDROOT
BRANCH   1  19
HETATM   19  C2  UNL     1      29.601   7.964  46.873  1.00  0.00     0.153 C 
HETATM   20  C1  UNL     1      30.891   8.553  47.127  1.00  0.00     0.096 C 
HETATM   21  O1  UNL     1      29.637   7.920  45.583  1.00  0.00    -0.293 OA
ENDBRANCH   1  19
BRANCH  17  22
HETATM   22  C18 UNL     1      27.815   9.707  47.806  1.00  0.00     0.404 C 
HETATM   23  O4  UNL     1      27.960  10.887  48.067  1.00  0.00    -0.429 OA
ENDBRANCH  17  22
TORSDOF 2
ENDMDL
