MODEL 1
REMARK VINA RESULT:      -7.0      0.000      0.000
REMARK  8 active torsions:
REMARK  status: ('A' for Active; 'I' for Inactive)
REMARK    1  A    between atoms: N1_2  and  C2_3 
REMARK    2  A    between atoms: C2_3  and  C3_4 
REMARK    3  A    between atoms: C3_4  and  C4_5 
REMARK    4  A    between atoms: C4_5  and  C5_6 
REMARK    5  A    between atoms: C5_6  and  C6_8 
REMARK    6  A    between atoms: C9_11  and  O2_12 
REMARK    7  A    between atoms: O2_12  and  C10_13 
REMARK    8  A    between atoms: C10_13  and  C11_14 
ROOT
HETATM    1  C6  UNL     1      24.971   1.193  52.712  1.00  0.00     0.010 A 
HETATM    2  C7  UNL     1      24.125   2.281  52.901  1.00  0.00     0.018 A 
HETATM    3  C8  UNL     1      24.157   3.460  52.198  1.00  0.00     0.037 A 
HETATM    4  C9  UNL     1      25.130   3.584  51.195  1.00  0.00     0.069 A 
HETATM    5  C17 UNL     1      26.007   2.562  50.937  1.00  0.00     0.037 A 
HETATM    6  C18 UNL     1      25.889   1.437  51.693  1.00  0.00     0.018 A 
ENDROOT
BRANCH   1   7
HETATM    7  C5  UNL     1      24.910  -0.049  53.484  1.00  0.00     0.159 C 
HETATM    8  O1  UNL     1      23.700  -0.385  53.739  1.00  0.00    -0.292 OA
BRANCH   7   9
HETATM    9  C4  UNL     1      26.247  -0.616  53.781  1.00  0.00     0.085 C 
BRANCH   9  10
HETATM   10  C3  UNL     1      26.870   0.159  54.907  1.00  0.00     0.038 C 
BRANCH  10  11
HETATM   11  C2  UNL     1      28.342   0.150  54.772  1.00  0.00     0.269 C 
BRANCH  11  12
HETATM   12  N1  UNL     1      28.956   1.454  54.847  1.00  0.00     0.079 N 
HETATM   13  C1  UNL     1      28.755   2.296  53.718  1.00  0.00     0.306 C 
HETATM   14  H4  UNL     1      30.002   1.282  54.924  1.00  0.00     0.315 HD
ENDBRANCH  11  12
ENDBRANCH  10  11
ENDBRANCH   9  10
ENDBRANCH   7   9
ENDBRANCH   1   7
BRANCH   4  15
HETATM   15  O2  UNL     1      25.073   4.813  50.547  1.00  0.00    -0.347 OA
BRANCH  15  16
HETATM   16  C10 UNL     1      25.011   4.960  49.153  1.00  0.00     0.214 C 
BRANCH  16  17
HETATM   17  C11 UNL     1      26.341   5.488  48.707  1.00  0.00    -0.034 A 
HETATM   18  C12 UNL     1      27.537   4.815  48.721  1.00  0.00     0.009 A 
HETATM   19  C13 UNL     1      28.696   5.396  48.290  1.00  0.00     0.001 A 
HETATM   20  C14 UNL     1      28.636   6.701  47.830  1.00  0.00     0.000 A 
HETATM   21  C15 UNL     1      27.442   7.407  47.804  1.00  0.00     0.001 A 
HETATM   22  C16 UNL     1      26.295   6.784  48.248  1.00  0.00     0.009 A 
ENDBRANCH  16  17
ENDBRANCH  15  16
ENDBRANCH   4  15
TORSDOF 8
ENDMDL
MODEL 2
REMARK VINA RESULT:      -7.0      4.528      7.539
REMARK  8 active torsions:
REMARK  status: ('A' for Active; 'I' for Inactive)
REMARK    1  A    between atoms: N1_2  and  C2_3 
REMARK    2  A    between atoms: C2_3  and  C3_4 
REMARK    3  A    between atoms: C3_4  and  C4_5 
REMARK    4  A    between atoms: C4_5  and  C5_6 
REMARK    5  A    between atoms: C5_6  and  C6_8 
REMARK    6  A    between atoms: C9_11  and  O2_12 
REMARK    7  A    between atoms: O2_12  and  C10_13 
REMARK    8  A    between atoms: C10_13  and  C11_14 
ROOT
HETATM    1  C6  UNL     1      24.189  -0.350  53.963  1.00  0.00     0.010 A 
HETATM    2  C7  UNL     1      23.489   0.508  53.120  1.00  0.00     0.018 A 
HETATM    3  C8  UNL     1      22.123   0.643  53.060  1.00  0.00     0.037 A 
HETATM    4  C9  UNL     1      21.360  -0.154  53.926  1.00  0.00     0.069 A 
HETATM    5  C17 UNL     1      21.964  -1.027  54.793  1.00  0.00     0.037 A 
HETATM    6  C18 UNL     1      23.323  -1.084  54.771  1.00  0.00     0.018 A 
ENDROOT
BRANCH   1   7
HETATM    7  C5  UNL     1      25.647  -0.470  53.999  1.00  0.00     0.159 C 
HETATM    8  O1  UNL     1      26.076  -0.631  55.195  1.00  0.00    -0.292 OA
BRANCH   7   9
HETATM    9  C4  UNL     1      26.272  -0.379  52.658  1.00  0.00     0.085 C 
BRANCH   9  10
HETATM   10  C3  UNL     1      27.519   0.454  52.752  1.00  0.00     0.038 C 
BRANCH  10  11
HETATM   11  C2  UNL     1      27.162   1.871  52.979  1.00  0.00     0.269 C 
BRANCH  11  12
HETATM   12  N1  UNL     1      28.086   2.590  53.823  1.00  0.00     0.079 N 
HETATM   13  C1  UNL     1      29.191   1.838  54.310  1.00  0.00     0.306 C 
HETATM   14  H4  UNL     1      27.526   2.903  54.671  1.00  0.00     0.315 HD
ENDBRANCH  11  12
ENDBRANCH  10  11
ENDBRANCH   9  10
ENDBRANCH   7   9
ENDBRANCH   1   7
BRANCH   4  15
HETATM   15  O2  UNL     1      19.994   0.063  53.783  1.00  0.00    -0.347 OA
BRANCH  15  16
HETATM   16  C10 UNL     1      19.072  -0.942  53.453  1.00  0.00     0.214 C 
BRANCH  16  17
HETATM   17  C11 UNL     1      18.368  -0.502  52.206  1.00  0.00    -0.034 A 
HETATM   18  C12 UNL     1      18.883   0.288  51.209  1.00  0.00     0.009 A 
HETATM   19  C13 UNL     1      18.147   0.631  50.109  1.00  0.00     0.001 A 
HETATM   20  C14 UNL     1      16.850   0.155  50.021  1.00  0.00     0.000 A 
HETATM   21  C15 UNL     1      16.302  -0.647  51.013  1.00  0.00     0.001 A 
HETATM   22  C16 UNL     1      17.077  -0.969  52.107  1.00  0.00     0.009 A 
ENDBRANCH  16  17
ENDBRANCH  15  16
ENDBRANCH   4  15
TORSDOF 8
ENDMDL
MODEL 3
REMARK VINA RESULT:      -7.0      5.455      9.002
REMARK  8 active torsions:
REMARK  status: ('A' for Active; 'I' for Inactive)
REMARK    1  A    between atoms: N1_2  and  C2_3 
REMARK    2  A    between atoms: C2_3  and  C3_4 
REMARK    3  A    between atoms: C3_4  and  C4_5 
REMARK    4  A    between atoms: C4_5  and  C5_6 
REMARK    5  A    between atoms: C5_6  and  C6_8 
REMARK    6  A    between atoms: C9_11  and  O2_12 
REMARK    7  A    between atoms: O2_12  and  C10_13 
REMARK    8  A    between atoms: C10_13  and  C11_14 
ROOT
HETATM    1  C6  UNL     1      23.428  -0.106  53.180  1.00  0.00     0.010 A 
HETATM    2  C7  UNL     1      22.871  -0.872  54.200  1.00  0.00     0.018 A 
HETATM    3  C8  UNL     1      21.532  -1.100  54.399  1.00  0.00     0.037 A 
HETATM    4  C9  UNL     1      20.638  -0.509  53.494  1.00  0.00     0.069 A 
HETATM    5  C17 UNL     1      21.096   0.263  52.457  1.00  0.00     0.037 A 
HETATM    6  C18 UNL     1      22.442   0.425  52.351  1.00  0.00     0.018 A 
ENDROOT
BRANCH   1   7
HETATM    7  C5  UNL     1      24.863   0.119  53.000  1.00  0.00     0.159 C 
HETATM    8  O1  UNL     1      25.096   0.895  52.008  1.00  0.00    -0.292 OA
BRANCH   7   9
HETATM    9  C4  UNL     1      25.694  -0.598  53.996  1.00  0.00     0.085 C 
BRANCH   9  10
HETATM   10  C3  UNL     1      26.446   0.406  54.822  1.00  0.00     0.038 C 
BRANCH  10  11
HETATM   11  C2  UNL     1      27.899   0.151  54.728  1.00  0.00     0.269 C 
BRANCH  11  12
HETATM   12  N1  UNL     1      28.260  -0.921  53.832  1.00  0.00     0.079 N 
HETATM   13  C1  UNL     1      29.654  -1.092  53.604  1.00  0.00     0.306 C 
HETATM   14  H4  UNL     1      27.819  -0.681  52.895  1.00  0.00     0.315 HD
ENDBRANCH  11  12
ENDBRANCH  10  11
ENDBRANCH   9  10
ENDBRANCH   7   9
ENDBRANCH   1   7
BRANCH   4  15
HETATM   15  O2  UNL     1      19.311  -0.804  53.787  1.00  0.00    -0.347 OA
BRANCH  15  16
HETATM   16  C10 UNL     1      18.260  -0.680  52.866  1.00  0.00     0.214 C 
BRANCH  16  17
HETATM   17  C11 UNL     1      17.420  -1.915  52.988  1.00  0.00    -0.034 A 
HETATM   18  C12 UNL     1      17.749  -3.068  53.654  1.00  0.00     0.009 A 
HETATM   19  C13 UNL     1      16.902  -4.141  53.701  1.00  0.00     0.001 A 
HETATM   20  C14 UNL     1      15.684  -4.035  53.051  1.00  0.00     0.000 A 
HETATM   21  C15 UNL     1      15.323  -2.881  52.369  1.00  0.00     0.001 A 
HETATM   22  C16 UNL     1      16.206  -1.822  52.346  1.00  0.00     0.009 A 
ENDBRANCH  16  17
ENDBRANCH  15  16
ENDBRANCH   4  15
TORSDOF 8
ENDMDL
MODEL 4
REMARK VINA RESULT:      -6.9      2.758      3.883
REMARK  8 active torsions:
REMARK  status: ('A' for Active; 'I' for Inactive)
REMARK    1  A    between atoms: N1_2  and  C2_3 
REMARK    2  A    between atoms: C2_3  and  C3_4 
REMARK    3  A    between atoms: C3_4  and  C4_5 
REMARK    4  A    between atoms: C4_5  and  C5_6 
REMARK    5  A    between atoms: C5_6  and  C6_8 
REMARK    6  A    between atoms: C9_11  and  O2_12 
REMARK    7  A    between atoms: O2_12  and  C10_13 
REMARK    8  A    between atoms: C10_13  and  C11_14 
ROOT
HETATM    1  C6  UNL     1      24.718   0.397  53.072  1.00  0.00     0.010 A 
HETATM    2  C7  UNL     1      24.068   1.516  52.560  1.00  0.00     0.018 A 
HETATM    3  C8  UNL     1      24.619   2.458  51.726  1.00  0.00     0.037 A 
HETATM    4  C9  UNL     1      25.959   2.281  51.353  1.00  0.00     0.069 A 
HETATM    5  C17 UNL     1      26.679   1.207  51.809  1.00  0.00     0.037 A 
HETATM    6  C18 UNL     1      26.038   0.333  52.630  1.00  0.00     0.018 A 
ENDROOT
BRANCH   1   7
HETATM    7  C5  UNL     1      24.100  -0.587  53.961  1.00  0.00     0.159 C 
HETATM    8  O1  UNL     1      24.893  -0.930  54.906  1.00  0.00    -0.292 OA
BRANCH   7   9
HETATM    9  C4  UNL     1      22.718  -0.946  53.562  1.00  0.00     0.085 C 
BRANCH   9  10
HETATM   10  C3  UNL     1      21.802  -0.761  54.738  1.00  0.00     0.038 C 
BRANCH  10  11
HETATM   11  C2  UNL     1      20.794   0.276  54.435  1.00  0.00     0.269 C 
BRANCH  11  12
HETATM   12  N1  UNL     1      20.427   0.362  53.042  1.00  0.00     0.079 N 
HETATM   13  C1  UNL     1      19.178  -0.225  52.696  1.00  0.00     0.306 C 
HETATM   14  H4  UNL     1      21.178  -0.168  52.507  1.00  0.00     0.315 HD
ENDBRANCH  11  12
ENDBRANCH  10  11
ENDBRANCH   9  10
ENDBRANCH   7   9
ENDBRANCH   1   7
BRANCH   4  15
HETATM   15  O2  UNL     1      26.414   3.289  50.510  1.00  0.00    -0.347 OA
BRANCH  15  16
HETATM   16  C10 UNL     1      25.608   3.942  49.565  1.00  0.00     0.214 C 
BRANCH  16  17
HETATM   17  C11 UNL     1      26.428   5.051  48.978  1.00  0.00    -0.034 A 
HETATM   18  C12 UNL     1      25.995   6.315  48.667  1.00  0.00     0.009 A 
HETATM   19  C13 UNL     1      26.834   7.252  48.132  1.00  0.00     0.001 A 
HETATM   20  C14 UNL     1      28.151   6.891  47.906  1.00  0.00     0.000 A 
HETATM   21  C15 UNL     1      28.618   5.620  48.211  1.00  0.00     0.001 A 
HETATM   22  C16 UNL     1      27.740   4.704  48.750  1.00  0.00     0.009 A 
ENDBRANCH  16  17
ENDBRANCH  15  16
ENDBRANCH   4  15
TORSDOF 8
ENDMDL
MODEL 5
REMARK VINA RESULT:      -6.9      1.606      1.865
REMARK  8 active torsions:
REMARK  status: ('A' for Active; 'I' for Inactive)
REMARK    1  A    between atoms: N1_2  and  C2_3 
REMARK    2  A    between atoms: C2_3  and  C3_4 
REMARK    3  A    between atoms: C3_4  and  C4_5 
REMARK    4  A    between atoms: C4_5  and  C5_6 
REMARK    5  A    between atoms: C5_6  and  C6_8 
REMARK    6  A    between atoms: C9_11  and  O2_12 
REMARK    7  A    between atoms: O2_12  and  C10_13 
REMARK    8  A    between atoms: C10_13  and  C11_14 
ROOT
HETATM    1  C6  UNL     1      23.789   1.013  52.748  1.00  0.00     0.010 A 
HETATM    2  C7  UNL     1      23.211   1.256  51.505  1.00  0.00     0.018 A 
HETATM    3  C8  UNL     1      23.137   2.473  50.873  1.00  0.00     0.037 A 
HETATM    4  C9  UNL     1      23.693   3.577  51.537  1.00  0.00     0.069 A 
HETATM    5  C17 UNL     1      24.284   3.432  52.766  1.00  0.00     0.037 A 
HETATM    6  C18 UNL     1      24.304   2.183  53.303  1.00  0.00     0.018 A 
ENDROOT
BRANCH   1   7
HETATM    7  C5  UNL     1      23.848  -0.299  53.393  1.00  0.00     0.159 C 
HETATM    8  O1  UNL     1      22.713  -0.893  53.355  1.00  0.00    -0.292 OA
BRANCH   7   9
HETATM    9  C4  UNL     1      25.191  -0.624  53.931  1.00  0.00     0.085 C 
BRANCH   9  10
HETATM   10  C3  UNL     1      26.094  -1.013  52.795  1.00  0.00     0.038 C 
BRANCH  10  11
HETATM   11  C2  UNL     1      27.417  -0.376  52.962  1.00  0.00     0.269 C 
BRANCH  11  12
HETATM   12  N1  UNL     1      28.325  -1.101  53.818  1.00  0.00     0.079 N 
HETATM   13  C1  UNL     1      29.710  -0.868  53.586  1.00  0.00     0.306 C 
HETATM   14  H4  UNL     1      28.148  -2.132  53.627  1.00  0.00     0.315 HD
ENDBRANCH  11  12
ENDBRANCH  10  11
ENDBRANCH   9  10
ENDBRANCH   7   9
ENDBRANCH   1   7
BRANCH   4  15
HETATM   15  O2  UNL     1      23.565   4.754  50.811  1.00  0.00    -0.347 OA
BRANCH  15  16
HETATM   16  C10 UNL     1      23.669   4.827  49.413  1.00  0.00     0.214 C 
BRANCH  16  17
HETATM   17  C11 UNL     1      25.103   5.120  49.093  1.00  0.00    -0.034 A 
HETATM   18  C12 UNL     1      26.157   4.245  49.175  1.00  0.00     0.009 A 
HETATM   19  C13 UNL     1      27.433   4.621  48.859  1.00  0.00     0.001 A 
HETATM   20  C14 UNL     1      27.641   5.926  48.446  1.00  0.00     0.000 A 
HETATM   21  C15 UNL     1      26.595   6.833  48.352  1.00  0.00     0.001 A 
HETATM   22  C16 UNL     1      25.324   6.414  48.681  1.00  0.00     0.009 A 
ENDBRANCH  16  17
ENDBRANCH  15  16
ENDBRANCH   4  15
TORSDOF 8
ENDMDL
MODEL 6
REMARK VINA RESULT:      -6.7      2.546      7.261
REMARK  8 active torsions:
REMARK  status: ('A' for Active; 'I' for Inactive)
REMARK    1  A    between atoms: N1_2  and  C2_3 
REMARK    2  A    between atoms: C2_3  and  C3_4 
REMARK    3  A    between atoms: C3_4  and  C4_5 
REMARK    4  A    between atoms: C4_5  and  C5_6 
REMARK    5  A    between atoms: C5_6  and  C6_8 
REMARK    6  A    between atoms: C9_11  and  O2_12 
REMARK    7  A    between atoms: O2_12  and  C10_13 
REMARK    8  A    between atoms: C10_13  and  C11_14 
ROOT
HETATM    1  C6  UNL     1      25.440   4.229  50.039  1.00  0.00     0.010 A 
HETATM    2  C7  UNL     1      26.442   3.268  50.131  1.00  0.00     0.018 A 
HETATM    3  C8  UNL     1      26.541   2.295  51.096  1.00  0.00     0.037 A 
HETATM    4  C9  UNL     1      25.542   2.263  52.081  1.00  0.00     0.069 A 
HETATM    5  C17 UNL     1      24.515   3.171  52.069  1.00  0.00     0.037 A 
HETATM    6  C18 UNL     1      24.512   4.093  51.070  1.00  0.00     0.018 A 
ENDROOT
BRANCH   1   7
HETATM    7  C5  UNL     1      25.368   5.254  48.997  1.00  0.00     0.159 C 
HETATM    8  O1  UNL     1      24.167   5.420  48.583  1.00  0.00    -0.292 OA
BRANCH   7   9
HETATM    9  C4  UNL     1      26.686   5.850  48.673  1.00  0.00     0.085 C 
BRANCH   9  10
HETATM   10  C3  UNL     1      26.579   7.347  48.741  1.00  0.00     0.038 C 
BRANCH  10  11
HETATM   11  C2  UNL     1      26.177   7.762  50.102  1.00  0.00     0.269 C 
BRANCH  11  12
HETATM   12  N1  UNL     1      26.949   8.854  50.645  1.00  0.00     0.079 N 
HETATM   13  C1  UNL     1      27.965   9.374  49.795  1.00  0.00     0.306 C 
HETATM   14  H4  UNL     1      27.435   8.468  51.509  1.00  0.00     0.315 HD
ENDBRANCH  11  12
ENDBRANCH  10  11
ENDBRANCH   9  10
ENDBRANCH   7   9
ENDBRANCH   1   7
BRANCH   4  15
HETATM   15  O2  UNL     1      25.739   1.243  53.004  1.00  0.00    -0.347 OA
BRANCH  15  16
HETATM   16  C10 UNL     1      25.695  -0.123  52.682  1.00  0.00     0.214 C 
BRANCH  16  17
HETATM   17  C11 UNL     1      27.057  -0.684  52.957  1.00  0.00    -0.034 A 
HETATM   18  C12 UNL     1      28.142  -0.001  53.446  1.00  0.00     0.009 A 
HETATM   19  C13 UNL     1      29.344  -0.616  53.659  1.00  0.00     0.001 A 
HETATM   20  C14 UNL     1      29.445  -1.965  53.365  1.00  0.00     0.000 A 
HETATM   21  C15 UNL     1      28.365  -2.682  52.869  1.00  0.00     0.001 A 
HETATM   22  C16 UNL     1      27.170  -2.025  52.669  1.00  0.00     0.009 A 
ENDBRANCH  16  17
ENDBRANCH  15  16
ENDBRANCH   4  15
TORSDOF 8
ENDMDL
MODEL 7
REMARK VINA RESULT:      -6.6      2.854      7.526
REMARK  8 active torsions:
REMARK  status: ('A' for Active; 'I' for Inactive)
REMARK    1  A    between atoms: N1_2  and  C2_3 
REMARK    2  A    between atoms: C2_3  and  C3_4 
REMARK    3  A    between atoms: C3_4  and  C4_5 
REMARK    4  A    between atoms: C4_5  and  C5_6 
REMARK    5  A    between atoms: C5_6  and  C6_8 
REMARK    6  A    between atoms: C9_11  and  O2_12 
REMARK    7  A    between atoms: O2_12  and  C10_13 
REMARK    8  A    between atoms: C10_13  and  C11_14 
ROOT
HETATM    1  C6  UNL     1      26.775   5.082  48.930  1.00  0.00     0.010 A 
HETATM    2  C7  UNL     1      26.794   3.797  49.463  1.00  0.00     0.018 A 
HETATM    3  C8  UNL     1      25.719   3.126  49.991  1.00  0.00     0.037 A 
HETATM    4  C9  UNL     1      24.485   3.792  49.996  1.00  0.00     0.069 A 
HETATM    5  C17 UNL     1      24.370   5.061  49.491  1.00  0.00     0.037 A 
HETATM    6  C18 UNL     1      25.497   5.636  48.991  1.00  0.00     0.018 A 
ENDROOT
BRANCH   1   7
HETATM    7  C5  UNL     1      27.943   5.769  48.376  1.00  0.00     0.159 C 
HETATM    8  O1  UNL     1      29.013   5.087  48.546  1.00  0.00    -0.292 OA
BRANCH   7   9
HETATM    9  C4  UNL     1      27.611   7.075  47.758  1.00  0.00     0.085 C 
BRANCH   9  10
HETATM   10  C3  UNL     1      28.852   7.921  47.703  1.00  0.00     0.038 C 
BRANCH  10  11
HETATM   11  C2  UNL     1      28.989   8.698  48.953  1.00  0.00     0.269 C 
BRANCH  11  12
HETATM   12  N1  UNL     1      30.268   8.556  49.606  1.00  0.00     0.079 N 
HETATM   13  C1  UNL     1      31.251   7.823  48.885  1.00  0.00     0.306 C 
HETATM   14  H4  UNL     1      30.080   8.021  50.506  1.00  0.00     0.315 HD
ENDBRANCH  11  12
ENDBRANCH  10  11
ENDBRANCH   9  10
ENDBRANCH   7   9
ENDBRANCH   1   7
BRANCH   4  15
HETATM   15  O2  UNL     1      23.468   3.024  50.551  1.00  0.00    -0.347 OA
BRANCH  15  16
HETATM   16  C10 UNL     1      23.034   3.142  51.880  1.00  0.00     0.214 C 
BRANCH  16  17
HETATM   17  C11 UNL     1      23.234   1.806  52.529  1.00  0.00    -0.034 A 
HETATM   18  C12 UNL     1      24.429   1.251  52.912  1.00  0.00     0.009 A 
HETATM   19  C13 UNL     1      24.496   0.017  53.498  1.00  0.00     0.001 A 
HETATM   20  C14 UNL     1      23.312  -0.671  53.699  1.00  0.00     0.000 A 
HETATM   21  C15 UNL     1      22.088  -0.135  53.322  1.00  0.00     0.001 A 
HETATM   22  C16 UNL     1      22.064   1.111  52.735  1.00  0.00     0.009 A 
ENDBRANCH  16  17
ENDBRANCH  15  16
ENDBRANCH   4  15
TORSDOF 8
ENDMDL
MODEL 8
REMARK VINA RESULT:      -6.6      5.188      7.455
REMARK  8 active torsions:
REMARK  status: ('A' for Active; 'I' for Inactive)
REMARK    1  A    between atoms: N1_2  and  C2_3 
REMARK    2  A    between atoms: C2_3  and  C3_4 
REMARK    3  A    between atoms: C3_4  and  C4_5 
REMARK    4  A    between atoms: C4_5  and  C5_6 
REMARK    5  A    between atoms: C5_6  and  C6_8 
REMARK    6  A    between atoms: C9_11  and  O2_12 
REMARK    7  A    between atoms: O2_12  and  C10_13 
REMARK    8  A    between atoms: C10_13  and  C11_14 
ROOT
HETATM    1  C6  UNL     1      21.541   1.248  52.859  1.00  0.00     0.010 A 
HETATM    2  C7  UNL     1      21.763   0.129  53.656  1.00  0.00     0.018 A 
HETATM    3  C8  UNL     1      22.984  -0.437  53.929  1.00  0.00     0.037 A 
HETATM    4  C9  UNL     1      24.114   0.164  53.355  1.00  0.00     0.069 A 
HETATM    5  C17 UNL     1      23.991   1.271  52.557  1.00  0.00     0.037 A 
HETATM    6  C18 UNL     1      22.736   1.752  52.349  1.00  0.00     0.018 A 
ENDROOT
BRANCH   1   7
HETATM    7  C5  UNL     1      20.223   1.824  52.586  1.00  0.00     0.159 C 
HETATM    8  O1  UNL     1      20.161   3.049  52.953  1.00  0.00    -0.292 OA
BRANCH   7   9
HETATM    9  C4  UNL     1      19.286   0.862  51.956  1.00  0.00     0.085 C 
BRANCH   9  10
HETATM   10  C3  UNL     1      19.749   0.571  50.557  1.00  0.00     0.038 C 
BRANCH  10  11
HETATM   11  C2  UNL     1      19.449   1.720  49.677  1.00  0.00     0.269 C 
BRANCH  11  12
HETATM   12  N1  UNL     1      18.143   1.679  49.064  1.00  0.00     0.079 N 
HETATM   13  C1  UNL     1      17.692   2.900  48.490  1.00  0.00     0.306 C 
HETATM   14  H4  UNL     1      17.462   1.431  49.842  1.00  0.00     0.315 HD
ENDBRANCH  11  12
ENDBRANCH  10  11
ENDBRANCH   9  10
ENDBRANCH   7   9
ENDBRANCH   1   7
BRANCH   4  15
HETATM   15  O2  UNL     1      25.294  -0.487  53.697  1.00  0.00    -0.347 OA
BRANCH  15  16
HETATM   16  C10 UNL     1      26.109  -1.164  52.777  1.00  0.00     0.214 C 
BRANCH  16  17
HETATM   17  C11 UNL     1      27.527  -0.794  53.090  1.00  0.00    -0.034 A 
HETATM   18  C12 UNL     1      28.594  -1.650  53.196  1.00  0.00     0.009 A 
HETATM   19  C13 UNL     1      29.852  -1.201  53.488  1.00  0.00     0.001 A 
HETATM   20  C14 UNL     1      30.028   0.159  53.677  1.00  0.00     0.000 A 
HETATM   21  C15 UNL     1      28.968   1.050  53.576  1.00  0.00     0.001 A 
HETATM   22  C16 UNL     1      27.716   0.556  53.280  1.00  0.00     0.009 A 
ENDBRANCH  16  17
ENDBRANCH  15  16
ENDBRANCH   4  15
TORSDOF 8
ENDMDL
MODEL 9
REMARK VINA RESULT:      -6.6      2.464      7.105
REMARK  8 active torsions:
REMARK  status: ('A' for Active; 'I' for Inactive)
REMARK    1  A    between atoms: N1_2  and  C2_3 
REMARK    2  A    between atoms: C2_3  and  C3_4 
REMARK    3  A    between atoms: C3_4  and  C4_5 
REMARK    4  A    between atoms: C4_5  and  C5_6 
REMARK    5  A    between atoms: C5_6  and  C6_8 
REMARK    6  A    between atoms: C9_11  and  O2_12 
REMARK    7  A    between atoms: O2_12  and  C10_13 
REMARK    8  A    between atoms: C10_13  and  C11_14 
ROOT
HETATM    1  C6  UNL     1      26.552   5.605  48.926  1.00  0.00     0.010 A 
HETATM    2  C7  UNL     1      27.089   4.323  48.976  1.00  0.00     0.018 A 
HETATM    3  C8  UNL     1      26.592   3.268  49.702  1.00  0.00     0.037 A 
HETATM    4  C9  UNL     1      25.437   3.499  50.464  1.00  0.00     0.069 A 
HETATM    5  C17 UNL     1      24.838   4.732  50.474  1.00  0.00     0.037 A 
HETATM    6  C18 UNL     1      25.411   5.708  49.721  1.00  0.00     0.018 A 
ENDROOT
BRANCH   1   7
HETATM    7  C5  UNL     1      27.110   6.709  48.143  1.00  0.00     0.159 C 
HETATM    8  O1  UNL     1      26.197   7.524  47.763  1.00  0.00    -0.292 OA
BRANCH   7   9
HETATM    9  C4  UNL     1      28.581   6.621  47.978  1.00  0.00     0.085 C 
BRANCH   9  10
HETATM   10  C3  UNL     1      29.207   7.893  48.473  1.00  0.00     0.038 C 
BRANCH  10  11
HETATM   11  C2  UNL     1      30.679   7.755  48.498  1.00  0.00     0.269 C 
BRANCH  11  12
HETATM   12  N1  UNL     1      31.214   7.306  49.761  1.00  0.00     0.079 N 
HETATM   13  C1  UNL     1      31.871   6.044  49.739  1.00  0.00     0.306 C 
HETATM   14  H4  UNL     1      30.382   7.211  50.416  1.00  0.00     0.315 HD
ENDBRANCH  11  12
ENDBRANCH  10  11
ENDBRANCH   9  10
ENDBRANCH   7   9
ENDBRANCH   1   7
BRANCH   4  15
HETATM   15  O2  UNL     1      25.021   2.367  51.156  1.00  0.00    -0.347 OA
BRANCH  15  16
HETATM   16  C10 UNL     1      25.086   2.235  52.551  1.00  0.00     0.214 C 
BRANCH  16  17
HETATM   17  C11 UNL     1      26.344   1.482  52.864  1.00  0.00    -0.034 A 
HETATM   18  C12 UNL     1      27.505   2.003  53.378  1.00  0.00     0.009 A 
HETATM   19  C13 UNL     1      28.598   1.220  53.625  1.00  0.00     0.001 A 
HETATM   20  C14 UNL     1      28.507  -0.132  53.340  1.00  0.00     0.000 A 
HETATM   21  C15 UNL     1      27.346  -0.687  52.820  1.00  0.00     0.001 A 
HETATM   22  C16 UNL     1      26.266   0.137  52.585  1.00  0.00     0.009 A 
ENDBRANCH  16  17
ENDBRANCH  15  16
ENDBRANCH   4  15
TORSDOF 8
ENDMDL
