MODEL 1
REMARK VINA RESULT:      -8.2      0.000      0.000
REMARK  7 active torsions:
REMARK  status: ('A' for Active; 'I' for Inactive)
REMARK    1  A    between atoms: C6_6  and  N1_7 
REMARK    2  A    between atoms: C6_6  and  N2_8 
REMARK    3  A    between atoms: N2_8  and  C7_9 
REMARK    4  A    between atoms: C7_9  and  C8_10 
REMARK    5  A    between atoms: C11_15  and  N5_16 
REMARK    6  A    between atoms: N5_16  and  C12_17 
REMARK    7  A    between atoms: C12_17  and  C14_19 
ROOT
HETATM    1  C8  UNL     1      25.409   2.692  51.630  1.00  0.00     0.044 A 
HETATM    2  C9  UNL     1      26.452   2.887  50.753  1.00  0.00     0.134 A 
HETATM    3  N3  UNL     1      26.141   3.526  49.589  1.00  0.00    -0.253 NA
HETATM    4  C10 UNL     1      24.840   3.900  49.418  1.00  0.00     0.234 A 
HETATM    5  N4  UNL     1      23.844   3.697  50.293  1.00  0.00    -0.224 NA
HETATM    6  C11 UNL     1      24.100   3.072  51.452  1.00  0.00     0.138 A 
ENDROOT
BRANCH   1   7
HETATM    7  C7  UNL     1      25.785   2.011  52.852  1.00  0.00     0.295 C 
BRANCH   7   8
HETATM    8  N2  UNL     1      25.986   1.359  53.893  1.00  0.00    -0.380 NA
BRANCH   8   9
HETATM    9  C6  UNL     1      26.388   0.021  54.113  1.00  0.00     0.261 A 
HETATM   10  C2  UNL     1      27.869  -0.179  53.941  1.00  0.00    -0.023 A 
HETATM   11  C1  UNL     1      29.057   0.479  54.594  1.00  0.00     0.048 C 
HETATM   12  C3  UNL     1      28.102  -1.117  53.036  1.00  0.00     0.007 A 
HETATM   13  C4  UNL     1      26.840  -1.634  52.519  1.00  0.00     0.001 A 
HETATM   14  C5  UNL     1      25.871  -0.976  53.142  1.00  0.00     0.040 A 
BRANCH   9  15
HETATM   15  N1  UNL     1      26.047  -0.485  55.430  1.00  0.00     0.115 N 
HETATM   16  H7  UNL     1      26.730  -0.100  56.104  1.00  0.00     0.316 HD
HETATM   17  H8  UNL     1      25.111  -0.200  55.731  1.00  0.00     0.316 HD
ENDBRANCH   9  15
ENDBRANCH   8   9
ENDBRANCH   7   8
ENDBRANCH   1   7
BRANCH   6  18
HETATM   18  N5  UNL     1      23.085   2.842  52.411  1.00  0.00    -0.366 N 
HETATM   19  H12 UNL     1      23.237   2.948  53.425  1.00  0.00     0.161 HD
BRANCH  18  20
HETATM   20  C12 UNL     1      21.755   2.441  52.071  1.00  0.00     0.112 C 
HETATM   21  C13 UNL     1      20.709   3.500  52.209  1.00  0.00     0.037 C 
BRANCH  20  22
HETATM   22  C14 UNL     1      21.322   1.168  52.728  1.00  0.00    -0.036 A 
HETATM   23  C15 UNL     1      20.092   0.691  52.613  1.00  0.00     0.009 A 
HETATM   24  C16 UNL     1      19.465  -0.492  53.151  1.00  0.00    -0.003 A 
HETATM   25  C17 UNL     1      20.106  -1.362  53.894  1.00  0.00    -0.023 A 
HETATM   26  C18 UNL     1      21.441  -1.604  54.468  1.00  0.00     0.054 A 
HETATM   27  C19 UNL     1      22.423  -0.543  54.138  1.00  0.00    -0.022 A 
HETATM   28  C20 UNL     1      22.448   0.587  53.453  1.00  0.00     0.005 A 
ENDBRANCH  20  22
ENDBRANCH  18  20
ENDBRANCH   6  18
TORSDOF 7
ENDMDL
MODEL 2
REMARK VINA RESULT:      -8.1      1.691      5.156
REMARK  7 active torsions:
REMARK  status: ('A' for Active; 'I' for Inactive)
REMARK    1  A    between atoms: C6_6  and  N1_7 
REMARK    2  A    between atoms: C6_6  and  N2_8 
REMARK    3  A    between atoms: N2_8  and  C7_9 
REMARK    4  A    between atoms: C7_9  and  C8_10 
REMARK    5  A    between atoms: C11_15  and  N5_16 
REMARK    6  A    between atoms: N5_16  and  C12_17 
REMARK    7  A    between atoms: C12_17  and  C14_19 
ROOT
HETATM    1  C8  UNL     1      23.816   0.131  53.329  1.00  0.00     0.044 A 
HETATM    2  C9  UNL     1      23.459  -0.785  54.291  1.00  0.00     0.134 A 
HETATM    3  N3  UNL     1      22.144  -0.794  54.649  1.00  0.00    -0.253 NA
HETATM    4  C10 UNL     1      21.326   0.100  54.020  1.00  0.00     0.234 A 
HETATM    5  N4  UNL     1      21.704   0.983  53.083  1.00  0.00    -0.224 NA
HETATM    6  C11 UNL     1      22.988   1.030  52.698  1.00  0.00     0.138 A 
ENDROOT
BRANCH   1   7
HETATM    7  C7  UNL     1      25.222   0.105  52.981  1.00  0.00     0.295 C 
BRANCH   7   8
HETATM    8  N2  UNL     1      26.451   0.017  52.803  1.00  0.00    -0.380 NA
BRANCH   8   9
HETATM    9  C6  UNL     1      27.530  -0.165  53.700  1.00  0.00     0.261 A 
HETATM   10  C2  UNL     1      28.594   0.887  53.553  1.00  0.00    -0.023 A 
HETATM   11  C1  UNL     1      28.542   2.391  53.632  1.00  0.00     0.048 C 
HETATM   12  C3  UNL     1      29.767   0.322  53.312  1.00  0.00     0.007 A 
HETATM   13  C4  UNL     1      29.620  -1.129  53.272  1.00  0.00     0.001 A 
HETATM   14  C5  UNL     1      28.339  -1.392  53.495  1.00  0.00     0.040 A 
BRANCH   9  15
HETATM   15  N1  UNL     1      27.135  -0.171  55.096  1.00  0.00     0.115 N 
HETATM   16  H7  UNL     1      26.883  -1.142  55.351  1.00  0.00     0.316 HD
HETATM   17  H8  UNL     1      27.888   0.133  55.721  1.00  0.00     0.316 HD
ENDBRANCH   9  15
ENDBRANCH   8   9
ENDBRANCH   7   8
ENDBRANCH   1   7
BRANCH   6  18
HETATM   18  N5  UNL     1      23.434   1.937  51.707  1.00  0.00    -0.366 N 
HETATM   19  H12 UNL     1      23.597   1.661  50.727  1.00  0.00     0.161 HD
BRANCH  18  20
HETATM   20  C12 UNL     1      23.701   3.318  51.965  1.00  0.00     0.112 C 
HETATM   21  C13 UNL     1      22.498   4.170  52.213  1.00  0.00     0.037 C 
BRANCH  20  22
HETATM   22  C14 UNL     1      24.613   3.953  50.964  1.00  0.00    -0.036 A 
HETATM   23  C15 UNL     1      24.385   5.155  50.457  1.00  0.00     0.009 A 
HETATM   24  C16 UNL     1      25.114   5.947  49.495  1.00  0.00    -0.003 A 
HETATM   25  C17 UNL     1      26.236   5.546  48.948  1.00  0.00    -0.023 A 
HETATM   26  C18 UNL     1      27.165   4.402  48.960  1.00  0.00     0.054 A 
HETATM   27  C19 UNL     1      26.736   3.309  49.865  1.00  0.00    -0.022 A 
HETATM   28  C20 UNL     1      25.734   3.060  50.692  1.00  0.00     0.005 A 
ENDBRANCH  20  22
ENDBRANCH  18  20
ENDBRANCH   6  18
TORSDOF 7
ENDMDL
MODEL 3
REMARK VINA RESULT:      -8.1      1.538      4.963
REMARK  7 active torsions:
REMARK  status: ('A' for Active; 'I' for Inactive)
REMARK    1  A    between atoms: C6_6  and  N1_7 
REMARK    2  A    between atoms: C6_6  and  N2_8 
REMARK    3  A    between atoms: N2_8  and  C7_9 
REMARK    4  A    between atoms: C7_9  and  C8_10 
REMARK    5  A    between atoms: C11_15  and  N5_16 
REMARK    6  A    between atoms: N5_16  and  C12_17 
REMARK    7  A    between atoms: C12_17  and  C14_19 
ROOT
HETATM    1  C8  UNL     1      26.974   1.148  53.049  1.00  0.00     0.044 A 
HETATM    2  C9  UNL     1      28.174   1.786  53.265  1.00  0.00     0.134 A 
HETATM    3  N3  UNL     1      28.919   1.318  54.307  1.00  0.00    -0.253 NA
HETATM    4  C10 UNL     1      28.401   0.277  55.020  1.00  0.00     0.234 A 
HETATM    5  N4  UNL     1      27.226  -0.327  54.784  1.00  0.00    -0.224 NA
HETATM    6  C11 UNL     1      26.457   0.097  53.770  1.00  0.00     0.138 A 
ENDROOT
BRANCH   1   7
HETATM    7  C7  UNL     1      26.217   1.677  51.933  1.00  0.00     0.295 C 
BRANCH   7   8
HETATM    8  N2  UNL     1      25.464   2.048  51.014  1.00  0.00    -0.380 NA
BRANCH   8   9
HETATM    9  C6  UNL     1      25.015   3.328  50.612  1.00  0.00     0.261 A 
HETATM   10  C2  UNL     1      23.874   3.836  51.450  1.00  0.00    -0.023 A 
HETATM   11  C1  UNL     1      23.732   4.050  52.935  1.00  0.00     0.048 C 
HETATM   12  C3  UNL     1      22.837   4.130  50.681  1.00  0.00     0.007 A 
HETATM   13  C4  UNL     1      23.161   3.859  49.285  1.00  0.00     0.001 A 
HETATM   14  C5  UNL     1      24.406   3.402  49.261  1.00  0.00     0.040 A 
BRANCH   9  15
HETATM   15  N1  UNL     1      26.047   4.347  50.646  1.00  0.00     0.115 N 
HETATM   16  H7  UNL     1      25.589   5.266  50.520  1.00  0.00     0.316 HD
HETATM   17  H8  UNL     1      26.555   4.366  51.535  1.00  0.00     0.316 HD
ENDBRANCH   9  15
ENDBRANCH   8   9
ENDBRANCH   7   8
ENDBRANCH   1   7
BRANCH   6  18
HETATM   18  N5  UNL     1      25.213  -0.511  53.475  1.00  0.00    -0.366 N 
HETATM   19  H12 UNL     1      25.069  -1.125  52.660  1.00  0.00     0.161 HD
BRANCH  18  20
HETATM   20  C12 UNL     1      24.041  -0.337  54.275  1.00  0.00     0.112 C 
HETATM   21  C13 UNL     1      23.838  -1.356  55.349  1.00  0.00     0.037 C 
BRANCH  20  22
HETATM   22  C14 UNL     1      22.791  -0.140  53.478  1.00  0.00    -0.036 A 
HETATM   23  C15 UNL     1      22.800   0.381  52.259  1.00  0.00     0.009 A 
HETATM   24  C16 UNL     1      21.735   0.660  51.325  1.00  0.00    -0.003 A 
HETATM   25  C17 UNL     1      20.477   0.388  51.578  1.00  0.00    -0.023 A 
HETATM   26  C18 UNL     1      19.626  -0.187  52.634  1.00  0.00     0.054 A 
HETATM   27  C19 UNL     1      20.386  -0.605  53.836  1.00  0.00    -0.022 A 
HETATM   28  C20 UNL     1      21.644  -0.618  54.243  1.00  0.00     0.005 A 
ENDBRANCH  20  22
ENDBRANCH  18  20
ENDBRANCH   6  18
TORSDOF 7
ENDMDL
MODEL 4
REMARK VINA RESULT:      -8.1      1.867      5.340
REMARK  7 active torsions:
REMARK  status: ('A' for Active; 'I' for Inactive)
REMARK    1  A    between atoms: C6_6  and  N1_7 
REMARK    2  A    between atoms: C6_6  and  N2_8 
REMARK    3  A    between atoms: N2_8  and  C7_9 
REMARK    4  A    between atoms: C7_9  and  C8_10 
REMARK    5  A    between atoms: C11_15  and  N5_16 
REMARK    6  A    between atoms: N5_16  and  C12_17 
REMARK    7  A    between atoms: C12_17  and  C14_19 
ROOT
HETATM    1  C8  UNL     1      23.571  -0.502  54.090  1.00  0.00     0.044 A 
HETATM    2  C9  UNL     1      22.911  -1.229  55.054  1.00  0.00     0.134 A 
HETATM    3  N3  UNL     1      21.566  -1.022  55.141  1.00  0.00    -0.253 NA
HETATM    4  C10 UNL     1      21.021  -0.123  54.271  1.00  0.00     0.234 A 
HETATM    5  N4  UNL     1      21.692   0.572  53.340  1.00  0.00    -0.224 NA
HETATM    6  C11 UNL     1      23.017   0.403  53.216  1.00  0.00     0.138 A 
ENDROOT
BRANCH   1   7
HETATM    7  C7  UNL     1      24.997  -0.754  54.034  1.00  0.00     0.295 C 
BRANCH   7   8
HETATM    8  N2  UNL     1      26.239  -0.838  54.025  1.00  0.00    -0.380 NA
BRANCH   8   9
HETATM    9  C6  UNL     1      27.220  -0.296  53.162  1.00  0.00     0.261 A 
HETATM   10  C2  UNL     1      28.563  -0.956  53.318  1.00  0.00    -0.023 A 
HETATM   11  C1  UNL     1      28.996  -2.395  53.208  1.00  0.00     0.048 C 
HETATM   12  C3  UNL     1      29.487  -0.053  53.604  1.00  0.00     0.007 A 
HETATM   13  C4  UNL     1      28.882   1.274  53.669  1.00  0.00     0.001 A 
HETATM   14  C5  UNL     1      27.590   1.119  53.414  1.00  0.00     0.040 A 
BRANCH   9  15
HETATM   15  N1  UNL     1      26.873  -0.377  51.756  1.00  0.00     0.115 N 
HETATM   16  H7  UNL     1      27.042   0.552  51.333  1.00  0.00     0.316 HD
HETATM   17  H8  UNL     1      27.439  -1.062  51.248  1.00  0.00     0.316 HD
ENDBRANCH   9  15
ENDBRANCH   8   9
ENDBRANCH   7   8
ENDBRANCH   1   7
BRANCH   6  18
HETATM   18  N5  UNL     1      23.768   1.106  52.243  1.00  0.00    -0.366 N 
HETATM   19  H12 UNL     1      24.791   1.020  52.156  1.00  0.00     0.161 HD
BRANCH  18  20
HETATM   20  C12 UNL     1      23.184   1.998  51.291  1.00  0.00     0.112 C 
HETATM   21  C13 UNL     1      22.286   1.362  50.279  1.00  0.00     0.037 C 
BRANCH  20  22
HETATM   22  C14 UNL     1      24.172   2.910  50.635  1.00  0.00    -0.036 A 
HETATM   23  C15 UNL     1      25.477   2.683  50.664  1.00  0.00     0.009 A 
HETATM   24  C16 UNL     1      26.593   3.415  50.113  1.00  0.00    -0.003 A 
HETATM   25  C17 UNL     1      26.447   4.515  49.415  1.00  0.00    -0.023 A 
HETATM   26  C18 UNL     1      25.393   5.415  48.913  1.00  0.00     0.054 A 
HETATM   27  C19 UNL     1      24.027   4.992  49.303  1.00  0.00    -0.022 A 
HETATM   28  C20 UNL     1      23.465   4.009  49.986  1.00  0.00     0.005 A 
ENDBRANCH  20  22
ENDBRANCH  18  20
ENDBRANCH   6  18
TORSDOF 7
ENDMDL
MODEL 5
REMARK VINA RESULT:      -8.1      1.733      1.989
REMARK  7 active torsions:
REMARK  status: ('A' for Active; 'I' for Inactive)
REMARK    1  A    between atoms: C6_6  and  N1_7 
REMARK    2  A    between atoms: C6_6  and  N2_8 
REMARK    3  A    between atoms: N2_8  and  C7_9 
REMARK    4  A    between atoms: C7_9  and  C8_10 
REMARK    5  A    between atoms: C11_15  and  N5_16 
REMARK    6  A    between atoms: N5_16  and  C12_17 
REMARK    7  A    between atoms: C12_17  and  C14_19 
ROOT
HETATM    1  C8  UNL     1      26.048   3.398  50.435  1.00  0.00     0.044 A 
HETATM    2  C9  UNL     1      26.867   4.089  49.571  1.00  0.00     0.134 A 
HETATM    3  N3  UNL     1      26.269   5.072  48.838  1.00  0.00    -0.253 NA
HETATM    4  C10 UNL     1      24.933   5.264  49.037  1.00  0.00     0.234 A 
HETATM    5  N4  UNL     1      24.159   4.574  49.889  1.00  0.00    -0.224 NA
HETATM    6  C11 UNL     1      24.702   3.598  50.631  1.00  0.00     0.138 A 
ENDROOT
BRANCH   1   7
HETATM    7  C7  UNL     1      26.726   2.365  51.191  1.00  0.00     0.295 C 
BRANCH   7   8
HETATM    8  N2  UNL     1      27.345   1.578  51.930  1.00  0.00    -0.380 NA
BRANCH   8   9
HETATM    9  C6  UNL     1      27.610   1.589  53.319  1.00  0.00     0.261 A 
HETATM   10  C2  UNL     1      28.449   0.422  53.763  1.00  0.00    -0.023 A 
HETATM   11  C1  UNL     1      29.803  -0.070  53.322  1.00  0.00     0.048 C 
HETATM   12  C3  UNL     1      27.826  -0.254  54.716  1.00  0.00     0.007 A 
HETATM   13  C4  UNL     1      26.539   0.369  55.006  1.00  0.00     0.001 A 
HETATM   14  C5  UNL     1      26.430   1.418  54.202  1.00  0.00     0.040 A 
BRANCH   9  15
HETATM   15  N1  UNL     1      28.285   2.790  53.776  1.00  0.00     0.115 N 
HETATM   16  H7  UNL     1      27.968   3.577  53.185  1.00  0.00     0.316 HD
HETATM   17  H8  UNL     1      28.066   3.019  54.750  1.00  0.00     0.316 HD
ENDBRANCH   9  15
ENDBRANCH   8   9
ENDBRANCH   7   8
ENDBRANCH   1   7
BRANCH   6  18
HETATM   18  N5  UNL     1      23.930   2.846  51.550  1.00  0.00    -0.366 N 
HETATM   19  H12 UNL     1      23.784   3.137  52.528  1.00  0.00     0.161 HD
BRANCH  18  20
HETATM   20  C12 UNL     1      23.280   1.618  51.214  1.00  0.00     0.112 C 
HETATM   21  C13 UNL     1      22.365   1.676  50.033  1.00  0.00     0.037 C 
BRANCH  20  22
HETATM   22  C14 UNL     1      22.617   0.949  52.376  1.00  0.00    -0.036 A 
HETATM   23  C15 UNL     1      21.389   1.256  52.767  1.00  0.00     0.009 A 
HETATM   24  C16 UNL     1      20.567   0.751  53.841  1.00  0.00    -0.003 A 
HETATM   25  C17 UNL     1      20.963  -0.198  54.654  1.00  0.00    -0.023 A 
HETATM   26  C18 UNL     1      22.124  -1.070  54.908  1.00  0.00     0.054 A 
HETATM   27  C19 UNL     1      23.249  -0.835  53.972  1.00  0.00    -0.022 A 
HETATM   28  C20 UNL     1      23.517  -0.050  52.942  1.00  0.00     0.005 A 
ENDBRANCH  20  22
ENDBRANCH  18  20
ENDBRANCH   6  18
TORSDOF 7
ENDMDL
MODEL 6
REMARK VINA RESULT:      -7.7      1.698      5.095
REMARK  7 active torsions:
REMARK  status: ('A' for Active; 'I' for Inactive)
REMARK    1  A    between atoms: C6_6  and  N1_7 
REMARK    2  A    between atoms: C6_6  and  N2_8 
REMARK    3  A    between atoms: N2_8  and  C7_9 
REMARK    4  A    between atoms: C7_9  and  C8_10 
REMARK    5  A    between atoms: C11_15  and  N5_16 
REMARK    6  A    between atoms: N5_16  and  C12_17 
REMARK    7  A    between atoms: C12_17  and  C14_19 
ROOT
HETATM    1  C8  UNL     1      26.047   1.474  52.731  1.00  0.00     0.044 A 
HETATM    2  C9  UNL     1      27.287   1.869  53.179  1.00  0.00     0.134 A 
HETATM    3  N3  UNL     1      27.721   1.281  54.330  1.00  0.00    -0.253 NA
HETATM    4  C10 UNL     1      26.886   0.373  54.913  1.00  0.00     0.234 A 
HETATM    5  N4  UNL     1      25.680   0.007  54.451  1.00  0.00    -0.224 NA
HETATM    6  C11 UNL     1      25.210   0.557  53.322  1.00  0.00     0.138 A 
ENDROOT
BRANCH   1   7
HETATM    7  C7  UNL     1      25.628   2.124  51.505  1.00  0.00     0.295 C 
BRANCH   7   8
HETATM    8  N2  UNL     1      25.217   2.783  50.533  1.00  0.00    -0.380 NA
BRANCH   8   9
HETATM    9  C6  UNL     1      24.637   4.070  50.436  1.00  0.00     0.261 A 
HETATM   10  C2  UNL     1      23.600   4.324  51.495  1.00  0.00    -0.023 A 
HETATM   11  C1  UNL     1      23.660   4.264  52.999  1.00  0.00     0.048 C 
HETATM   12  C3  UNL     1      22.446   4.657  50.936  1.00  0.00     0.007 A 
HETATM   13  C4  UNL     1      22.582   4.661  49.483  1.00  0.00     0.001 A 
HETATM   14  C5  UNL     1      23.836   4.325  49.213  1.00  0.00     0.040 A 
BRANCH   9  15
HETATM   15  N1  UNL     1      25.599   5.154  50.521  1.00  0.00     0.115 N 
HETATM   16  H7  UNL     1      26.469   4.843  50.056  1.00  0.00     0.316 HD
HETATM   17  H8  UNL     1      25.277   6.005  50.052  1.00  0.00     0.316 HD
ENDBRANCH   9  15
ENDBRANCH   8   9
ENDBRANCH   7   8
ENDBRANCH   1   7
BRANCH   6  18
HETATM   18  N5  UNL     1      23.948   0.199  52.790  1.00  0.00    -0.366 N 
HETATM   19  H12 UNL     1      23.841  -0.387  51.948  1.00  0.00     0.161 HD
BRANCH  18  20
HETATM   20  C12 UNL     1      22.705   0.610  53.364  1.00  0.00     0.112 C 
HETATM   21  C13 UNL     1      22.066  -0.374  54.289  1.00  0.00     0.037 C 
BRANCH  20  22
HETATM   22  C14 UNL     1      21.720   1.125  52.362  1.00  0.00    -0.036 A 
HETATM   23  C15 UNL     1      20.637   1.802  52.714  1.00  0.00     0.009 A 
HETATM   24  C16 UNL     1      19.569   2.380  51.933  1.00  0.00    -0.003 A 
HETATM   25  C17 UNL     1      19.534   2.324  50.624  1.00  0.00    -0.023 A 
HETATM   26  C18 UNL     1      20.309   1.801  49.485  1.00  0.00     0.054 A 
HETATM   27  C19 UNL     1      21.541   1.086  49.893  1.00  0.00    -0.022 A 
HETATM   28  C20 UNL     1      22.166   0.777  51.017  1.00  0.00     0.005 A 
ENDBRANCH  20  22
ENDBRANCH  18  20
ENDBRANCH   6  18
TORSDOF 7
ENDMDL
MODEL 7
REMARK VINA RESULT:      -7.6      1.788      2.954
REMARK  7 active torsions:
REMARK  status: ('A' for Active; 'I' for Inactive)
REMARK    1  A    between atoms: C6_6  and  N1_7 
REMARK    2  A    between atoms: C6_6  and  N2_8 
REMARK    3  A    between atoms: N2_8  and  C7_9 
REMARK    4  A    between atoms: C7_9  and  C8_10 
REMARK    5  A    between atoms: C11_15  and  N5_16 
REMARK    6  A    between atoms: N5_16  and  C12_17 
REMARK    7  A    between atoms: C12_17  and  C14_19 
ROOT
HETATM    1  C8  UNL     1      26.136   4.180  49.933  1.00  0.00     0.044 A 
HETATM    2  C9  UNL     1      27.173   4.444  49.067  1.00  0.00     0.134 A 
HETATM    3  N3  UNL     1      27.146   5.663  48.456  1.00  0.00    -0.253 NA
HETATM    4  C10 UNL     1      26.102   6.485  48.765  1.00  0.00     0.234 A 
HETATM    5  N4  UNL     1      25.104   6.200  49.615  1.00  0.00    -0.224 NA
HETATM    6  C11 UNL     1      25.087   5.014  50.240  1.00  0.00     0.138 A 
ENDROOT
BRANCH   1   7
HETATM    7  C7  UNL     1      26.206   2.875  50.557  1.00  0.00     0.295 C 
BRANCH   7   8
HETATM    8  N2  UNL     1      26.281   1.821  51.215  1.00  0.00    -0.380 NA
BRANCH   8   9
HETATM    9  C6  UNL     1      25.931   1.507  52.549  1.00  0.00     0.261 A 
HETATM   10  C2  UNL     1      26.285   0.096  52.929  1.00  0.00    -0.023 A 
HETATM   11  C1  UNL     1      27.590  -0.658  52.900  1.00  0.00     0.048 C 
HETATM   12  C3  UNL     1      25.210  -0.547  53.358  1.00  0.00     0.007 A 
HETATM   13  C4  UNL     1      24.052   0.339  53.314  1.00  0.00     0.001 A 
HETATM   14  C5  UNL     1      24.478   1.507  52.851  1.00  0.00     0.040 A 
BRANCH   9  15
HETATM   15  N1  UNL     1      26.547   2.375  53.536  1.00  0.00     0.115 N 
HETATM   16  H7  UNL     1      27.563   2.404  53.342  1.00  0.00     0.316 HD
HETATM   17  H8  UNL     1      26.190   3.334  53.496  1.00  0.00     0.316 HD
ENDBRANCH   9  15
ENDBRANCH   8   9
ENDBRANCH   7   8
ENDBRANCH   1   7
BRANCH   6  18
HETATM   18  N5  UNL     1      24.061   4.669  51.152  1.00  0.00    -0.366 N 
HETATM   19  H12 UNL     1      24.245   4.422  52.136  1.00  0.00     0.161 HD
BRANCH  18  20
HETATM   20  C12 UNL     1      22.675   4.631  50.802  1.00  0.00     0.112 C 
HETATM   21  C13 UNL     1      21.824   5.690  51.425  1.00  0.00     0.037 C 
BRANCH  20  22
HETATM   22  C14 UNL     1      22.051   3.280  50.957  1.00  0.00    -0.036 A 
HETATM   23  C15 UNL     1      22.259   2.298  50.093  1.00  0.00     0.009 A 
HETATM   24  C16 UNL     1      21.768   0.941  50.043  1.00  0.00    -0.003 A 
HETATM   25  C17 UNL     1      20.978   0.436  50.960  1.00  0.00    -0.023 A 
HETATM   26  C18 UNL     1      20.305   0.811  52.216  1.00  0.00     0.054 A 
HETATM   27  C19 UNL     1      20.561   2.213  52.622  1.00  0.00    -0.022 A 
HETATM   28  C20 UNL     1      21.244   3.253  52.172  1.00  0.00     0.005 A 
ENDBRANCH  20  22
ENDBRANCH  18  20
ENDBRANCH   6  18
TORSDOF 7
ENDMDL
MODEL 8
REMARK VINA RESULT:      -7.6      1.249      2.132
REMARK  7 active torsions:
REMARK  status: ('A' for Active; 'I' for Inactive)
REMARK    1  A    between atoms: C6_6  and  N1_7 
REMARK    2  A    between atoms: C6_6  and  N2_8 
REMARK    3  A    between atoms: N2_8  and  C7_9 
REMARK    4  A    between atoms: C7_9  and  C8_10 
REMARK    5  A    between atoms: C11_15  and  N5_16 
REMARK    6  A    between atoms: N5_16  and  C12_17 
REMARK    7  A    between atoms: C12_17  and  C14_19 
ROOT
HETATM    1  C8  UNL     1      24.422   2.330  51.697  1.00  0.00     0.044 A 
HETATM    2  C9  UNL     1      24.988   3.461  51.154  1.00  0.00     0.134 A 
HETATM    3  N3  UNL     1      24.341   3.997  50.080  1.00  0.00    -0.253 NA
HETATM    4  C10 UNL     1      23.209   3.360  49.660  1.00  0.00     0.234 A 
HETATM    5  N4  UNL     1      22.680   2.257  50.211  1.00  0.00    -0.224 NA
HETATM    6  C11 UNL     1      23.281   1.693  51.269  1.00  0.00     0.138 A 
ENDROOT
BRANCH   1   7
HETATM    7  C7  UNL     1      25.143   1.797  52.835  1.00  0.00     0.295 C 
BRANCH   7   8
HETATM    8  N2  UNL     1      25.642   1.282  53.852  1.00  0.00    -0.380 NA
BRANCH   8   9
HETATM    9  C6  UNL     1      26.167  -0.008  54.103  1.00  0.00     0.261 A 
HETATM   10  C2  UNL     1      27.662  -0.069  53.952  1.00  0.00    -0.023 A 
HETATM   11  C1  UNL     1      28.773   0.712  54.605  1.00  0.00     0.048 C 
HETATM   12  C3  UNL     1      27.995  -0.998  53.069  1.00  0.00     0.007 A 
HETATM   13  C4  UNL     1      26.794  -1.642  52.548  1.00  0.00     0.001 A 
HETATM   14  C5  UNL     1      25.759  -1.067  53.147  1.00  0.00     0.040 A 
BRANCH   9  15
HETATM   15  N1  UNL     1      25.857  -0.518  55.426  1.00  0.00     0.115 N 
HETATM   16  H7  UNL     1      25.516  -1.489  55.320  1.00  0.00     0.316 HD
HETATM   17  H8  UNL     1      26.674  -0.536  56.043  1.00  0.00     0.316 HD
ENDBRANCH   9  15
ENDBRANCH   8   9
ENDBRANCH   7   8
ENDBRANCH   1   7
BRANCH   6  18
HETATM   18  N5  UNL     1      22.757   0.535  51.892  1.00  0.00    -0.366 N 
HETATM   19  H12 UNL     1      23.030  -0.421  51.617  1.00  0.00     0.161 HD
BRANCH  18  20
HETATM   20  C12 UNL     1      21.803   0.574  52.956  1.00  0.00     0.112 C 
HETATM   21  C13 UNL     1      22.203  -0.141  54.205  1.00  0.00     0.037 C 
BRANCH  20  22
HETATM   22  C14 UNL     1      20.418   0.194  52.538  1.00  0.00    -0.036 A 
HETATM   23  C15 UNL     1      19.861   0.647  51.425  1.00  0.00     0.009 A 
HETATM   24  C16 UNL     1      18.562   0.419  50.837  1.00  0.00    -0.003 A 
HETATM   25  C17 UNL     1      17.665  -0.370  51.377  1.00  0.00    -0.023 A 
HETATM   26  C18 UNL     1      17.474  -1.243  52.549  1.00  0.00     0.054 A 
HETATM   27  C19 UNL     1      18.645  -1.269  53.458  1.00  0.00    -0.022 A 
HETATM   28  C20 UNL     1      19.848  -0.725  53.519  1.00  0.00     0.005 A 
ENDBRANCH  20  22
ENDBRANCH  18  20
ENDBRANCH   6  18
TORSDOF 7
ENDMDL
MODEL 9
REMARK VINA RESULT:      -7.6      1.800      6.659
REMARK  7 active torsions:
REMARK  status: ('A' for Active; 'I' for Inactive)
REMARK    1  A    between atoms: C6_6  and  N1_7 
REMARK    2  A    between atoms: C6_6  and  N2_8 
REMARK    3  A    between atoms: N2_8  and  C7_9 
REMARK    4  A    between atoms: C7_9  and  C8_10 
REMARK    5  A    between atoms: C11_15  and  N5_16 
REMARK    6  A    between atoms: N5_16  and  C12_17 
REMARK    7  A    between atoms: C12_17  and  C14_19 
ROOT
HETATM    1  C8  UNL     1      22.115   0.423  52.539  1.00  0.00     0.044 A 
HETATM    2  C9  UNL     1      20.783   0.305  52.862  1.00  0.00     0.134 A 
HETATM    3  N3  UNL     1      20.497  -0.470  53.947  1.00  0.00    -0.253 NA
HETATM    4  C10 UNL     1      21.554  -1.043  54.592  1.00  0.00     0.234 A 
HETATM    5  N4  UNL     1      22.845  -0.910  54.254  1.00  0.00    -0.224 NA
HETATM    6  C11 UNL     1      23.176  -0.157  53.194  1.00  0.00     0.138 A 
ENDROOT
BRANCH   1   7
HETATM    7  C7  UNL     1      22.371   1.255  51.381  1.00  0.00     0.295 C 
BRANCH   7   8
HETATM    8  N2  UNL     1      22.521   1.875  50.312  1.00  0.00    -0.380 NA
BRANCH   8   9
HETATM    9  C6  UNL     1      22.697   3.249  50.029  1.00  0.00     0.261 A 
HETATM   10  C2  UNL     1      24.101   3.723  50.287  1.00  0.00    -0.023 A 
HETATM   11  C1  UNL     1      25.434   3.256  49.763  1.00  0.00     0.048 C 
HETATM   12  C3  UNL     1      24.093   4.737  51.138  1.00  0.00     0.007 A 
HETATM   13  C4  UNL     1      22.721   5.044  51.532  1.00  0.00     0.001 A 
HETATM   14  C5  UNL     1      21.937   4.188  50.891  1.00  0.00     0.040 A 
BRANCH   9  15
HETATM   15  N1  UNL     1      22.377   3.610  48.660  1.00  0.00     0.115 N 
HETATM   16  H7  UNL     1      21.381   3.385  48.497  1.00  0.00     0.316 HD
HETATM   17  H8  UNL     1      22.510   4.608  48.474  1.00  0.00     0.316 HD
ENDBRANCH   9  15
ENDBRANCH   8   9
ENDBRANCH   7   8
ENDBRANCH   1   7
BRANCH   6  18
HETATM   18  N5  UNL     1      24.525   0.022  52.802  1.00  0.00    -0.366 N 
HETATM   19  H12 UNL     1      24.887  -0.280  51.885  1.00  0.00     0.161 HD
BRANCH  18  20
HETATM   20  C12 UNL     1      25.513   0.636  53.634  1.00  0.00     0.112 C 
HETATM   21  C13 UNL     1      25.662   2.114  53.472  1.00  0.00     0.037 C 
BRANCH  20  22
HETATM   22  C14 UNL     1      26.843  -0.047  53.593  1.00  0.00    -0.036 A 
HETATM   23  C15 UNL     1      27.942   0.508  54.084  1.00  0.00     0.009 A 
HETATM   24  C16 UNL     1      29.307   0.043  54.150  1.00  0.00    -0.003 A 
HETATM   25  C17 UNL     1      29.681  -1.130  53.700  1.00  0.00    -0.023 A 
HETATM   26  C18 UNL     1      29.127  -2.331  53.050  1.00  0.00     0.054 A 
HETATM   27  C19 UNL     1      27.672  -2.234  52.783  1.00  0.00    -0.022 A 
HETATM   28  C20 UNL     1      26.699  -1.358  52.970  1.00  0.00     0.005 A 
ENDBRANCH  20  22
ENDBRANCH  18  20
ENDBRANCH   6  18
TORSDOF 7
ENDMDL
