MODEL 1
REMARK VINA RESULT:     -10.0      0.000      0.000
REMARK  4 active torsions:
REMARK  status: ('A' for Active; 'I' for Inactive)
REMARK    1  A    between atoms: C5_6  and  C6_7 
REMARK    2  A    between atoms: C6_7  and  O1_8 
REMARK    3  A    between atoms: O1_8  and  C7_9 
REMARK    4  A    between atoms: C8_10  and  C9_11 
ROOT
HETATM    1  C9  UNL     1      21.394   5.786  50.646  1.00  0.00     0.050 C 
HETATM    2  C10 UNL     1      21.681   4.837  51.521  1.00  0.00     0.102 C 
HETATM    3  N1  UNL     1      22.506   5.041  52.654  1.00  0.00    -0.336 N 
HETATM    4  C11 UNL     1      23.756   4.460  53.040  1.00  0.00     0.230 C 
HETATM    5  N2  UNL     1      24.351   3.873  52.046  1.00  0.00    -0.168 NA
HETATM    6  N3  UNL     1      25.598   3.234  52.204  1.00  0.00    -0.260 N 
HETATM    7  C12 UNL     1      25.504   1.823  52.441  1.00  0.00     0.148 A 
HETATM    8  C13 UNL     1      24.471   1.319  53.203  1.00  0.00     0.102 A 
HETATM    9  C14 UNL     1      24.376  -0.037  53.432  1.00  0.00     0.132 A 
HETATM   10  N4  UNL     1      25.290  -0.884  52.915  1.00  0.00    -0.224 NA
HETATM   11  C15 UNL     1      26.289  -0.372  52.174  1.00  0.00     0.237 A 
HETATM   12  N5  UNL     1      26.401   0.956  51.937  1.00  0.00    -0.223 NA
HETATM   13  N6  UNL     1      23.314  -0.565  54.216  1.00  0.00    -0.344 N 
HETATM   14  C16 UNL     1      21.876  -0.495  54.240  1.00  0.00     0.015 C 
HETATM   15  C17 UNL     1      21.226  -1.668  54.155  1.00  0.00     0.025 C 
HETATM   16  C18 UNL     1      19.797  -1.667  53.689  1.00  0.00     0.204 C 
HETATM   17  O2  UNL     1      19.611  -0.566  52.786  1.00  0.00    -0.352 OA
HETATM   18  C19 UNL     1      20.152   0.694  53.115  1.00  0.00     0.050 C 
HETATM   19  C20 UNL     1      19.902   1.745  52.353  1.00  0.00     0.025 C 
HETATM   20  C21 UNL     1      20.386   3.125  52.555  1.00  0.00     0.151 C 
HETATM   21  N7  UNL     1      21.176   3.516  51.392  1.00  0.00    -0.373 N 
HETATM   22  C22 UNL     1      20.987   0.705  54.347  1.00  0.00     0.121 C 
HETATM   23  H9  UNL     1      21.926   5.759  53.145  1.00  0.00     0.168 HD
HETATM   24  H11 UNL     1      26.565   3.624  52.176  1.00  0.00     0.191 HD
HETATM   25  H14 UNL     1      23.618  -1.179  55.003  1.00  0.00     0.167 HD
HETATM   26  H21 UNL     1      21.490   3.118  50.480  1.00  0.00     0.161 HD
ENDROOT
BRANCH   1  27
HETATM   27  C8  UNL     1      21.940   7.124  50.826  1.00  0.00     0.028 C 
HETATM   28  C7  UNL     1      22.941   7.566  50.087  1.00  0.00     0.135 C 
BRANCH  28  29
HETATM   29  O1  UNL     1      23.575   6.866  49.101  1.00  0.00    -0.359 OA
BRANCH  29  30
HETATM   30  C6  UNL     1      24.573   7.365  48.257  1.00  0.00     0.213 C 
BRANCH  30  31
HETATM   31  C5  UNL     1      25.813   6.569  48.369  1.00  0.00    -0.031 A 
HETATM   32  C4  UNL     1      27.038   7.115  47.985  1.00  0.00     0.009 A 
HETATM   33  C3  UNL     1      28.191   6.401  48.080  1.00  0.00     0.004 A 
HETATM   34  C2  UNL     1      28.232   5.100  48.558  1.00  0.00     0.042 A 
HETATM   35  C1  UNL     1      27.024   4.557  48.939  1.00  0.00     0.117 A 
HETATM   36  F1  UNL     1      27.075   3.286  49.404  1.00  0.00    -0.206 F 
HETATM   37  C23 UNL     1      25.854   5.275  48.845  1.00  0.00     0.051 A 
ENDBRANCH  30  31
ENDBRANCH  29  30
ENDBRANCH  28  29
ENDBRANCH   1  27
TORSDOF 4
ENDMDL
MODEL 2
REMARK VINA RESULT:      -9.4      1.927      3.837
REMARK  4 active torsions:
REMARK  status: ('A' for Active; 'I' for Inactive)
REMARK    1  A    between atoms: C5_6  and  C6_7 
REMARK    2  A    between atoms: C6_7  and  O1_8 
REMARK    3  A    between atoms: O1_8  and  C7_9 
REMARK    4  A    between atoms: C8_10  and  C9_11 
ROOT
HETATM    1  C9  UNL     1      21.755   5.864  51.191  1.00  0.00     0.050 C 
HETATM    2  C10 UNL     1      22.190   4.617  51.265  1.00  0.00     0.102 C 
HETATM    3  N1  UNL     1      21.959   3.646  50.260  1.00  0.00    -0.336 N 
HETATM    4  C11 UNL     1      21.254   2.400  50.284  1.00  0.00     0.230 C 
HETATM    5  N2  UNL     1      20.466   2.302  51.312  1.00  0.00    -0.168 NA
HETATM    6  N3  UNL     1      19.675   1.155  51.530  1.00  0.00    -0.260 N 
HETATM    7  C12 UNL     1      20.269   0.197  52.416  1.00  0.00     0.148 A 
HETATM    8  C13 UNL     1      21.633  -0.010  52.393  1.00  0.00     0.102 A 
HETATM    9  C14 UNL     1      22.209  -0.929  53.243  1.00  0.00     0.132 A 
HETATM   10  N4  UNL     1      21.449  -1.634  54.106  1.00  0.00    -0.224 NA
HETATM   11  C15 UNL     1      20.121  -1.416  54.112  1.00  0.00     0.237 A 
HETATM   12  N5  UNL     1      19.534  -0.519  53.286  1.00  0.00    -0.223 NA
HETATM   13  N6  UNL     1      23.614  -1.147  53.227  1.00  0.00    -0.344 N 
HETATM   14  C16 UNL     1      24.813  -0.357  53.326  1.00  0.00     0.015 C 
HETATM   15  C17 UNL     1      25.658  -0.686  54.318  1.00  0.00     0.025 C 
HETATM   16  C18 UNL     1      26.644   0.344  54.794  1.00  0.00     0.204 C 
HETATM   17  O2  UNL     1      26.067   1.647  54.615  1.00  0.00    -0.352 OA
HETATM   18  C19 UNL     1      25.402   1.945  53.408  1.00  0.00     0.050 C 
HETATM   19  C20 UNL     1      24.958   3.169  53.178  1.00  0.00     0.025 C 
HETATM   20  C21 UNL     1      24.246   3.646  51.976  1.00  0.00     0.151 C 
HETATM   21  N7  UNL     1      22.936   4.146  52.378  1.00  0.00    -0.373 N 
HETATM   22  C22 UNL     1      25.263   0.792  52.478  1.00  0.00     0.121 C 
HETATM   23  H9  UNL     1      22.465   4.110  49.472  1.00  0.00     0.168 HD
HETATM   24  H11 UNL     1      18.738   0.899  51.152  1.00  0.00     0.191 HD
HETATM   25  H14 UNL     1      23.897  -2.146  53.115  1.00  0.00     0.167 HD
HETATM   26  H21 UNL     1      22.367   4.265  53.245  1.00  0.00     0.161 HD
ENDROOT
BRANCH   1  27
HETATM   27  C8  UNL     1      20.994   6.294  50.026  1.00  0.00     0.028 C 
HETATM   28  C7  UNL     1      21.554   6.397  48.835  1.00  0.00     0.135 C 
BRANCH  28  29
HETATM   29  O1  UNL     1      22.860   6.128  48.541  1.00  0.00    -0.359 OA
BRANCH  29  30
HETATM   30  C6  UNL     1      23.917   7.042  48.604  1.00  0.00     0.213 C 
BRANCH  30  31
HETATM   31  C5  UNL     1      25.222   6.349  48.628  1.00  0.00    -0.031 A 
HETATM   32  C4  UNL     1      26.371   6.994  48.171  1.00  0.00     0.009 A 
HETATM   33  C3  UNL     1      27.582   6.375  48.185  1.00  0.00     0.004 A 
HETATM   34  C2  UNL     1      27.759   5.080  48.646  1.00  0.00     0.042 A 
HETATM   35  C1  UNL     1      26.626   4.439  49.099  1.00  0.00     0.117 A 
HETATM   36  F1  UNL     1      26.808   3.174  49.548  1.00  0.00    -0.206 F 
HETATM   37  C23 UNL     1      25.398   5.060  49.087  1.00  0.00     0.051 A 
ENDBRANCH  30  31
ENDBRANCH  29  30
ENDBRANCH  28  29
ENDBRANCH   1  27
TORSDOF 4
ENDMDL
MODEL 3
REMARK VINA RESULT:      -9.4      2.451      4.384
REMARK  4 active torsions:
REMARK  status: ('A' for Active; 'I' for Inactive)
REMARK    1  A    between atoms: C5_6  and  C6_7 
REMARK    2  A    between atoms: C6_7  and  O1_8 
REMARK    3  A    between atoms: O1_8  and  C7_9 
REMARK    4  A    between atoms: C8_10  and  C9_11 
ROOT
HETATM    1  C9  UNL     1      23.788   5.715  50.237  1.00  0.00     0.050 C 
HETATM    2  C10 UNL     1      23.988   4.427  50.466  1.00  0.00     0.102 C 
HETATM    3  N1  UNL     1      23.302   3.395  49.781  1.00  0.00    -0.336 N 
HETATM    4  C11 UNL     1      22.417   2.370  50.243  1.00  0.00     0.230 C 
HETATM    5  N2  UNL     1      21.954   2.620  51.430  1.00  0.00    -0.168 NA
HETATM    6  N3  UNL     1      21.062   1.740  52.077  1.00  0.00    -0.260 N 
HETATM    7  C12 UNL     1      21.698   0.818  52.972  1.00  0.00     0.148 A 
HETATM    8  C13 UNL     1      22.935   0.295  52.657  1.00  0.00     0.102 A 
HETATM    9  C14 UNL     1      23.551  -0.591  53.514  1.00  0.00     0.132 A 
HETATM   10  N4  UNL     1      22.954  -0.955  54.668  1.00  0.00    -0.224 NA
HETATM   11  C15 UNL     1      21.748  -0.432  54.956  1.00  0.00     0.237 A 
HETATM   12  N5  UNL     1      21.125   0.439  54.128  1.00  0.00    -0.223 NA
HETATM   13  N6  UNL     1      24.826  -1.135  53.198  1.00  0.00    -0.344 N 
HETATM   14  C16 UNL     1      26.127  -0.643  52.826  1.00  0.00     0.015 C 
HETATM   15  C17 UNL     1      27.145  -1.005  53.625  1.00  0.00     0.025 C 
HETATM   16  C18 UNL     1      28.399  -0.176  53.612  1.00  0.00     0.204 C 
HETATM   17  O2  UNL     1      28.046   1.182  53.307  1.00  0.00    -0.352 OA
HETATM   18  C19 UNL     1      27.129   1.438  52.268  1.00  0.00     0.050 C 
HETATM   19  C20 UNL     1      26.872   2.682  51.899  1.00  0.00     0.025 C 
HETATM   20  C21 UNL     1      25.945   3.121  50.837  1.00  0.00     0.151 C 
HETATM   21  N7  UNL     1      24.922   3.972  51.434  1.00  0.00    -0.373 N 
HETATM   22  C22 UNL     1      26.519   0.221  51.668  1.00  0.00     0.121 C 
HETATM   23  H9  UNL     1      23.637   3.598  48.812  1.00  0.00     0.168 HD
HETATM   24  H11 UNL     1      20.024   1.657  52.006  1.00  0.00     0.191 HD
HETATM   25  H14 UNL     1      24.875  -2.177  53.235  1.00  0.00     0.167 HD
HETATM   26  H21 UNL     1      24.659   4.354  52.368  1.00  0.00     0.161 HD
ENDROOT
BRANCH   1  27
HETATM   27  C8  UNL     1      22.817   6.127  49.233  1.00  0.00     0.028 C 
HETATM   28  C7  UNL     1      23.195   6.537  48.036  1.00  0.00     0.135 C 
BRANCH  28  29
HETATM   29  O1  UNL     1      24.483   6.627  47.593  1.00  0.00    -0.359 OA
BRANCH  29  30
HETATM   30  C6  UNL     1      25.442   7.539  48.046  1.00  0.00     0.213 C 
BRANCH  30  31
HETATM   31  C5  UNL     1      26.794   6.943  48.034  1.00  0.00    -0.031 A 
HETATM   32  C4  UNL     1      27.012   5.680  48.583  1.00  0.00     0.009 A 
HETATM   33  C3  UNL     1      28.248   5.112  48.582  1.00  0.00     0.004 A 
HETATM   34  C2  UNL     1      29.361   5.738  48.043  1.00  0.00     0.042 A 
HETATM   35  C1  UNL     1      29.150   6.986  47.499  1.00  0.00     0.117 A 
HETATM   36  F1  UNL     1      30.244   7.589  46.976  1.00  0.00    -0.206 F 
HETATM   37  C23 UNL     1      27.902   7.566  47.498  1.00  0.00     0.051 A 
ENDBRANCH  30  31
ENDBRANCH  29  30
ENDBRANCH  28  29
ENDBRANCH   1  27
TORSDOF 4
ENDMDL
MODEL 4
REMARK VINA RESULT:      -9.3      2.863      8.072
REMARK  4 active torsions:
REMARK  status: ('A' for Active; 'I' for Inactive)
REMARK    1  A    between atoms: C5_6  and  C6_7 
REMARK    2  A    between atoms: C6_7  and  O1_8 
REMARK    3  A    between atoms: O1_8  and  C7_9 
REMARK    4  A    between atoms: C8_10  and  C9_11 
ROOT
HETATM    1  C9  UNL     1      26.298   2.116  52.699  1.00  0.00     0.050 C 
HETATM    2  C10 UNL     1      25.777   2.817  51.706  1.00  0.00     0.102 C 
HETATM    3  N1  UNL     1      26.019   2.535  50.339  1.00  0.00    -0.336 N 
HETATM    4  C11 UNL     1      26.636   3.306  49.303  1.00  0.00     0.230 C 
HETATM    5  N2  UNL     1      27.336   4.292  49.775  1.00  0.00    -0.168 NA
HETATM    6  N3  UNL     1      28.031   5.179  48.927  1.00  0.00    -0.260 N 
HETATM    7  C12 UNL     1      27.310   6.381  48.624  1.00  0.00     0.148 A 
HETATM    8  C13 UNL     1      25.941   6.340  48.458  1.00  0.00     0.102 A 
HETATM    9  C14 UNL     1      25.244   7.492  48.167  1.00  0.00     0.132 A 
HETATM   10  N4  UNL     1      25.889   8.670  48.043  1.00  0.00    -0.224 NA
HETATM   11  C15 UNL     1      27.224   8.688  48.209  1.00  0.00     0.237 A 
HETATM   12  N5  UNL     1      27.929   7.568  48.495  1.00  0.00    -0.223 NA
HETATM   13  N6  UNL     1      23.833   7.460  47.996  1.00  0.00    -0.344 N 
HETATM   14  C16 UNL     1      22.685   6.991  48.727  1.00  0.00     0.015 C 
HETATM   15  C17 UNL     1      21.748   7.912  49.010  1.00  0.00     0.025 C 
HETATM   16  C18 UNL     1      20.799   7.647  50.146  1.00  0.00     0.204 C 
HETATM   17  O2  UNL     1      21.473   6.842  51.127  1.00  0.00    -0.352 OA
HETATM   18  C19 UNL     1      22.245   5.742  50.702  1.00  0.00     0.050 C 
HETATM   19  C20 UNL     1      22.784   4.925  51.590  1.00  0.00     0.025 C 
HETATM   20  C21 UNL     1      23.614   3.736  51.316  1.00  0.00     0.151 C 
HETATM   21  N7  UNL     1      24.921   3.926  51.936  1.00  0.00    -0.373 N 
HETATM   22  C22 UNL     1      22.376   5.613  49.225  1.00  0.00     0.121 C 
HETATM   23  H9  UNL     1      25.605   1.576  50.299  1.00  0.00     0.168 HD
HETATM   24  H11 UNL     1      28.975   5.097  48.492  1.00  0.00     0.191 HD
HETATM   25  H14 UNL     1      23.494   7.884  47.105  1.00  0.00     0.167 HD
HETATM   26  H21 UNL     1      25.430   4.637  52.505  1.00  0.00     0.161 HD
ENDROOT
BRANCH   1  27
HETATM   27  C8  UNL     1      27.172   0.987  52.407  1.00  0.00     0.028 C 
HETATM   28  C7  UNL     1      26.725  -0.255  52.434  1.00  0.00     0.135 C 
BRANCH  28  29
HETATM   29  O1  UNL     1      25.447  -0.638  52.725  1.00  0.00    -0.359 OA
BRANCH  29  30
HETATM   30  C6  UNL     1      24.887  -0.711  54.005  1.00  0.00     0.213 C 
BRANCH  30  31
HETATM   31  C5  UNL     1      23.444  -0.395  53.975  1.00  0.00    -0.031 A 
HETATM   32  C4  UNL     1      22.539  -1.165  54.705  1.00  0.00     0.009 A 
HETATM   33  C3  UNL     1      21.207  -0.892  54.692  1.00  0.00     0.004 A 
HETATM   34  C2  UNL     1      20.661   0.154  53.964  1.00  0.00     0.042 A 
HETATM   35  C1  UNL     1      21.553   0.918  53.241  1.00  0.00     0.117 A 
HETATM   36  F1  UNL     1      21.010   1.937  52.533  1.00  0.00    -0.206 F 
HETATM   37  C23 UNL     1      22.901   0.646  53.251  1.00  0.00     0.051 A 
ENDBRANCH  30  31
ENDBRANCH  29  30
ENDBRANCH  28  29
ENDBRANCH   1  27
TORSDOF 4
ENDMDL
MODEL 5
REMARK VINA RESULT:      -9.0      2.838      8.316
REMARK  4 active torsions:
REMARK  status: ('A' for Active; 'I' for Inactive)
REMARK    1  A    between atoms: C5_6  and  C6_7 
REMARK    2  A    between atoms: C6_7  and  O1_8 
REMARK    3  A    between atoms: O1_8  and  C7_9 
REMARK    4  A    between atoms: C8_10  and  C9_11 
ROOT
HETATM    1  C9  UNL     1      23.577   1.485  51.215  1.00  0.00     0.050 C 
HETATM    2  C10 UNL     1      23.698   2.801  51.160  1.00  0.00     0.102 C 
HETATM    3  N1  UNL     1      23.199   3.675  52.156  1.00  0.00    -0.336 N 
HETATM    4  C11 UNL     1      22.214   4.712  52.106  1.00  0.00     0.230 C 
HETATM    5  N2  UNL     1      21.466   4.628  51.048  1.00  0.00    -0.168 NA
HETATM    6  N3  UNL     1      20.429   5.551  50.800  1.00  0.00    -0.260 N 
HETATM    7  C12 UNL     1      20.806   6.635  49.940  1.00  0.00     0.148 A 
HETATM    8  C13 UNL     1      22.077   7.166  50.018  1.00  0.00     0.102 A 
HETATM    9  C14 UNL     1      22.444   8.207  49.193  1.00  0.00     0.132 A 
HETATM   10  N4  UNL     1      21.569   8.716  48.302  1.00  0.00    -0.224 NA
HETATM   11  C15 UNL     1      20.335   8.183  48.242  1.00  0.00     0.237 A 
HETATM   12  N5  UNL     1      19.953   7.160  49.042  1.00  0.00    -0.223 NA
HETATM   13  N6  UNL     1      23.752   8.760  49.266  1.00  0.00    -0.344 N 
HETATM   14  C16 UNL     1      25.110   8.286  49.215  1.00  0.00     0.015 C 
HETATM   15  C17 UNL     1      25.887   8.822  48.258  1.00  0.00     0.025 C 
HETATM   16  C18 UNL     1      27.112   8.068  47.820  1.00  0.00     0.204 C 
HETATM   17  O2  UNL     1      26.863   6.662  47.974  1.00  0.00    -0.352 OA
HETATM   18  C19 UNL     1      26.244   6.197  49.152  1.00  0.00     0.050 C 
HETATM   19  C20 UNL     1      26.103   4.900  49.362  1.00  0.00     0.025 C 
HETATM   20  C21 UNL     1      25.482   4.251  50.534  1.00  0.00     0.151 C 
HETATM   21  N7  UNL     1      24.349   3.452  50.079  1.00  0.00    -0.373 N 
HETATM   22  C22 UNL     1      25.793   7.271  50.078  1.00  0.00     0.121 C 
HETATM   23  H9  UNL     1      23.772   3.339  52.963  1.00  0.00     0.168 HD
HETATM   24  H11 UNL     1      19.443   5.567  51.140  1.00  0.00     0.191 HD
HETATM   25  H14 UNL     1      23.779   9.796  49.391  1.00  0.00     0.167 HD
HETATM   26  H21 UNL     1      23.861   3.208  49.190  1.00  0.00     0.161 HD
ENDROOT
BRANCH   1  27
HETATM   27  C8  UNL     1      22.899   0.869  52.347  1.00  0.00     0.028 C 
HETATM   28  C7  UNL     1      23.574   0.344  53.353  1.00  0.00     0.135 C 
BRANCH  28  29
HETATM   29  O1  UNL     1      24.934   0.307  53.469  1.00  0.00    -0.359 OA
BRANCH  29  30
HETATM   30  C6  UNL     1      25.748  -0.796  53.188  1.00  0.00     0.213 C 
BRANCH  30  31
HETATM   31  C5  UNL     1      27.176  -0.467  53.377  1.00  0.00    -0.031 A 
HETATM   32  C4  UNL     1      28.158  -1.429  53.142  1.00  0.00     0.009 A 
HETATM   33  C3  UNL     1      29.478  -1.148  53.309  1.00  0.00     0.004 A 
HETATM   34  C2  UNL     1      29.935   0.095  53.720  1.00  0.00     0.042 A 
HETATM   35  C1  UNL     1      28.968   1.049  53.953  1.00  0.00     0.117 A 
HETATM   36  F1  UNL     1      29.425   2.259  54.353  1.00  0.00    -0.206 F 
HETATM   37  C23 UNL     1      27.632   0.770  53.785  1.00  0.00     0.051 A 
ENDBRANCH  30  31
ENDBRANCH  29  30
ENDBRANCH  28  29
ENDBRANCH   1  27
TORSDOF 4
ENDMDL
MODEL 6
REMARK VINA RESULT:      -8.9      2.708      8.026
REMARK  4 active torsions:
REMARK  status: ('A' for Active; 'I' for Inactive)
REMARK    1  A    between atoms: C5_6  and  C6_7 
REMARK    2  A    between atoms: C6_7  and  O1_8 
REMARK    3  A    between atoms: O1_8  and  C7_9 
REMARK    4  A    between atoms: C8_10  and  C9_11 
ROOT
HETATM    1  C9  UNL     1      23.319   1.051  51.536  1.00  0.00     0.050 C 
HETATM    2  C10 UNL     1      23.418   2.365  51.424  1.00  0.00     0.102 C 
HETATM    3  N1  UNL     1      22.843   3.275  52.344  1.00  0.00    -0.336 N 
HETATM    4  C11 UNL     1      21.842   4.286  52.185  1.00  0.00     0.230 C 
HETATM    5  N2  UNL     1      21.162   4.135  51.089  1.00  0.00    -0.168 NA
HETATM    6  N3  UNL     1      20.124   5.021  50.734  1.00  0.00    -0.260 N 
HETATM    7  C12 UNL     1      20.531   6.070  49.846  1.00  0.00     0.148 A 
HETATM    8  C13 UNL     1      21.784   6.633  49.973  1.00  0.00     0.102 A 
HETATM    9  C14 UNL     1      22.181   7.641  49.121  1.00  0.00     0.132 A 
HETATM   10  N4  UNL     1      21.351   8.087  48.155  1.00  0.00    -0.224 NA
HETATM   11  C15 UNL     1      20.134   7.524  48.048  1.00  0.00     0.237 A 
HETATM   12  N5  UNL     1      19.724   6.533  48.874  1.00  0.00    -0.223 NA
HETATM   13  N6  UNL     1      23.471   8.226  49.244  1.00  0.00    -0.344 N 
HETATM   14  C16 UNL     1      24.838   7.780  49.297  1.00  0.00     0.015 C 
HETATM   15  C17 UNL     1      25.661   8.286  48.363  1.00  0.00     0.025 C 
HETATM   16  C18 UNL     1      26.925   7.540  48.037  1.00  0.00     0.204 C 
HETATM   17  O2  UNL     1      26.694   6.137  48.245  1.00  0.00    -0.352 OA
HETATM   18  C19 UNL     1      26.014   5.717  49.406  1.00  0.00     0.050 C 
HETATM   19  C20 UNL     1      25.886   4.428  49.671  1.00  0.00     0.025 C 
HETATM   20  C21 UNL     1      25.208   3.822  50.834  1.00  0.00     0.151 C 
HETATM   21  N7  UNL     1      24.121   2.977  50.353  1.00  0.00    -0.373 N 
HETATM   22  C22 UNL     1      25.488   6.824  50.249  1.00  0.00     0.121 C 
HETATM   23  H9  UNL     1      23.372   2.991  53.199  1.00  0.00     0.168 HD
HETATM   24  H11 UNL     1      19.119   5.031  51.014  1.00  0.00     0.191 HD
HETATM   25  H14 UNL     1      23.470   9.267  49.319  1.00  0.00     0.167 HD
HETATM   26  H21 UNL     1      23.692   2.680  49.449  1.00  0.00     0.161 HD
ENDROOT
BRANCH   1  27
HETATM   27  C8  UNL     1      22.586   0.475  52.655  1.00  0.00     0.028 C 
HETATM   28  C7  UNL     1      23.170  -0.334  53.519  1.00  0.00     0.135 C 
BRANCH  28  29
HETATM   29  O1  UNL     1      24.478  -0.726  53.488  1.00  0.00    -0.359 OA
BRANCH  29  30
HETATM   30  C6  UNL     1      25.391  -0.609  54.542  1.00  0.00     0.213 C 
BRANCH  30  31
HETATM   31  C5  UNL     1      26.527   0.260  54.169  1.00  0.00    -0.031 A 
HETATM   32  C4  UNL     1      26.319   1.613  53.900  1.00  0.00     0.009 A 
HETATM   33  C3  UNL     1      27.350   2.432  53.556  1.00  0.00     0.004 A 
HETATM   34  C2  UNL     1      28.658   1.988  53.449  1.00  0.00     0.042 A 
HETATM   35  C1  UNL     1      28.868   0.652  53.715  1.00  0.00     0.117 A 
HETATM   36  F1  UNL     1      30.150   0.228  53.608  1.00  0.00    -0.206 F 
HETATM   37  C23 UNL     1      27.829  -0.181  54.063  1.00  0.00     0.051 A 
ENDBRANCH  30  31
ENDBRANCH  29  30
ENDBRANCH  28  29
ENDBRANCH   1  27
TORSDOF 4
ENDMDL
MODEL 7
REMARK VINA RESULT:      -8.9      5.699     11.281
REMARK  4 active torsions:
REMARK  status: ('A' for Active; 'I' for Inactive)
REMARK    1  A    between atoms: C5_6  and  C6_7 
REMARK    2  A    between atoms: C6_7  and  O1_8 
REMARK    3  A    between atoms: O1_8  and  C7_9 
REMARK    4  A    between atoms: C8_10  and  C9_11 
ROOT
HETATM    1  C9  UNL     1      27.490   4.604  48.629  1.00  0.00     0.050 C 
HETATM    2  C10 UNL     1      28.230   5.698  48.570  1.00  0.00     0.102 C 
HETATM    3  N1  UNL     1      27.831   6.943  49.114  1.00  0.00    -0.336 N 
HETATM    4  C11 UNL     1      27.588   8.215  48.504  1.00  0.00     0.230 C 
HETATM    5  N2  UNL     1      27.431   8.121  47.218  1.00  0.00    -0.168 NA
HETATM    6  N3  UNL     1      27.179   9.255  46.419  1.00  0.00    -0.260 N 
HETATM    7  C12 UNL     1      28.353   9.816  45.816  1.00  0.00     0.148 A 
HETATM    8  C13 UNL     1      29.547   9.822  46.508  1.00  0.00     0.102 A 
HETATM    9  C14 UNL     1      30.678  10.359  45.933  1.00  0.00     0.132 A 
HETATM   10  N4  UNL     1      30.632  10.883  44.690  1.00  0.00    -0.224 NA
HETATM   11  C15 UNL     1      29.458  10.866  44.034  1.00  0.00     0.237 A 
HETATM   12  N5  UNL     1      28.334  10.344  44.579  1.00  0.00    -0.223 NA
HETATM   13  N6  UNL     1      31.912  10.368  46.638  1.00  0.00    -0.344 N 
HETATM   14  C16 UNL     1      32.752   9.420  47.321  1.00  0.00     0.015 C 
HETATM   15  C17 UNL     1      34.015   9.319  46.873  1.00  0.00     0.025 C 
HETATM   16  C18 UNL     1      34.787   8.065  47.174  1.00  0.00     0.204 C 
HETATM   17  O2  UNL     1      33.863   6.968  47.257  1.00  0.00    -0.352 OA
HETATM   18  C19 UNL     1      32.660   7.135  47.972  1.00  0.00     0.050 C 
HETATM   19  C20 UNL     1      31.846   6.109  48.153  1.00  0.00     0.025 C 
HETATM   20  C21 UNL     1      30.557   6.113  48.871  1.00  0.00     0.151 C 
HETATM   21  N7  UNL     1      29.505   5.711  47.944  1.00  0.00    -0.373 N 
HETATM   22  C22 UNL     1      32.424   8.517  48.469  1.00  0.00     0.121 C 
HETATM   23  H9  UNL     1      27.764   6.663  50.119  1.00  0.00     0.168 HD
HETATM   24  H11 UNL     1      26.283   9.742  46.201  1.00  0.00     0.191 HD
HETATM   25  H14 UNL     1      32.370  11.304  46.699  1.00  0.00     0.167 HD
HETATM   26  H21 UNL     1      29.398   5.426  46.946  1.00  0.00     0.161 HD
ENDROOT
BRANCH   1  27
HETATM   27  C8  UNL     1      26.189   4.647  49.283  1.00  0.00     0.028 C 
HETATM   28  C7  UNL     1      25.925   3.906  50.343  1.00  0.00     0.135 C 
BRANCH  28  29
HETATM   29  O1  UNL     1      26.789   3.038  50.946  1.00  0.00    -0.359 OA
BRANCH  29  30
HETATM   30  C6  UNL     1      26.502   1.718  51.310  1.00  0.00     0.213 C 
BRANCH  30  31
HETATM   31  C5  UNL     1      27.381   1.264  52.407  1.00  0.00    -0.031 A 
HETATM   32  C4  UNL     1      27.411  -0.081  52.775  1.00  0.00     0.009 A 
HETATM   33  C3  UNL     1      28.213  -0.522  53.781  1.00  0.00     0.004 A 
HETATM   34  C2  UNL     1      29.045   0.321  54.502  1.00  0.00     0.042 A 
HETATM   35  C1  UNL     1      29.020   1.651  54.141  1.00  0.00     0.117 A 
HETATM   36  F1  UNL     1      29.837   2.465  54.850  1.00  0.00    -0.206 F 
HETATM   37  C23 UNL     1      28.210   2.102  53.124  1.00  0.00     0.051 A 
ENDBRANCH  30  31
ENDBRANCH  29  30
ENDBRANCH  28  29
ENDBRANCH   1  27
TORSDOF 4
ENDMDL
MODEL 8
REMARK VINA RESULT:      -8.8      3.124      8.372
REMARK  4 active torsions:
REMARK  status: ('A' for Active; 'I' for Inactive)
REMARK    1  A    between atoms: C5_6  and  C6_7 
REMARK    2  A    between atoms: C6_7  and  O1_8 
REMARK    3  A    between atoms: O1_8  and  C7_9 
REMARK    4  A    between atoms: C8_10  and  C9_11 
ROOT
HETATM    1  C9  UNL     1      22.584   1.709  50.070  1.00  0.00     0.050 C 
HETATM    2  C10 UNL     1      23.023   2.932  49.822  1.00  0.00     0.102 C 
HETATM    3  N1  UNL     1      22.307   4.104  50.167  1.00  0.00    -0.336 N 
HETATM    4  C11 UNL     1      21.763   5.158  49.365  1.00  0.00     0.230 C 
HETATM    5  N2  UNL     1      21.667   4.823  48.114  1.00  0.00    -0.168 NA
HETATM    6  N3  UNL     1      21.154   5.713  47.148  1.00  0.00    -0.260 N 
HETATM    7  C12 UNL     1      22.161   6.451  46.443  1.00  0.00     0.148 A 
HETATM    8  C13 UNL     1      23.296   6.872  47.104  1.00  0.00     0.102 A 
HETATM    9  C14 UNL     1      24.267   7.581  46.430  1.00  0.00     0.132 A 
HETATM   10  N4  UNL     1      24.119   7.870  45.121  1.00  0.00    -0.224 NA
HETATM   11  C15 UNL     1      23.005   7.450  44.496  1.00  0.00     0.237 A 
HETATM   12  N5  UNL     1      22.038   6.752  45.138  1.00  0.00    -0.223 NA
HETATM   13  N6  UNL     1      25.441   8.017  47.103  1.00  0.00    -0.344 N 
HETATM   14  C16 UNL     1      26.478   7.436  47.915  1.00  0.00     0.015 C 
HETATM   15  C17 UNL     1      27.735   7.591  47.467  1.00  0.00     0.025 C 
HETATM   16  C18 UNL     1      28.794   6.639  47.951  1.00  0.00     0.204 C 
HETATM   17  O2  UNL     1      28.178   5.371  48.226  1.00  0.00    -0.352 OA
HETATM   18  C19 UNL     1      26.954   5.337  48.925  1.00  0.00     0.050 C 
HETATM   19  C20 UNL     1      26.424   4.180  49.282  1.00  0.00     0.025 C 
HETATM   20  C21 UNL     1      25.159   3.969  50.013  1.00  0.00     0.151 C 
HETATM   21  N7  UNL     1      24.267   3.169  49.181  1.00  0.00    -0.373 N 
HETATM   22  C22 UNL     1      26.362   6.674  49.199  1.00  0.00     0.121 C 
HETATM   23  H9  UNL     1      22.289   3.980  51.205  1.00  0.00     0.168 HD
HETATM   24  H11 UNL     1      20.169   5.914  46.870  1.00  0.00     0.191 HD
HETATM   25  H14 UNL     1      25.643   9.037  47.006  1.00  0.00     0.167 HD
HETATM   26  H21 UNL     1      24.261   2.712  48.244  1.00  0.00     0.161 HD
ENDROOT
BRANCH   1  27
HETATM   27  C8  UNL     1      21.300   1.522  50.730  1.00  0.00     0.028 C 
HETATM   28  C7  UNL     1      21.178   0.750  51.795  1.00  0.00     0.135 C 
BRANCH  28  29
HETATM   29  O1  UNL     1      22.186   0.054  52.396  1.00  0.00    -0.359 OA
BRANCH  29  30
HETATM   30  C6  UNL     1      22.968   0.506  53.464  1.00  0.00     0.213 C 
BRANCH  30  31
HETATM   31  C5  UNL     1      24.407   0.436  53.139  1.00  0.00    -0.031 A 
HETATM   32  C4  UNL     1      25.087  -0.780  53.207  1.00  0.00     0.009 A 
HETATM   33  C3  UNL     1      26.412  -0.867  52.912  1.00  0.00     0.004 A 
HETATM   34  C2  UNL     1      27.169   0.228  52.528  1.00  0.00     0.042 A 
HETATM   35  C1  UNL     1      26.502   1.432  52.458  1.00  0.00     0.117 A 
HETATM   36  F1  UNL     1      27.250   2.496  52.083  1.00  0.00    -0.206 F 
HETATM   37  C23 UNL     1      25.161   1.526  52.757  1.00  0.00     0.051 A 
ENDBRANCH  30  31
ENDBRANCH  29  30
ENDBRANCH  28  29
ENDBRANCH   1  27
TORSDOF 4
ENDMDL
MODEL 9
REMARK VINA RESULT:      -8.7      3.024      5.635
REMARK  4 active torsions:
REMARK  status: ('A' for Active; 'I' for Inactive)
REMARK    1  A    between atoms: C5_6  and  C6_7 
REMARK    2  A    between atoms: C6_7  and  O1_8 
REMARK    3  A    between atoms: O1_8  and  C7_9 
REMARK    4  A    between atoms: C8_10  and  C9_11 
ROOT
HETATM    1  C9  UNL     1      19.624   0.609  51.746  1.00  0.00     0.050 C 
HETATM    2  C10 UNL     1      20.812   1.063  52.109  1.00  0.00     0.102 C 
HETATM    3  N1  UNL     1      21.020   2.344  52.675  1.00  0.00    -0.336 N 
HETATM    4  C11 UNL     1      21.777   3.473  52.225  1.00  0.00     0.230 C 
HETATM    5  N2  UNL     1      22.073   3.394  50.963  1.00  0.00    -0.168 NA
HETATM    6  N3  UNL     1      22.814   4.402  50.313  1.00  0.00    -0.260 N 
HETATM    7  C12 UNL     1      24.220   4.132  50.233  1.00  0.00     0.148 A 
HETATM    8  C13 UNL     1      24.859   3.495  51.276  1.00  0.00     0.102 A 
HETATM    9  C14 UNL     1      26.210   3.233  51.204  1.00  0.00     0.132 A 
HETATM   10  N4  UNL     1      26.921   3.594  50.116  1.00  0.00    -0.224 NA
HETATM   11  C15 UNL     1      26.277   4.213  49.110  1.00  0.00     0.237 A 
HETATM   12  N5  UNL     1      24.951   4.481  49.160  1.00  0.00    -0.223 NA
HETATM   13  N6  UNL     1      26.877   2.575  52.274  1.00  0.00    -0.344 N 
HETATM   14  C16 UNL     1      26.719   1.368  53.042  1.00  0.00     0.015 C 
HETATM   15  C17 UNL     1      27.762   0.521  53.033  1.00  0.00     0.025 C 
HETATM   16  C18 UNL     1      27.520  -0.923  53.375  1.00  0.00     0.204 C 
HETATM   17  O2  UNL     1      26.185  -1.270  52.972  1.00  0.00    -0.352 OA
HETATM   18  C19 UNL     1      25.127  -0.384  53.260  1.00  0.00     0.050 C 
HETATM   19  C20 UNL     1      23.879  -0.732  52.995  1.00  0.00     0.025 C 
HETATM   20  C21 UNL     1      22.664   0.072  53.232  1.00  0.00     0.151 C 
HETATM   21  N7  UNL     1      21.992   0.289  51.956  1.00  0.00    -0.373 N 
HETATM   22  C22 UNL     1      25.551   0.910  53.859  1.00  0.00     0.121 C 
HETATM   23  H9  UNL     1      20.448   2.229  53.543  1.00  0.00     0.168 HD
HETATM   24  H11 UNL     1      22.502   5.301  49.887  1.00  0.00     0.191 HD
HETATM   25  H14 UNL     1      27.722   3.074  52.631  1.00  0.00     0.167 HD
HETATM   26  H21 UNL     1      22.113   0.047  50.948  1.00  0.00     0.161 HD
ENDROOT
BRANCH   1  27
HETATM   27  C8  UNL     1      18.445   1.447  51.924  1.00  0.00     0.028 C 
HETATM   28  C7  UNL     1      17.822   1.988  50.894  1.00  0.00     0.135 C 
BRANCH  28  29
HETATM   29  O1  UNL     1      18.175   1.848  49.583  1.00  0.00    -0.359 OA
BRANCH  29  30
HETATM   30  C6  UNL     1      18.513   2.889  48.711  1.00  0.00     0.213 C 
BRANCH  30  31
HETATM   31  C5  UNL     1      19.893   2.736  48.207  1.00  0.00    -0.031 A 
HETATM   32  C4  UNL     1      20.661   1.633  48.580  1.00  0.00     0.009 A 
HETATM   33  C3  UNL     1      21.934   1.471  48.127  1.00  0.00     0.004 A 
HETATM   34  C2  UNL     1      22.549   2.377  47.277  1.00  0.00     0.042 A 
HETATM   35  C1  UNL     1      21.793   3.468  46.905  1.00  0.00     0.117 A 
HETATM   36  F1  UNL     1      22.403   4.346  46.074  1.00  0.00    -0.206 F 
HETATM   37  C23 UNL     1      20.505   3.636  47.360  1.00  0.00     0.051 A 
ENDBRANCH  30  31
ENDBRANCH  29  30
ENDBRANCH  28  29
ENDBRANCH   1  27
TORSDOF 4
ENDMDL
