MODEL 1
REMARK VINA RESULT:      -8.8      0.000      0.000
REMARK  5 active torsions:
REMARK  status: ('A' for Active; 'I' for Inactive)
REMARK    1  A    between atoms: C3_3  and  C6_7 
REMARK    2  A    between atoms: C4_4  and  C5_5 
REMARK    3  A    between atoms: C8_9  and  C9_10 
REMARK    4  A    between atoms: N2_18  and  C16_19 
REMARK    5  A    between atoms: C17_21  and  O1_22 
ROOT
HETATM    1  C1  UNL     1      23.540   4.463  52.690  1.00  0.00     0.017 C 
HETATM    2  C2  UNL     1      23.723   3.259  52.622  1.00  0.00    -0.080 C 
HETATM    3  C3  UNL     1      23.933   1.810  52.532  1.00  0.00     0.017 C 
HETATM    4  C4  UNL     1      23.487   0.986  53.485  1.00  0.00     0.002 C 
ENDROOT
BRANCH   3   5
HETATM    5  C6  UNL     1      24.684   1.584  51.229  1.00  0.00     0.160 C 
HETATM    6  C7  UNL     1      24.558   2.909  50.503  1.00  0.00     0.095 C 
HETATM    7  C8  UNL     1      25.918   3.392  50.255  1.00  0.00     0.067 C 
HETATM    8  N1  UNL     1      26.785   2.593  50.835  1.00  0.00    -0.173 NA
HETATM    9  N2  UNL     1      26.105   1.563  51.492  1.00  0.00    -0.226 N 
BRANCH   7  10
HETATM   10  C9  UNL     1      26.284   4.609  49.508  1.00  0.00    -0.010 A 
HETATM   11  C10 UNL     1      27.553   4.581  48.913  1.00  0.00     0.014 A 
HETATM   12  C11 UNL     1      28.007   5.707  48.236  1.00  0.00     0.007 A 
HETATM   13  C12 UNL     1      27.174   6.821  48.178  1.00  0.00    -0.062 A 
HETATM   14  C13 UNL     1      27.708   8.004  47.463  1.00  0.00     0.048 C 
HETATM   15  C14 UNL     1      25.965   6.735  48.788  1.00  0.00     0.007 A 
HETATM   16  C15 UNL     1      25.420   5.682  49.479  1.00  0.00     0.014 A 
ENDBRANCH   7  10
BRANCH   9  17
HETATM   17  C16 UNL     1      27.027   0.780  52.300  1.00  0.00     0.244 A 
HETATM   18  N3  UNL     1      27.650   0.104  52.829  1.00  0.00    -0.354 NA
HETATM   19  C17 UNL     1      28.482  -0.437  53.566  1.00  0.00     0.224 A 
HETATM   20  C18 UNL     1      29.001   0.820  54.180  1.00  0.00     0.126 A 
HETATM   21  S1  UNL     1      27.938   2.095  53.296  1.00  0.00    -0.044 SA
BRANCH  19  22
HETATM   22  O1  UNL     1      28.727  -1.809  53.659  1.00  0.00    -0.335 OA
HETATM   23  H15 UNL     1      29.456  -2.172  54.292  1.00  0.00     0.220 HD
ENDBRANCH  19  22
ENDBRANCH   9  17
ENDBRANCH   3   5
BRANCH   4  24
HETATM   24  C5  UNL     1      23.495  -0.446  53.749  1.00  0.00     0.113 C 
HETATM   25 BR1  UNL     1      21.859  -0.924  54.683  1.00  0.00    -0.092 Br
ENDBRANCH   4  24
TORSDOF 5
ENDMDL
MODEL 2
REMARK VINA RESULT:      -8.6      1.464      2.368
REMARK  5 active torsions:
REMARK  status: ('A' for Active; 'I' for Inactive)
REMARK    1  A    between atoms: C3_3  and  C6_7 
REMARK    2  A    between atoms: C4_4  and  C5_5 
REMARK    3  A    between atoms: C8_9  and  C9_10 
REMARK    4  A    between atoms: N2_18  and  C16_19 
REMARK    5  A    between atoms: C17_21  and  O1_22 
ROOT
HETATM    1  C1  UNL     1      22.982  -0.444  53.019  1.00  0.00     0.017 C 
HETATM    2  C2  UNL     1      23.355   0.657  52.649  1.00  0.00    -0.080 C 
HETATM    3  C3  UNL     1      23.816   1.979  52.211  1.00  0.00     0.017 C 
HETATM    4  C4  UNL     1      23.480   3.086  52.880  1.00  0.00     0.002 C 
ENDROOT
BRANCH   3   5
HETATM    5  C6  UNL     1      24.657   1.729  50.969  1.00  0.00     0.160 C 
HETATM    6  C7  UNL     1      24.610   3.051  50.227  1.00  0.00     0.095 C 
HETATM    7  C8  UNL     1      25.993   3.507  50.078  1.00  0.00     0.067 C 
HETATM    8  N1  UNL     1      26.800   2.697  50.724  1.00  0.00    -0.173 NA
HETATM    9  N2  UNL     1      26.054   1.685  51.336  1.00  0.00    -0.226 N 
BRANCH   7  10
HETATM   10  C9  UNL     1      26.436   4.711  49.352  1.00  0.00    -0.010 A 
HETATM   11  C10 UNL     1      25.470   5.718  49.227  1.00  0.00     0.014 A 
HETATM   12  C11 UNL     1      25.779   6.867  48.508  1.00  0.00     0.007 A 
HETATM   13  C12 UNL     1      27.046   6.968  47.940  1.00  0.00    -0.062 A 
HETATM   14  C13 UNL     1      27.324   8.201  47.166  1.00  0.00     0.048 C 
HETATM   15  C14 UNL     1      27.904   5.932  48.127  1.00  0.00     0.007 A 
HETATM   16  C15 UNL     1      27.704   4.761  48.813  1.00  0.00     0.014 A 
ENDBRANCH   7  10
BRANCH   9  17
HETATM   17  C16 UNL     1      26.899   0.891  52.215  1.00  0.00     0.244 A 
HETATM   18  N3  UNL     1      27.475   0.209  52.787  1.00  0.00    -0.354 NA
HETATM   19  C17 UNL     1      28.234  -0.342  53.593  1.00  0.00     0.224 A 
HETATM   20  C18 UNL     1      28.663   0.903  54.293  1.00  0.00     0.126 A 
HETATM   21  S1  UNL     1      27.678   2.189  53.338  1.00  0.00    -0.044 SA
BRANCH  19  22
HETATM   22  O1  UNL     1      28.491  -1.713  53.673  1.00  0.00    -0.335 OA
HETATM   23  H15 UNL     1      29.392  -2.058  54.037  1.00  0.00     0.220 HD
ENDBRANCH  19  22
ENDBRANCH   9  17
ENDBRANCH   3   5
BRANCH   4  24
HETATM   24  C5  UNL     1      23.726   4.516  52.771  1.00  0.00     0.113 C 
HETATM   25 BR1  UNL     1      22.299   5.323  51.727  1.00  0.00    -0.092 Br
ENDBRANCH   4  24
TORSDOF 5
ENDMDL
MODEL 3
REMARK VINA RESULT:      -8.6      1.857      2.042
REMARK  5 active torsions:
REMARK  status: ('A' for Active; 'I' for Inactive)
REMARK    1  A    between atoms: C3_3  and  C6_7 
REMARK    2  A    between atoms: C4_4  and  C5_5 
REMARK    3  A    between atoms: C8_9  and  C9_10 
REMARK    4  A    between atoms: N2_18  and  C16_19 
REMARK    5  A    between atoms: C17_21  and  O1_22 
ROOT
HETATM    1  C1  UNL     1      22.146   4.570  52.252  1.00  0.00     0.017 C 
HETATM    2  C2  UNL     1      22.027   3.357  52.198  1.00  0.00    -0.080 C 
HETATM    3  C3  UNL     1      21.877   1.901  52.121  1.00  0.00     0.017 C 
HETATM    4  C4  UNL     1      20.913   1.267  52.795  1.00  0.00     0.002 C 
ENDROOT
BRANCH   3   5
HETATM    5  C6  UNL     1      22.977   1.423  51.186  1.00  0.00     0.160 C 
HETATM    6  C7  UNL     1      23.258   2.629  50.311  1.00  0.00     0.095 C 
HETATM    7  C8  UNL     1      24.673   2.963  50.484  1.00  0.00     0.067 C 
HETATM    8  N1  UNL     1      25.200   2.196  51.411  1.00  0.00    -0.173 NA
HETATM    9  N2  UNL     1      24.221   1.333  51.914  1.00  0.00    -0.226 N 
BRANCH   7  10
HETATM   10  C9  UNL     1      25.409   4.021  49.768  1.00  0.00    -0.010 A 
HETATM   11  C10 UNL     1      26.730   3.699  49.427  1.00  0.00     0.014 A 
HETATM   12  C11 UNL     1      27.519   4.657  48.801  1.00  0.00     0.007 A 
HETATM   13  C12 UNL     1      26.958   5.904  48.538  1.00  0.00    -0.062 A 
HETATM   14  C13 UNL     1      27.842   6.899  47.887  1.00  0.00     0.048 C 
HETATM   15  C14 UNL     1      25.668   6.105  48.911  1.00  0.00     0.007 A 
HETATM   16  C15 UNL     1      24.804   5.237  49.530  1.00  0.00     0.014 A 
ENDBRANCH   7  10
BRANCH   9  17
HETATM   17  C16 UNL     1      24.727   0.611  53.072  1.00  0.00     0.244 A 
HETATM   18  N3  UNL     1      24.977   0.030  53.923  1.00  0.00    -0.354 NA
HETATM   19  C17 UNL     1      25.533  -0.520  54.880  1.00  0.00     0.224 A 
HETATM   20  C18 UNL     1      26.862   0.132  54.698  1.00  0.00     0.126 A 
HETATM   21  S1  UNL     1      26.513   1.201  53.190  1.00  0.00    -0.044 SA
BRANCH  19  22
HETATM   22  O1  UNL     1      24.947  -1.444  55.750  1.00  0.00    -0.335 OA
HETATM   23  H15 UNL     1      25.276  -1.532  56.723  1.00  0.00     0.220 HD
ENDBRANCH  19  22
ENDBRANCH   9  17
ENDBRANCH   3   5
BRANCH   4  24
HETATM   24  C5  UNL     1      20.455  -0.103  52.971  1.00  0.00     0.113 C 
HETATM   25 BR1  UNL     1      21.385  -0.889  54.485  1.00  0.00    -0.092 Br
ENDBRANCH   4  24
TORSDOF 5
ENDMDL
MODEL 4
REMARK VINA RESULT:      -8.4      2.183      2.859
REMARK  5 active torsions:
REMARK  status: ('A' for Active; 'I' for Inactive)
REMARK    1  A    between atoms: C3_3  and  C6_7 
REMARK    2  A    between atoms: C4_4  and  C5_5 
REMARK    3  A    between atoms: C8_9  and  C9_10 
REMARK    4  A    between atoms: N2_18  and  C16_19 
REMARK    5  A    between atoms: C17_21  and  O1_22 
ROOT
HETATM    1  C1  UNL     1      21.181  -0.131  52.360  1.00  0.00     0.017 C 
HETATM    2  C2  UNL     1      21.775   0.904  52.106  1.00  0.00    -0.080 C 
HETATM    3  C3  UNL     1      22.497   2.145  51.809  1.00  0.00     0.017 C 
HETATM    4  C4  UNL     1      22.102   3.315  52.320  1.00  0.00     0.002 C 
ENDROOT
BRANCH   3   5
HETATM    5  C6  UNL     1      23.646   1.744  50.897  1.00  0.00     0.160 C 
HETATM    6  C7  UNL     1      23.863   2.967  50.028  1.00  0.00     0.095 C 
HETATM    7  C8  UNL     1      25.249   3.394  50.230  1.00  0.00     0.067 C 
HETATM    8  N1  UNL     1      25.807   2.663  51.168  1.00  0.00    -0.173 NA
HETATM    9  N2  UNL     1      24.878   1.736  51.651  1.00  0.00    -0.226 N 
BRANCH   7  10
HETATM   10  C9  UNL     1      25.926   4.500  49.529  1.00  0.00    -0.010 A 
HETATM   11  C10 UNL     1      25.121   5.614  49.259  1.00  0.00     0.014 A 
HETATM   12  C11 UNL     1      25.659   6.683  48.551  1.00  0.00     0.007 A 
HETATM   13  C12 UNL     1      26.986   6.598  48.138  1.00  0.00    -0.062 A 
HETATM   14  C13 UNL     1      27.510   7.751  47.370  1.00  0.00     0.048 C 
HETATM   15  C14 UNL     1      27.673   5.471  48.458  1.00  0.00     0.007 A 
HETATM   16  C15 UNL     1      27.244   4.366  49.147  1.00  0.00     0.014 A 
ENDBRANCH   7  10
BRANCH   9  17
HETATM   17  C16 UNL     1      25.407   1.049  52.819  1.00  0.00     0.244 A 
HETATM   18  N3  UNL     1      25.669   0.517  53.698  1.00  0.00    -0.354 NA
HETATM   19  C17 UNL     1      26.248  -0.033  54.642  1.00  0.00     0.224 A 
HETATM   20  C18 UNL     1      27.632   0.338  54.225  1.00  0.00     0.126 A 
HETATM   21  S1  UNL     1      27.267   1.302  52.652  1.00  0.00    -0.044 SA
BRANCH  19  22
HETATM   22  O1  UNL     1      25.638  -0.741  55.681  1.00  0.00    -0.335 OA
HETATM   23  H15 UNL     1      25.854  -1.737  55.837  1.00  0.00     0.220 HD
ENDBRANCH  19  22
ENDBRANCH   9  17
ENDBRANCH   3   5
BRANCH   4  24
HETATM   24  C5  UNL     1      22.532   4.704  52.267  1.00  0.00     0.113 C 
HETATM   25 BR1  UNL     1      21.512   5.629  50.895  1.00  0.00    -0.092 Br
ENDBRANCH   4  24
TORSDOF 5
ENDMDL
MODEL 5
REMARK VINA RESULT:      -8.1      3.078      4.058
REMARK  5 active torsions:
REMARK  status: ('A' for Active; 'I' for Inactive)
REMARK    1  A    between atoms: C3_3  and  C6_7 
REMARK    2  A    between atoms: C4_4  and  C5_5 
REMARK    3  A    between atoms: C8_9  and  C9_10 
REMARK    4  A    between atoms: N2_18  and  C16_19 
REMARK    5  A    between atoms: C17_21  and  O1_22 
ROOT
HETATM    1  C1  UNL     1      19.062  -0.108  51.616  1.00  0.00     0.017 C 
HETATM    2  C2  UNL     1      19.805   0.825  51.358  1.00  0.00    -0.080 C 
HETATM    3  C3  UNL     1      20.705   1.944  51.060  1.00  0.00     0.017 C 
HETATM    4  C4  UNL     1      20.368   3.202  51.359  1.00  0.00     0.002 C 
ENDROOT
BRANCH   3   5
HETATM    5  C6  UNL     1      21.935   1.322  50.418  1.00  0.00     0.160 C 
HETATM    6  C7  UNL     1      22.587   2.479  49.687  1.00  0.00     0.095 C 
HETATM    7  C8  UNL     1      23.942   2.615  50.226  1.00  0.00     0.067 C 
HETATM    8  N1  UNL     1      24.107   1.782  51.228  1.00  0.00    -0.173 NA
HETATM    9  N2  UNL     1      22.927   1.061  51.435  1.00  0.00    -0.226 N 
BRANCH   7  10
HETATM   10  C9  UNL     1      24.970   3.563  49.760  1.00  0.00    -0.010 A 
HETATM   11  C10 UNL     1      24.482   4.806  49.333  1.00  0.00     0.014 A 
HETATM   12  C11 UNL     1      25.372   5.743  48.823  1.00  0.00     0.007 A 
HETATM   13  C12 UNL     1      26.721   5.403  48.758  1.00  0.00    -0.062 A 
HETATM   14  C13 UNL     1      27.630   6.426  48.188  1.00  0.00     0.048 C 
HETATM   15  C14 UNL     1      27.082   4.172  49.201  1.00  0.00     0.007 A 
HETATM   16  C15 UNL     1      26.293   3.177  49.720  1.00  0.00     0.014 A 
ENDBRANCH   7  10
BRANCH   9  17
HETATM   17  C16 UNL     1      23.019   0.275  52.657  1.00  0.00     0.244 A 
HETATM   18  N3  UNL     1      22.957  -0.313  53.536  1.00  0.00    -0.354 NA
HETATM   19  C17 UNL     1      23.176  -0.961  54.566  1.00  0.00     0.224 A 
HETATM   20  C18 UNL     1      24.653  -0.750  54.583  1.00  0.00     0.126 A 
HETATM   21  S1  UNL     1      24.865   0.303  53.039  1.00  0.00    -0.044 SA
BRANCH  19  22
HETATM   22  O1  UNL     1      22.219  -1.622  55.340  1.00  0.00    -0.335 OA
HETATM   23  H15 UNL     1      22.465  -2.007  56.265  1.00  0.00     0.220 HD
ENDBRANCH  19  22
ENDBRANCH   9  17
ENDBRANCH   3   5
BRANCH   4  24
HETATM   24  C5  UNL     1      20.958   4.526  51.230  1.00  0.00     0.113 C 
HETATM   25 BR1  UNL     1      22.318   4.747  52.601  1.00  0.00    -0.092 Br
ENDBRANCH   4  24
TORSDOF 5
ENDMDL
MODEL 6
REMARK VINA RESULT:      -8.1      3.459      6.902
REMARK  5 active torsions:
REMARK  status: ('A' for Active; 'I' for Inactive)
REMARK    1  A    between atoms: C3_3  and  C6_7 
REMARK    2  A    between atoms: C4_4  and  C5_5 
REMARK    3  A    between atoms: C8_9  and  C9_10 
REMARK    4  A    between atoms: N2_18  and  C16_19 
REMARK    5  A    between atoms: C17_21  and  O1_22 
ROOT
HETATM    1  C1  UNL     1      22.214   2.029  48.547  1.00  0.00     0.017 C 
HETATM    2  C2  UNL     1      23.122   2.543  49.179  1.00  0.00    -0.080 C 
HETATM    3  C3  UNL     1      24.207   3.174  49.938  1.00  0.00     0.017 C 
HETATM    4  C4  UNL     1      25.345   3.544  49.341  1.00  0.00     0.002 C 
ENDROOT
BRANCH   3   5
HETATM    5  C6  UNL     1      23.708   3.263  51.371  1.00  0.00     0.160 C 
HETATM    6  C7  UNL     1      22.366   2.558  51.333  1.00  0.00     0.095 C 
HETATM    7  C8  UNL     1      22.438   1.451  52.288  1.00  0.00     0.067 C 
HETATM    8  N1  UNL     1      23.655   1.360  52.772  1.00  0.00    -0.173 NA
HETATM    9  N2  UNL     1      24.460   2.350  52.199  1.00  0.00    -0.226 N 
BRANCH   7  10
HETATM   10  C9  UNL     1      21.336   0.537  52.641  1.00  0.00    -0.010 A 
HETATM   11  C10 UNL     1      20.182   0.667  51.857  1.00  0.00     0.014 A 
HETATM   12  C11 UNL     1      19.071  -0.114  52.153  1.00  0.00     0.007 A 
HETATM   13  C12 UNL     1      19.156  -1.000  53.225  1.00  0.00    -0.062 A 
HETATM   14  C13 UNL     1      17.941  -1.797  53.516  1.00  0.00     0.048 C 
HETATM   15  C14 UNL     1      20.325  -1.045  53.914  1.00  0.00     0.007 A 
HETATM   16  C15 UNL     1      21.474  -0.324  53.709  1.00  0.00     0.014 A 
ENDBRANCH   7  10
BRANCH   9  17
HETATM   17  C16 UNL     1      25.853   2.149  52.569  1.00  0.00     0.244 A 
HETATM   18  N3  UNL     1      26.887   2.128  52.806  1.00  0.00    -0.354 NA
HETATM   19  C17 UNL     1      28.032   1.826  53.160  1.00  0.00     0.224 A 
HETATM   20  C18 UNL     1      27.718   0.421  53.553  1.00  0.00     0.126 A 
HETATM   21  S1  UNL     1      25.880   0.360  53.162  1.00  0.00    -0.044 SA
BRANCH  19  22
HETATM   22  O1  UNL     1      29.147   2.667  53.138  1.00  0.00    -0.335 OA
HETATM   23  H15 UNL     1      29.850   2.628  53.892  1.00  0.00     0.220 HD
ENDBRANCH  19  22
ENDBRANCH   9  17
ENDBRANCH   3   5
BRANCH   4  24
HETATM   24  C5  UNL     1      26.599   4.172  49.729  1.00  0.00     0.113 C 
HETATM   25 BR1  UNL     1      26.823   5.814  48.715  1.00  0.00    -0.092 Br
ENDBRANCH   4  24
TORSDOF 5
ENDMDL
MODEL 7
REMARK VINA RESULT:      -7.9      4.529      7.867
REMARK  5 active torsions:
REMARK  status: ('A' for Active; 'I' for Inactive)
REMARK    1  A    between atoms: C3_3  and  C6_7 
REMARK    2  A    between atoms: C4_4  and  C5_5 
REMARK    3  A    between atoms: C8_9  and  C9_10 
REMARK    4  A    between atoms: N2_18  and  C16_19 
REMARK    5  A    between atoms: C17_21  and  O1_22 
ROOT
HETATM    1  C1  UNL     1      27.745   5.341  48.564  1.00  0.00     0.017 C 
HETATM    2  C2  UNL     1      26.681   5.129  49.123  1.00  0.00    -0.080 C 
HETATM    3  C3  UNL     1      25.396   4.877  49.783  1.00  0.00     0.017 C 
HETATM    4  C4  UNL     1      24.805   5.817  50.527  1.00  0.00     0.002 C 
ENDROOT
BRANCH   3   5
HETATM    5  C6  UNL     1      25.015   3.454  49.410  1.00  0.00     0.160 C 
HETATM    6  C7  UNL     1      25.074   2.705  50.727  1.00  0.00     0.095 C 
HETATM    7  C8  UNL     1      23.744   2.134  50.954  1.00  0.00     0.067 C 
HETATM    8  N1  UNL     1      22.919   2.545  50.019  1.00  0.00    -0.173 NA
HETATM    9  N2  UNL     1      23.598   3.392  49.136  1.00  0.00    -0.226 N 
BRANCH   7  10
HETATM   10  C9  UNL     1      23.355   1.260  52.076  1.00  0.00    -0.010 A 
HETATM   11  C10 UNL     1      24.415   0.590  52.701  1.00  0.00     0.014 A 
HETATM   12  C11 UNL     1      24.138  -0.300  53.732  1.00  0.00     0.007 A 
HETATM   13  C12 UNL     1      22.808  -0.487  54.102  1.00  0.00    -0.062 A 
HETATM   14  C13 UNL     1      22.559  -1.459  55.192  1.00  0.00     0.048 C 
HETATM   15  C14 UNL     1      21.863   0.218  53.428  1.00  0.00     0.007 A 
HETATM   16  C15 UNL     1      22.024   1.115  52.403  1.00  0.00     0.014 A 
ENDBRANCH   7  10
BRANCH   9  17
HETATM   17  C16 UNL     1      22.664   4.013  48.209  1.00  0.00     0.244 A 
HETATM   18  N3  UNL     1      22.057   4.574  47.545  1.00  0.00    -0.354 NA
HETATM   19  C17 UNL     1      21.200   4.974  46.748  1.00  0.00     0.224 A 
HETATM   20  C18 UNL     1      20.454   3.686  46.647  1.00  0.00     0.126 A 
HETATM   21  S1  UNL     1      21.469   2.612  47.810  1.00  0.00    -0.044 SA
BRANCH  19  22
HETATM   22  O1  UNL     1      21.116   6.261  46.211  1.00  0.00    -0.335 OA
HETATM   23  H15 UNL     1      21.831   6.603  45.551  1.00  0.00     0.220 HD
ENDBRANCH  19  22
ENDBRANCH   9  17
ENDBRANCH   3   5
BRANCH   4  24
HETATM   24  C5  UNL     1      23.584   5.949  51.309  1.00  0.00     0.113 C 
HETATM   25 BR1  UNL     1      22.411   7.228  50.434  1.00  0.00    -0.092 Br
ENDBRANCH   4  24
TORSDOF 5
ENDMDL
MODEL 8
REMARK VINA RESULT:      -7.8      3.993      6.220
REMARK  5 active torsions:
REMARK  status: ('A' for Active; 'I' for Inactive)
REMARK    1  A    between atoms: C3_3  and  C6_7 
REMARK    2  A    between atoms: C4_4  and  C5_5 
REMARK    3  A    between atoms: C8_9  and  C9_10 
REMARK    4  A    between atoms: N2_18  and  C16_19 
REMARK    5  A    between atoms: C17_21  and  O1_22 
ROOT
HETATM    1  C1  UNL     1      19.479   3.147  51.575  1.00  0.00     0.017 C 
HETATM    2  C2  UNL     1      20.441   2.471  51.901  1.00  0.00    -0.080 C 
HETATM    3  C3  UNL     1      21.601   1.658  52.278  1.00  0.00     0.017 C 
HETATM    4  C4  UNL     1      21.484   0.344  52.495  1.00  0.00     0.002 C 
ENDROOT
BRANCH   3   5
HETATM    5  C6  UNL     1      22.777   2.619  52.332  1.00  0.00     0.160 C 
HETATM    6  C7  UNL     1      23.841   1.850  53.091  1.00  0.00     0.095 C 
HETATM    7  C8  UNL     1      25.009   1.755  52.213  1.00  0.00     0.067 C 
HETATM    8  N1  UNL     1      24.719   2.255  51.034  1.00  0.00    -0.173 NA
HETATM    9  N2  UNL     1      23.393   2.698  51.027  1.00  0.00    -0.226 N 
BRANCH   7  10
HETATM   10  C9  UNL     1      26.310   1.156  52.562  1.00  0.00    -0.010 A 
HETATM   11  C10 UNL     1      26.349  -0.244  52.524  1.00  0.00     0.014 A 
HETATM   12  C11 UNL     1      27.518  -0.899  52.894  1.00  0.00     0.007 A 
HETATM   13  C12 UNL     1      28.608  -0.128  53.288  1.00  0.00    -0.062 A 
HETATM   14  C13 UNL     1      29.826  -0.869  53.692  1.00  0.00     0.048 C 
HETATM   15  C14 UNL     1      28.459   1.222  53.285  1.00  0.00     0.007 A 
HETATM   16  C15 UNL     1      27.359   1.967  52.942  1.00  0.00     0.014 A 
ENDBRANCH   7  10
BRANCH   9  17
HETATM   17  C16 UNL     1      22.990   3.076  49.681  1.00  0.00     0.244 A 
HETATM   18  N3  UNL     1      22.715   3.226  48.668  1.00  0.00    -0.354 NA
HETATM   19  C17 UNL     1      22.348   3.677  47.577  1.00  0.00     0.224 A 
HETATM   20  C18 UNL     1      22.127   5.077  48.043  1.00  0.00     0.126 A 
HETATM   21  S1  UNL     1      22.598   4.911  49.856  1.00  0.00    -0.044 SA
BRANCH  19  22
HETATM   22  O1  UNL     1      22.231   2.955  46.387  1.00  0.00    -0.335 OA
HETATM   23  H15 UNL     1      22.438   1.945  46.362  1.00  0.00     0.220 HD
ENDBRANCH  19  22
ENDBRANCH   9  17
ENDBRANCH   3   5
BRANCH   4  24
HETATM   24  C5  UNL     1      22.357  -0.760  52.868  1.00  0.00     0.113 C 
HETATM   25 BR1  UNL     1      21.732  -1.518  54.545  1.00  0.00    -0.092 Br
ENDBRANCH   4  24
TORSDOF 5
ENDMDL
MODEL 9
REMARK VINA RESULT:      -7.7      4.110      7.353
REMARK  5 active torsions:
REMARK  status: ('A' for Active; 'I' for Inactive)
REMARK    1  A    between atoms: C3_3  and  C6_7 
REMARK    2  A    between atoms: C4_4  and  C5_5 
REMARK    3  A    between atoms: C8_9  and  C9_10 
REMARK    4  A    between atoms: N2_18  and  C16_19 
REMARK    5  A    between atoms: C17_21  and  O1_22 
ROOT
HETATM    1  C1  UNL     1      21.540   1.352  48.742  1.00  0.00     0.017 C 
HETATM    2  C2  UNL     1      22.373   1.836  49.490  1.00  0.00    -0.080 C 
HETATM    3  C3  UNL     1      23.368   2.431  50.388  1.00  0.00     0.017 C 
HETATM    4  C4  UNL     1      24.507   2.947  49.916  1.00  0.00     0.002 C 
ENDROOT
BRANCH   3   5
HETATM    5  C6  UNL     1      22.787   2.301  51.787  1.00  0.00     0.160 C 
HETATM    6  C7  UNL     1      21.329   1.963  51.545  1.00  0.00     0.095 C 
HETATM    7  C8  UNL     1      21.073   0.680  52.203  1.00  0.00     0.067 C 
HETATM    8  N1  UNL     1      22.196   0.193  52.679  1.00  0.00    -0.173 NA
HETATM    9  N2  UNL     1      23.246   1.069  52.386  1.00  0.00    -0.226 N 
BRANCH   7  10
HETATM   10  C9  UNL     1      19.770  -0.003  52.294  1.00  0.00    -0.010 A 
HETATM   11  C10 UNL     1      18.900   0.231  51.221  1.00  0.00     0.014 A 
HETATM   12  C11 UNL     1      17.627  -0.326  51.248  1.00  0.00     0.007 A 
HETATM   13  C12 UNL     1      17.269  -1.099  52.350  1.00  0.00    -0.062 A 
HETATM   14  C13 UNL     1      15.896  -1.655  52.345  1.00  0.00     0.048 C 
HETATM   15  C14 UNL     1      18.193  -1.261  53.331  1.00  0.00     0.007 A 
HETATM   16  C15 UNL     1      19.468  -0.761  53.406  1.00  0.00     0.014 A 
ENDBRANCH   7  10
BRANCH   9  17
HETATM   17  C16 UNL     1      24.524   0.463  52.729  1.00  0.00     0.244 A 
HETATM   18  N3  UNL     1      25.410  -0.086  52.921  1.00  0.00    -0.354 NA
HETATM   19  C17 UNL     1      26.533  -0.472  53.264  1.00  0.00     0.224 A 
HETATM   20  C18 UNL     1      26.973   0.817  53.873  1.00  0.00     0.126 A 
HETATM   21  S1  UNL     1      25.443   1.871  53.581  1.00  0.00    -0.044 SA
BRANCH  19  22
HETATM   22  O1  UNL     1      27.061  -1.749  53.059  1.00  0.00    -0.335 OA
HETATM   23  H15 UNL     1      27.920  -2.048  53.544  1.00  0.00     0.220 HD
ENDBRANCH  19  22
ENDBRANCH   9  17
ENDBRANCH   3   5
BRANCH   4  24
HETATM   24  C5  UNL     1      25.691   3.597  50.457  1.00  0.00     0.113 C 
HETATM   25 BR1  UNL     1      26.145   5.118  49.335  1.00  0.00    -0.092 Br
ENDBRANCH   4  24
TORSDOF 5
ENDMDL
