MODEL 1
REMARK VINA RESULT:      -8.0      0.000      0.000
REMARK  6 active torsions:
REMARK  status: ('A' for Active; 'I' for Inactive)
REMARK    1  A    between atoms: C2_2  and  C3_3 
REMARK    2  A    between atoms: C4_4  and  N1_5 
REMARK    3  A    between atoms: N1_5  and  C5_6 
REMARK    4  A    between atoms: N4_20  and  C16_21 
REMARK    5  A    between atoms: C16_21  and  N5_22 
REMARK    6  A    between atoms: C21_28  and  C22_29 
ROOT
HETATM    1  C5  UNL     1      25.229  -0.494  53.937  1.00  0.00     0.142 A 
HETATM    2  N2  UNL     1      26.197  -1.430  53.793  1.00  0.00    -0.224 NA
HETATM    3  C6  UNL     1      27.202  -1.307  52.896  1.00  0.00     0.236 A 
HETATM    4  N3  UNL     1      27.232  -0.207  52.122  1.00  0.00    -0.241 NA
HETATM    5  C7  UNL     1      26.301   0.758  52.217  1.00  0.00     0.075 A 
HETATM    6  C8  UNL     1      25.262   0.634  53.141  1.00  0.00     0.050 A 
HETATM    7  C9  UNL     1      24.278   1.406  53.411  1.00  0.00    -0.006 C 
HETATM    8  C10 UNL     1      23.827   2.363  52.614  1.00  0.00     0.045 C 
HETATM    9  C11 UNL     1      24.561   3.275  51.705  1.00  0.00     0.068 C 
HETATM   10  C12 UNL     1      25.731   2.923  51.204  1.00  0.00     0.100 C 
HETATM   11  C13 UNL     1      26.558   1.734  51.347  1.00  0.00     0.071 C 
HETATM   12  O1  UNL     1      26.097   3.981  50.432  1.00  0.00    -0.324 OA
HETATM   13  C14 UNL     1      25.015   4.862  50.211  1.00  0.00     0.227 C 
HETATM   14  C15 UNL     1      24.381   4.439  48.879  1.00  0.00     0.064 C 
HETATM   15  N4  UNL     1      24.114   4.583  51.277  1.00  0.00    -0.336 N 
ENDROOT
BRANCH   1  16
HETATM   16  N1  UNL     1      24.196  -0.684  54.903  1.00  0.00    -0.350 N 
HETATM   17  H6  UNL     1      24.536  -0.076  55.703  1.00  0.00     0.166 HD
BRANCH  16  18
HETATM   18  C4  UNL     1      23.008  -1.458  54.871  1.00  0.00     0.090 C 
HETATM   19  C3  UNL     1      21.774  -1.499  54.414  1.00  0.00     0.023 C 
BRANCH  19  20
HETATM   20  C2  UNL     1      21.214  -0.442  53.607  1.00  0.00    -0.062 C 
HETATM   21  C1  UNL     1      20.478   0.693  54.191  1.00  0.00     0.048 C 
HETATM   22  C21 UNL     1      21.392  -0.537  52.302  1.00  0.00     0.011 C 
BRANCH  22  23
HETATM   23  C22 UNL     1      20.942   0.380  51.233  1.00  0.00     0.250 C 
HETATM   24  F1  UNL     1      22.058   0.709  50.455  1.00  0.00    -0.251 F 
ENDBRANCH  22  23
ENDBRANCH  19  20
ENDBRANCH  16  18
ENDBRANCH   1  16
BRANCH  15  25
HETATM   25  C16 UNL     1      22.973   5.213  51.955  1.00  0.00     0.246 C 
BRANCH  25  26
HETATM   26  N5  UNL     1      21.855   5.247  51.114  1.00  0.00    -0.393 N 
HETATM   27  C17 UNL     1      20.742   4.403  51.437  1.00  0.00     0.145 C 
HETATM   28  C18 UNL     1      20.214   3.908  50.080  1.00  0.00     0.187 C 
HETATM   29  O2  UNL     1      20.189   4.996  49.207  1.00  0.00    -0.388 OA
HETATM   30  C19 UNL     1      20.112   6.227  49.855  1.00  0.00     0.187 C 
HETATM   31  C20 UNL     1      21.358   6.526  50.687  1.00  0.00     0.145 C 
ENDBRANCH  25  26
ENDBRANCH  15  25
TORSDOF 6
ENDMDL
MODEL 2
REMARK VINA RESULT:      -7.8      2.495      5.271
REMARK  6 active torsions:
REMARK  status: ('A' for Active; 'I' for Inactive)
REMARK    1  A    between atoms: C2_2  and  C3_3 
REMARK    2  A    between atoms: C4_4  and  N1_5 
REMARK    3  A    between atoms: N1_5  and  C5_6 
REMARK    4  A    between atoms: N4_20  and  C16_21 
REMARK    5  A    between atoms: C16_21  and  N5_22 
REMARK    6  A    between atoms: C21_28  and  C22_29 
ROOT
HETATM    1  C5  UNL     1      26.708   2.376  51.411  1.00  0.00     0.142 A 
HETATM    2  N2  UNL     1      27.848   2.405  52.143  1.00  0.00    -0.224 NA
HETATM    3  C6  UNL     1      27.954   1.805  53.351  1.00  0.00     0.236 A 
HETATM    4  N3  UNL     1      26.878   1.158  53.836  1.00  0.00    -0.241 NA
HETATM    5  C7  UNL     1      25.719   1.092  53.157  1.00  0.00     0.075 A 
HETATM    6  C8  UNL     1      25.607   1.710  51.911  1.00  0.00     0.050 A 
HETATM    7  C9  UNL     1      24.626   1.784  51.093  1.00  0.00    -0.006 C 
HETATM    8  C10 UNL     1      23.359   1.569  51.411  1.00  0.00     0.045 C 
HETATM    9  C11 UNL     1      22.762   0.601  52.361  1.00  0.00     0.068 C 
HETATM   10  C12 UNL     1      23.462   0.148  53.384  1.00  0.00     0.100 C 
HETATM   11  C13 UNL     1      24.819   0.396  53.850  1.00  0.00     0.071 C 
HETATM   12  O1  UNL     1      22.612  -0.699  54.024  1.00  0.00    -0.324 OA
HETATM   13  C14 UNL     1      21.283  -0.541  53.571  1.00  0.00     0.227 C 
HETATM   14  C15 UNL     1      20.615   0.446  54.538  1.00  0.00     0.064 C 
HETATM   15  N4  UNL     1      21.419   0.065  52.291  1.00  0.00    -0.336 N 
ENDROOT
BRANCH   1  16
HETATM   16  N1  UNL     1      26.664   3.028  50.143  1.00  0.00    -0.350 N 
HETATM   17  H6  UNL     1      26.749   2.206  49.476  1.00  0.00     0.166 HD
BRANCH  16  18
HETATM   18  C4  UNL     1      26.538   4.396  49.792  1.00  0.00     0.090 C 
HETATM   19  C3  UNL     1      25.686   5.393  49.675  1.00  0.00     0.023 C 
BRANCH  19  20
HETATM   20  C2  UNL     1      24.282   5.247  49.973  1.00  0.00    -0.062 C 
HETATM   21  C1  UNL     1      23.316   4.722  48.992  1.00  0.00     0.048 C 
HETATM   22  C21 UNL     1      23.893   5.612  51.181  1.00  0.00     0.011 C 
BRANCH  22  23
HETATM   23  C22 UNL     1      22.537   5.579  51.771  1.00  0.00     0.250 C 
HETATM   24  F1  UNL     1      22.478   4.485  52.641  1.00  0.00    -0.251 F 
ENDBRANCH  22  23
ENDBRANCH  19  20
ENDBRANCH  16  18
ENDBRANCH   1  16
BRANCH  15  25
HETATM   25  C16 UNL     1      20.624   0.266  51.072  1.00  0.00     0.246 C 
BRANCH  25  26
HETATM   26  N5  UNL     1      19.717   1.318  51.243  1.00  0.00    -0.393 N 
HETATM   27  C17 UNL     1      19.901   2.503  50.456  1.00  0.00     0.145 C 
HETATM   28  C18 UNL     1      19.532   3.663  51.396  1.00  0.00     0.187 C 
HETATM   29  O2  UNL     1      18.369   3.308  52.080  1.00  0.00    -0.388 OA
HETATM   30  C19 UNL     1      17.601   2.356  51.412  1.00  0.00     0.187 C 
HETATM   31  C20 UNL     1      18.314   1.010  51.294  1.00  0.00     0.145 C 
ENDBRANCH  25  26
ENDBRANCH  15  25
TORSDOF 6
ENDMDL
MODEL 3
REMARK VINA RESULT:      -7.5      2.986      5.836
REMARK  6 active torsions:
REMARK  status: ('A' for Active; 'I' for Inactive)
REMARK    1  A    between atoms: C2_2  and  C3_3 
REMARK    2  A    between atoms: C4_4  and  N1_5 
REMARK    3  A    between atoms: N1_5  and  C5_6 
REMARK    4  A    between atoms: N4_20  and  C16_21 
REMARK    5  A    between atoms: C16_21  and  N5_22 
REMARK    6  A    between atoms: C21_28  and  C22_29 
ROOT
HETATM    1  C5  UNL     1      27.138   2.049  52.565  1.00  0.00     0.142 A 
HETATM    2  N2  UNL     1      28.189   1.887  53.404  1.00  0.00    -0.224 NA
HETATM    3  C6  UNL     1      28.148   1.056  54.470  1.00  0.00     0.236 A 
HETATM    4  N3  UNL     1      27.014   0.368  54.697  1.00  0.00    -0.241 NA
HETATM    5  C7  UNL     1      25.937   0.484  53.900  1.00  0.00     0.075 A 
HETATM    6  C8  UNL     1      25.976   1.341  52.799  1.00  0.00     0.050 A 
HETATM    7  C9  UNL     1      25.095   1.616  51.913  1.00  0.00    -0.006 C 
HETATM    8  C10 UNL     1      23.797   1.392  52.044  1.00  0.00     0.045 C 
HETATM    9  C11 UNL     1      23.080   0.278  52.710  1.00  0.00     0.068 C 
HETATM   10  C12 UNL     1      23.653  -0.397  53.689  1.00  0.00     0.100 C 
HETATM   11  C13 UNL     1      24.953  -0.299  54.338  1.00  0.00     0.071 C 
HETATM   12  O1  UNL     1      22.722  -1.320  54.050  1.00  0.00    -0.324 OA
HETATM   13  C14 UNL     1      21.456  -1.023  53.500  1.00  0.00     0.227 C 
HETATM   14  C15 UNL     1      20.700  -0.222  54.570  1.00  0.00     0.064 C 
HETATM   15  N4  UNL     1      21.745  -0.181  52.390  1.00  0.00    -0.336 N 
ENDROOT
BRANCH   1  16
HETATM   16  N1  UNL     1      27.247   2.942  51.456  1.00  0.00    -0.350 N 
HETATM   17  H6  UNL     1      27.996   3.613  51.795  1.00  0.00     0.166 HD
BRANCH  16  18
HETATM   18  C4  UNL     1      26.573   2.981  50.209  1.00  0.00     0.090 C 
HETATM   19  C3  UNL     1      26.348   3.717  49.142  1.00  0.00     0.023 C 
BRANCH  19  20
HETATM   20  C2  UNL     1      26.918   5.032  48.977  1.00  0.00    -0.062 C 
HETATM   21  C1  UNL     1      28.290   5.244  48.483  1.00  0.00     0.048 C 
HETATM   22  C21 UNL     1      26.144   6.055  49.292  1.00  0.00     0.011 C 
BRANCH  22  23
HETATM   23  C22 UNL     1      26.444   7.502  49.229  1.00  0.00     0.250 C 
HETATM   24  F1  UNL     1      26.601   7.962  50.542  1.00  0.00    -0.251 F 
ENDBRANCH  22  23
ENDBRANCH  19  20
ENDBRANCH  16  18
ENDBRANCH   1  16
BRANCH  15  25
HETATM   25  C16 UNL     1      21.096   0.291  51.160  1.00  0.00     0.246 C 
BRANCH  25  26
HETATM   26  N5  UNL     1      20.336   1.439  51.411  1.00  0.00    -0.393 N 
HETATM   27  C17 UNL     1      20.699   2.650  50.733  1.00  0.00     0.145 C 
HETATM   28  C18 UNL     1      20.469   3.765  51.766  1.00  0.00     0.187 C 
HETATM   29  O2  UNL     1      19.252   3.517  52.402  1.00  0.00    -0.388 OA
HETATM   30  C19 UNL     1      18.377   2.740  51.644  1.00  0.00     0.187 C 
HETATM   31  C20 UNL     1      18.904   1.324  51.418  1.00  0.00     0.145 C 
ENDBRANCH  25  26
ENDBRANCH  15  25
TORSDOF 6
ENDMDL
MODEL 4
REMARK VINA RESULT:      -7.5      2.454      4.979
REMARK  6 active torsions:
REMARK  status: ('A' for Active; 'I' for Inactive)
REMARK    1  A    between atoms: C2_2  and  C3_3 
REMARK    2  A    between atoms: C4_4  and  N1_5 
REMARK    3  A    between atoms: N1_5  and  C5_6 
REMARK    4  A    between atoms: N4_20  and  C16_21 
REMARK    5  A    between atoms: C16_21  and  N5_22 
REMARK    6  A    between atoms: C21_28  and  C22_29 
ROOT
HETATM    1  C5  UNL     1      23.887  -0.396  53.932  1.00  0.00     0.142 A 
HETATM    2  N2  UNL     1      23.151  -1.169  54.766  1.00  0.00    -0.224 NA
HETATM    3  C6  UNL     1      21.799  -1.127  54.795  1.00  0.00     0.236 A 
HETATM    4  N3  UNL     1      21.171  -0.279  53.959  1.00  0.00    -0.241 NA
HETATM    5  C7  UNL     1      21.845   0.513  53.108  1.00  0.00     0.075 A 
HETATM    6  C8  UNL     1      23.240   0.473  53.076  1.00  0.00     0.050 A 
HETATM    7  C9  UNL     1      24.086   1.119  52.366  1.00  0.00    -0.006 C 
HETATM    8  C10 UNL     1      23.827   2.247  51.723  1.00  0.00     0.045 C 
HETATM    9  C11 UNL     1      22.594   2.693  51.031  1.00  0.00     0.068 C 
HETATM   10  C12 UNL     1      21.416   2.212  51.385  1.00  0.00     0.100 C 
HETATM   11  C13 UNL     1      20.996   1.251  52.395  1.00  0.00     0.071 C 
HETATM   12  O1  UNL     1      20.537   2.833  50.554  1.00  0.00    -0.324 OA
HETATM   13  C14 UNL     1      21.135   3.926  49.888  1.00  0.00     0.227 C 
HETATM   14  C15 UNL     1      20.818   5.169  50.731  1.00  0.00     0.064 C 
HETATM   15  N4  UNL     1      22.530   3.652  49.949  1.00  0.00    -0.336 N 
ENDROOT
BRANCH   1  16
HETATM   16  N1  UNL     1      25.311  -0.490  53.950  1.00  0.00    -0.350 N 
HETATM   17  H6  UNL     1      25.557   0.132  54.775  1.00  0.00     0.166 HD
BRANCH  16  18
HETATM   18  C4  UNL     1      26.217  -1.203  53.125  1.00  0.00     0.090 C 
HETATM   19  C3  UNL     1      27.484  -1.320  52.786  1.00  0.00     0.023 C 
BRANCH  19  20
HETATM   20  C2  UNL     1      28.517  -0.496  53.363  1.00  0.00    -0.062 C 
HETATM   21  C1  UNL     1      29.843  -1.028  53.725  1.00  0.00     0.048 C 
HETATM   22  C21 UNL     1      28.220   0.776  53.557  1.00  0.00     0.011 C 
BRANCH  22  23
HETATM   23  C22 UNL     1      29.062   1.852  54.123  1.00  0.00     0.250 C 
HETATM   24  F1  UNL     1      28.908   2.983  53.313  1.00  0.00    -0.251 F 
ENDBRANCH  22  23
ENDBRANCH  19  20
ENDBRANCH  16  18
ENDBRANCH   1  16
BRANCH  15  25
HETATM   25  C16 UNL     1      23.769   4.064  49.276  1.00  0.00     0.246 C 
BRANCH  25  26
HETATM   26  N5  UNL     1      23.975   5.440  49.420  1.00  0.00    -0.393 N 
HETATM   27  C17 UNL     1      25.002   5.879  50.321  1.00  0.00     0.145 C 
HETATM   28  C18 UNL     1      24.429   7.141  50.988  1.00  0.00     0.187 C 
HETATM   29  O2  UNL     1      23.826   7.914  49.997  1.00  0.00    -0.388 OA
HETATM   30  C19 UNL     1      24.326   7.670  48.719  1.00  0.00     0.187 C 
HETATM   31  C20 UNL     1      24.021   6.253  48.236  1.00  0.00     0.145 C 
ENDBRANCH  25  26
ENDBRANCH  15  25
TORSDOF 6
ENDMDL
MODEL 5
REMARK VINA RESULT:      -7.5      5.810      9.542
REMARK  6 active torsions:
REMARK  status: ('A' for Active; 'I' for Inactive)
REMARK    1  A    between atoms: C2_2  and  C3_3 
REMARK    2  A    between atoms: C4_4  and  N1_5 
REMARK    3  A    between atoms: N1_5  and  C5_6 
REMARK    4  A    between atoms: N4_20  and  C16_21 
REMARK    5  A    between atoms: C16_21  and  N5_22 
REMARK    6  A    between atoms: C21_28  and  C22_29 
ROOT
HETATM    1  C5  UNL     1      30.477   7.161  47.324  1.00  0.00     0.142 A 
HETATM    2  N2  UNL     1      30.707   8.441  46.945  1.00  0.00    -0.224 NA
HETATM    3  C6  UNL     1      29.792   9.424  47.108  1.00  0.00     0.236 A 
HETATM    4  N3  UNL     1      28.611   9.108  47.670  1.00  0.00    -0.241 NA
HETATM    5  C7  UNL     1      28.324   7.856  48.068  1.00  0.00     0.075 A 
HETATM    6  C8  UNL     1      29.264   6.839  47.901  1.00  0.00     0.050 A 
HETATM    7  C9  UNL     1      29.221   5.594  48.195  1.00  0.00    -0.006 C 
HETATM    8  C10 UNL     1      28.111   4.910  48.423  1.00  0.00     0.045 C 
HETATM    9  C11 UNL     1      26.852   5.323  49.088  1.00  0.00     0.068 C 
HETATM   10  C12 UNL     1      26.493   6.593  49.113  1.00  0.00     0.100 C 
HETATM   11  C13 UNL     1      27.099   7.810  48.591  1.00  0.00     0.071 C 
HETATM   12  O1  UNL     1      25.314   6.595  49.790  1.00  0.00    -0.324 OA
HETATM   13  C14 UNL     1      24.789   5.290  49.923  1.00  0.00     0.227 C 
HETATM   14  C15 UNL     1      23.818   5.097  48.749  1.00  0.00     0.064 C 
HETATM   15  N4  UNL     1      25.917   4.440  49.752  1.00  0.00    -0.336 N 
ENDROOT
BRANCH   1  16
HETATM   16  N1  UNL     1      31.485   6.170  47.125  1.00  0.00    -0.350 N 
HETATM   17  H6  UNL     1      31.020   5.531  46.416  1.00  0.00     0.166 HD
BRANCH  16  18
HETATM   18  C4  UNL     1      32.779   6.019  47.684  1.00  0.00     0.090 C 
HETATM   19  C3  UNL     1      33.811   5.208  47.779  1.00  0.00     0.023 C 
BRANCH  19  20
HETATM   20  C2  UNL     1      33.840   3.916  47.136  1.00  0.00    -0.062 C 
HETATM   21  C1  UNL     1      34.838   3.566  46.110  1.00  0.00     0.048 C 
HETATM   22  C21 UNL     1      32.919   3.048  47.512  1.00  0.00     0.011 C 
BRANCH  22  23
HETATM   23  C22 UNL     1      32.698   1.664  47.040  1.00  0.00     0.250 C 
HETATM   24  F1  UNL     1      32.794   0.816  48.149  1.00  0.00    -0.251 F 
ENDBRANCH  22  23
ENDBRANCH  19  20
ENDBRANCH  16  18
ENDBRANCH   1  16
BRANCH  15  25
HETATM   25  C16 UNL     1      26.311   3.054  50.036  1.00  0.00     0.246 C 
BRANCH  25  26
HETATM   26  N5  UNL     1      26.000   2.713  51.358  1.00  0.00    -0.393 N 
HETATM   27  C17 UNL     1      24.802   1.962  51.596  1.00  0.00     0.145 C 
HETATM   28  C18 UNL     1      24.233   2.531  52.907  1.00  0.00     0.187 C 
HETATM   29  O2  UNL     1      25.291   2.688  53.802  1.00  0.00    -0.388 OA
HETATM   30  C19 UNL     1      26.378   1.859  53.528  1.00  0.00     0.187 C 
HETATM   31  C20 UNL     1      27.046   2.195  52.195  1.00  0.00     0.145 C 
ENDBRANCH  25  26
ENDBRANCH  15  25
TORSDOF 6
ENDMDL
MODEL 6
REMARK VINA RESULT:      -7.3      3.763      6.439
REMARK  6 active torsions:
REMARK  status: ('A' for Active; 'I' for Inactive)
REMARK    1  A    between atoms: C2_2  and  C3_3 
REMARK    2  A    between atoms: C4_4  and  N1_5 
REMARK    3  A    between atoms: N1_5  and  C5_6 
REMARK    4  A    between atoms: N4_20  and  C16_21 
REMARK    5  A    between atoms: C16_21  and  N5_22 
REMARK    6  A    between atoms: C21_28  and  C22_29 
ROOT
HETATM    1  C5  UNL     1      25.037   1.331  51.745  1.00  0.00     0.142 A 
HETATM    2  N2  UNL     1      23.943   1.022  52.483  1.00  0.00    -0.224 NA
HETATM    3  C6  UNL     1      22.926   1.892  52.676  1.00  0.00     0.236 A 
HETATM    4  N3  UNL     1      23.014   3.110  52.109  1.00  0.00    -0.241 NA
HETATM    5  C7  UNL     1      24.073   3.475  51.366  1.00  0.00     0.075 A 
HETATM    6  C8  UNL     1      25.124   2.580  51.165  1.00  0.00     0.050 A 
HETATM    7  C9  UNL     1      26.217   2.697  50.509  1.00  0.00    -0.006 C 
HETATM    8  C10 UNL     1      26.760   3.848  50.144  1.00  0.00     0.045 C 
HETATM    9  C11 UNL     1      26.120   5.111  49.705  1.00  0.00     0.068 C 
HETATM   10  C12 UNL     1      24.891   5.408  50.087  1.00  0.00     0.100 C 
HETATM   11  C13 UNL     1      23.915   4.721  50.921  1.00  0.00     0.071 C 
HETATM   12  O1  UNL     1      24.641   6.612  49.508  1.00  0.00    -0.324 OA
HETATM   13  C14 UNL     1      25.824   7.206  49.013  1.00  0.00     0.227 C 
HETATM   14  C15 UNL     1      26.333   8.136  50.124  1.00  0.00     0.064 C 
HETATM   15  N4  UNL     1      26.724   6.116  48.856  1.00  0.00    -0.336 N 
ENDROOT
BRANCH   1  16
HETATM   16  N1  UNL     1      26.075   0.366  51.579  1.00  0.00    -0.350 N 
HETATM   17  H6  UNL     1      26.533   0.695  50.680  1.00  0.00     0.166 HD
BRANCH  16  18
HETATM   18  C4  UNL     1      26.454  -0.754  52.363  1.00  0.00     0.090 C 
HETATM   19  C3  UNL     1      27.374  -1.222  53.179  1.00  0.00     0.023 C 
BRANCH  19  20
HETATM   20  C2  UNL     1      28.536  -0.454  53.554  1.00  0.00    -0.062 C 
HETATM   21  C1  UNL     1      29.898  -1.015  53.528  1.00  0.00     0.048 C 
HETATM   22  C21 UNL     1      28.323   0.795  53.929  1.00  0.00     0.011 C 
BRANCH  22  23
HETATM   23  C22 UNL     1      29.302   1.815  54.364  1.00  0.00     0.250 C 
HETATM   24  F1  UNL     1      29.027   2.994  53.661  1.00  0.00    -0.251 F 
ENDBRANCH  22  23
ENDBRANCH  19  20
ENDBRANCH  16  18
ENDBRANCH   1  16
BRANCH  15  25
HETATM   25  C16 UNL     1      27.970   5.803  48.143  1.00  0.00     0.246 C 
BRANCH  25  26
HETATM   26  N5  UNL     1      28.752   6.953  47.989  1.00  0.00    -0.393 N 
HETATM   27  C17 UNL     1      30.095   6.928  48.492  1.00  0.00     0.145 C 
HETATM   28  C18 UNL     1      30.329   8.337  49.063  1.00  0.00     0.187 C 
HETATM   29  O2  UNL     1      29.814   9.260  48.152  1.00  0.00    -0.388 OA
HETATM   30  C19 UNL     1      29.739   8.772  46.848  1.00  0.00     0.187 C 
HETATM   31  C20 UNL     1      28.748   7.617  46.715  1.00  0.00     0.145 C 
ENDBRANCH  25  26
ENDBRANCH  15  25
TORSDOF 6
ENDMDL
MODEL 7
REMARK VINA RESULT:      -7.3      4.309      8.880
REMARK  6 active torsions:
REMARK  status: ('A' for Active; 'I' for Inactive)
REMARK    1  A    between atoms: C2_2  and  C3_3 
REMARK    2  A    between atoms: C4_4  and  N1_5 
REMARK    3  A    between atoms: N1_5  and  C5_6 
REMARK    4  A    between atoms: N4_20  and  C16_21 
REMARK    5  A    between atoms: C16_21  and  N5_22 
REMARK    6  A    between atoms: C21_28  and  C22_29 
ROOT
HETATM    1  C5  UNL     1      26.762   6.738  48.389  1.00  0.00     0.142 A 
HETATM    2  N2  UNL     1      26.147   7.920  48.144  1.00  0.00    -0.224 NA
HETATM    3  C6  UNL     1      24.947   8.240  48.679  1.00  0.00     0.236 A 
HETATM    4  N3  UNL     1      24.348   7.343  49.484  1.00  0.00    -0.241 NA
HETATM    5  C7  UNL     1      24.908   6.154  49.766  1.00  0.00     0.075 A 
HETATM    6  C8  UNL     1      26.146   5.819  49.216  1.00  0.00     0.050 A 
HETATM    7  C9  UNL     1      26.865   4.767  49.334  1.00  0.00    -0.006 C 
HETATM    8  C10 UNL     1      26.420   3.592  49.751  1.00  0.00     0.045 C 
HETATM    9  C11 UNL     1      25.402   3.262  50.777  1.00  0.00     0.068 C 
HETATM   10  C12 UNL     1      24.446   4.124  51.072  1.00  0.00     0.100 C 
HETATM   11  C13 UNL     1      24.119   5.455  50.582  1.00  0.00     0.071 C 
HETATM   12  O1  UNL     1      23.713   3.496  52.030  1.00  0.00    -0.324 OA
HETATM   13  C14 UNL     1      24.035   2.123  52.114  1.00  0.00     0.227 C 
HETATM   14  C15 UNL     1      23.021   1.390  51.225  1.00  0.00     0.064 C 
HETATM   15  N4  UNL     1      25.331   2.032  51.534  1.00  0.00    -0.336 N 
ENDROOT
BRANCH   1  16
HETATM   16  N1  UNL     1      28.029   6.462  47.794  1.00  0.00    -0.350 N 
HETATM   17  H6  UNL     1      27.895   5.465  47.455  1.00  0.00     0.166 HD
BRANCH  16  18
HETATM   18  C4  UNL     1      29.197   7.255  47.655  1.00  0.00     0.090 C 
HETATM   19  C3  UNL     1      30.508   7.251  47.767  1.00  0.00     0.023 C 
BRANCH  19  20
HETATM   20  C2  UNL     1      31.244   6.080  48.178  1.00  0.00    -0.062 C 
HETATM   21  C1  UNL     1      31.792   5.927  49.537  1.00  0.00     0.048 C 
HETATM   22  C21 UNL     1      31.409   5.136  47.269  1.00  0.00     0.011 C 
BRANCH  22  23
HETATM   23  C22 UNL     1      32.109   3.839  47.392  1.00  0.00     0.250 C 
HETATM   24  F1  UNL     1      31.652   3.010  46.361  1.00  0.00    -0.251 F 
ENDBRANCH  22  23
ENDBRANCH  19  20
ENDBRANCH  16  18
ENDBRANCH   1  16
BRANCH  15  25
HETATM   25  C16 UNL     1      26.468   1.102  51.509  1.00  0.00     0.246 C 
BRANCH  25  26
HETATM   26  N5  UNL     1      26.690   0.558  52.779  1.00  0.00    -0.393 N 
HETATM   27  C17 UNL     1      26.141  -0.736  53.064  1.00  0.00     0.145 C 
HETATM   28  C18 UNL     1      25.681  -0.656  54.529  1.00  0.00     0.187 C 
HETATM   29  O2  UNL     1      26.680  -0.013  55.259  1.00  0.00    -0.388 OA
HETATM   30  C19 UNL     1      27.941  -0.102  54.672  1.00  0.00     0.187 C 
HETATM   31  C20 UNL     1      28.013   0.632  53.333  1.00  0.00     0.145 C 
ENDBRANCH  25  26
ENDBRANCH  15  25
TORSDOF 6
ENDMDL
MODEL 8
REMARK VINA RESULT:      -7.2      4.420      7.544
REMARK  6 active torsions:
REMARK  status: ('A' for Active; 'I' for Inactive)
REMARK    1  A    between atoms: C2_2  and  C3_3 
REMARK    2  A    between atoms: C4_4  and  N1_5 
REMARK    3  A    between atoms: N1_5  and  C5_6 
REMARK    4  A    between atoms: N4_20  and  C16_21 
REMARK    5  A    between atoms: C16_21  and  N5_22 
REMARK    6  A    between atoms: C21_28  and  C22_29 
ROOT
HETATM    1  C5  UNL     1      23.593   3.742  49.908  1.00  0.00     0.142 A 
HETATM    2  N2  UNL     1      22.302   4.147  49.964  1.00  0.00    -0.224 NA
HETATM    3  C6  UNL     1      21.899   5.360  49.519  1.00  0.00     0.236 A 
HETATM    4  N3  UNL     1      22.826   6.188  49.004  1.00  0.00    -0.241 NA
HETATM    5  C7  UNL     1      24.123   5.844  48.921  1.00  0.00     0.075 A 
HETATM    6  C8  UNL     1      24.542   4.594  49.378  1.00  0.00     0.050 A 
HETATM    7  C9  UNL     1      25.700   4.050  49.405  1.00  0.00    -0.006 C 
HETATM    8  C10 UNL     1      26.845   4.707  49.307  1.00  0.00     0.045 C 
HETATM    9  C11 UNL     1      27.197   5.904  48.506  1.00  0.00     0.068 C 
HETATM   10  C12 UNL     1      26.265   6.768  48.148  1.00  0.00     0.100 C 
HETATM   11  C13 UNL     1      24.828   6.833  48.374  1.00  0.00     0.071 C 
HETATM   12  O1  UNL     1      26.939   7.715  47.442  1.00  0.00    -0.324 OA
HETATM   13  C14 UNL     1      28.335   7.598  47.618  1.00  0.00     0.227 C 
HETATM   14  C15 UNL     1      28.705   8.556  48.759  1.00  0.00     0.064 C 
HETATM   15  N4  UNL     1      28.523   6.254  48.045  1.00  0.00    -0.336 N 
ENDROOT
BRANCH   1  16
HETATM   16  N1  UNL     1      23.951   2.448  50.393  1.00  0.00    -0.350 N 
HETATM   17  H6  UNL     1      24.434   2.028  49.546  1.00  0.00     0.166 HD
BRANCH  16  18
HETATM   18  C4  UNL     1      23.753   1.827  51.652  1.00  0.00     0.090 C 
HETATM   19  C3  UNL     1      24.313   1.060  52.563  1.00  0.00     0.023 C 
BRANCH  19  20
HETATM   20  C2  UNL     1      25.652   0.540  52.417  1.00  0.00    -0.062 C 
HETATM   21  C1  UNL     1      26.767   1.358  51.907  1.00  0.00     0.048 C 
HETATM   22  C21 UNL     1      25.838  -0.720  52.764  1.00  0.00     0.011 C 
BRANCH  22  23
HETATM   23  C22 UNL     1      27.081  -1.521  52.729  1.00  0.00     0.250 C 
HETATM   24  F1  UNL     1      26.821  -2.677  51.984  1.00  0.00    -0.251 F 
ENDBRANCH  22  23
ENDBRANCH  19  20
ENDBRANCH  16  18
ENDBRANCH   1  16
BRANCH  15  25
HETATM   25  C16 UNL     1      29.603   5.262  48.135  1.00  0.00     0.246 C 
BRANCH  25  26
HETATM   26  N5  UNL     1      30.854   5.890  48.109  1.00  0.00    -0.393 N 
HETATM   27  C17 UNL     1      31.533   6.094  49.356  1.00  0.00     0.145 C 
HETATM   28  C18 UNL     1      32.212   7.466  49.217  1.00  0.00     0.187 C 
HETATM   29  O2  UNL     1      32.792   7.532  47.950  1.00  0.00    -0.388 OA
HETATM   30  C19 UNL     1      33.075   6.281  47.402  1.00  0.00     0.187 C 
HETATM   31  C20 UNL     1      31.811   5.468  47.124  1.00  0.00     0.145 C 
ENDBRANCH  25  26
ENDBRANCH  15  25
TORSDOF 6
ENDMDL
MODEL 9
REMARK VINA RESULT:      -7.1      3.774      6.523
REMARK  6 active torsions:
REMARK  status: ('A' for Active; 'I' for Inactive)
REMARK    1  A    between atoms: C2_2  and  C3_3 
REMARK    2  A    between atoms: C4_4  and  N1_5 
REMARK    3  A    between atoms: N1_5  and  C5_6 
REMARK    4  A    between atoms: N4_20  and  C16_21 
REMARK    5  A    between atoms: C16_21  and  N5_22 
REMARK    6  A    between atoms: C21_28  and  C22_29 
ROOT
HETATM    1  C5  UNL     1      22.513  -0.003  53.060  1.00  0.00     0.142 A 
HETATM    2  N2  UNL     1      23.121  -0.568  54.131  1.00  0.00    -0.224 NA
HETATM    3  C6  UNL     1      22.465  -1.368  55.003  1.00  0.00     0.236 A 
HETATM    4  N3  UNL     1      21.157  -1.605  54.789  1.00  0.00    -0.241 NA
HETATM    5  C7  UNL     1      20.498  -1.074  53.744  1.00  0.00     0.075 A 
HETATM    6  C8  UNL     1      21.172  -0.249  52.843  1.00  0.00     0.050 A 
HETATM    7  C9  UNL     1      20.767   0.361  51.793  1.00  0.00    -0.006 C 
HETATM    8  C10 UNL     1      19.499   0.620  51.512  1.00  0.00     0.045 C 
HETATM    9  C11 UNL     1      18.279  -0.182  51.769  1.00  0.00     0.068 C 
HETATM   10  C12 UNL     1      18.248  -1.056  52.758  1.00  0.00     0.100 C 
HETATM   11  C13 UNL     1      19.224  -1.463  53.758  1.00  0.00     0.071 C 
HETATM   12  O1  UNL     1      16.999  -1.590  52.694  1.00  0.00    -0.324 OA
HETATM   13  C14 UNL     1      16.152  -0.832  51.855  1.00  0.00     0.227 C 
HETATM   14  C15 UNL     1      15.405   0.147  52.772  1.00  0.00     0.064 C 
HETATM   15  N4  UNL     1      17.046  -0.111  51.015  1.00  0.00    -0.336 N 
ENDROOT
BRANCH   1  16
HETATM   16  N1  UNL     1      23.263   0.830  52.177  1.00  0.00    -0.350 N 
HETATM   17  H6  UNL     1      22.714   0.735  51.274  1.00  0.00     0.166 HD
BRANCH  16  18
HETATM   18  C4  UNL     1      24.432   1.606  52.382  1.00  0.00     0.090 C 
HETATM   19  C3  UNL     1      25.672   1.570  52.822  1.00  0.00     0.023 C 
BRANCH  19  20
HETATM   20  C2  UNL     1      26.273   0.366  53.341  1.00  0.00    -0.062 C 
HETATM   21  C1  UNL     1      26.582   0.188  54.771  1.00  0.00     0.048 C 
HETATM   22  C21 UNL     1      26.539  -0.587  52.465  1.00  0.00     0.011 C 
BRANCH  22  23
HETATM   23  C22 UNL     1      27.145  -1.917  52.693  1.00  0.00     0.250 C 
HETATM   24  F1  UNL     1      28.508  -1.726  52.945  1.00  0.00    -0.251 F 
ENDBRANCH  22  23
ENDBRANCH  19  20
ENDBRANCH  16  18
ENDBRANCH   1  16
BRANCH  15  25
HETATM   25  C16 UNL     1      17.022   0.611  49.736  1.00  0.00     0.246 C 
BRANCH  25  26
HETATM   26  N5  UNL     1      16.661   1.949  49.930  1.00  0.00    -0.393 N 
HETATM   27  C17 UNL     1      17.517   2.964  49.387  1.00  0.00     0.145 C 
HETATM   28  C18 UNL     1      17.506   4.091  50.434  1.00  0.00     0.187 C 
HETATM   29  O2  UNL     1      16.189   4.272  50.857  1.00  0.00    -0.388 OA
HETATM   30  C19 UNL     1      15.243   3.839  49.929  1.00  0.00     0.187 C 
HETATM   31  C20 UNL     1      15.293   2.328  49.707  1.00  0.00     0.145 C 
ENDBRANCH  25  26
ENDBRANCH  15  25
TORSDOF 6
ENDMDL
