MODEL 1
REMARK VINA RESULT:      -7.6      0.000      0.000
REMARK  8 active torsions:
REMARK  status: ('A' for Active; 'I' for Inactive)
REMARK    1  A    between atoms: C5_5  and  O1_6 
REMARK    2  A    between atoms: O1_6  and  C6_7 
REMARK    3  A    between atoms: C6_7  and  C7_8 
REMARK    4  A    between atoms: C7_8  and  C8_9 
REMARK    5  A    between atoms: C11_12  and  O2_13 
REMARK    6  A    between atoms: N2_19  and  C16_20 
REMARK    7  A    between atoms: C16_20  and  C17_21 
REMARK    8  A    between atoms: C17_21  and  N3_22 
ROOT
HETATM    1  C1  UNL     1      21.144  -1.734  54.392  1.00  0.00     0.064 C 
HETATM    2  C2  UNL     1      21.072  -0.714  53.561  1.00  0.00     0.025 A 
HETATM    3  C3  UNL     1      22.062   0.275  53.169  1.00  0.00     0.019 A 
HETATM    4  C4  UNL     1      23.312   0.891  53.172  1.00  0.00     0.073 A 
HETATM    5  C5  UNL     1      23.588   2.000  52.403  1.00  0.00     0.164 A 
HETATM    6  N1  UNL     1      22.587   2.478  51.633  1.00  0.00    -0.235 NA
HETATM    7  C14 UNL     1      21.363   1.923  51.591  1.00  0.00     0.150 A 
HETATM    8  C15 UNL     1      21.073   0.807  52.359  1.00  0.00     0.065 A 
HETATM    9  N2  UNL     1      20.068  -0.162  52.728  1.00  0.00    -0.346 N 
ENDROOT
BRANCH   5  10
HETATM   10  O1  UNL     1      24.858   2.612  52.416  1.00  0.00    -0.334 OA
BRANCH  10  11
HETATM   11  C6  UNL     1      25.806   2.085  53.339  1.00  0.00     0.182 C 
BRANCH  11  12
HETATM   12  C7  UNL     1      27.088   1.834  52.600  1.00  0.00     0.065 C 
BRANCH  12  13
HETATM   13  C8  UNL     1      27.483   0.429  52.784  1.00  0.00    -0.056 A 
HETATM   14  C9  UNL     1      26.642  -0.600  52.377  1.00  0.00     0.010 A 
HETATM   15  C10 UNL     1      27.021  -1.937  52.549  1.00  0.00     0.037 A 
HETATM   16  C11 UNL     1      28.242  -2.164  53.131  1.00  0.00     0.065 A 
HETATM   17  C12 UNL     1      29.117  -1.187  53.555  1.00  0.00     0.037 A 
HETATM   18  C13 UNL     1      28.696   0.095  53.362  1.00  0.00     0.010 A 
BRANCH  16  19
HETATM   19  O2  UNL     1      28.589  -3.499  53.289  1.00  0.00    -0.361 OA
HETATM   20  H10 UNL     1      29.554  -3.715  53.002  1.00  0.00     0.217 HD
ENDBRANCH  16  19
ENDBRANCH  12  13
ENDBRANCH  11  12
ENDBRANCH  10  11
ENDBRANCH   5  10
BRANCH   9  21
HETATM   21  C16 UNL     1      18.696  -0.369  52.348  1.00  0.00     0.159 C 
BRANCH  21  22
HETATM   22  C17 UNL     1      17.940  -1.171  53.390  1.00  0.00     0.286 C 
BRANCH  22  23
HETATM   23  N3  UNL     1      16.529  -1.040  53.119  1.00  0.00     0.079 N 
HETATM   24  H18 UNL     1      16.211  -1.657  52.338  1.00  0.00     0.312 HD
HETATM   25  H19 UNL     1      16.216  -0.065  53.042  1.00  0.00     0.312 HD
ENDBRANCH  22  23
ENDBRANCH  21  22
ENDBRANCH   9  21
TORSDOF 8
ENDMDL
MODEL 2
REMARK VINA RESULT:      -7.4      4.031      6.981
REMARK  8 active torsions:
REMARK  status: ('A' for Active; 'I' for Inactive)
REMARK    1  A    between atoms: C5_5  and  O1_6 
REMARK    2  A    between atoms: O1_6  and  C6_7 
REMARK    3  A    between atoms: C6_7  and  C7_8 
REMARK    4  A    between atoms: C7_8  and  C8_9 
REMARK    5  A    between atoms: C11_12  and  O2_13 
REMARK    6  A    between atoms: N2_19  and  C16_20 
REMARK    7  A    between atoms: C16_20  and  C17_21 
REMARK    8  A    between atoms: C17_21  and  N3_22 
ROOT
HETATM    1  C1  UNL     1      26.705  -1.919  52.393  1.00  0.00     0.064 C 
HETATM    2  C2  UNL     1      26.547  -0.705  52.880  1.00  0.00     0.025 A 
HETATM    3  C3  UNL     1      25.561   0.323  52.590  1.00  0.00     0.019 A 
HETATM    4  C4  UNL     1      24.451   0.874  51.955  1.00  0.00     0.073 A 
HETATM    5  C5  UNL     1      23.999   2.145  52.233  1.00  0.00     0.164 A 
HETATM    6  N1  UNL     1      24.684   2.851  53.158  1.00  0.00    -0.235 NA
HETATM    7  C14 UNL     1      25.761   2.369  53.802  1.00  0.00     0.150 A 
HETATM    8  C15 UNL     1      26.224   1.092  53.532  1.00  0.00     0.065 A 
HETATM    9  N2  UNL     1      27.218   0.090  53.841  1.00  0.00    -0.346 N 
ENDROOT
BRANCH   5  10
HETATM   10  O1  UNL     1      22.873   2.689  51.583  1.00  0.00    -0.334 OA
BRANCH  10  11
HETATM   11  C6  UNL     1      22.903   2.691  50.158  1.00  0.00     0.182 C 
BRANCH  11  12
HETATM   12  C7  UNL     1      23.055   4.112  49.696  1.00  0.00     0.065 C 
BRANCH  12  13
HETATM   13  C8  UNL     1      24.483   4.397  49.481  1.00  0.00    -0.056 A 
HETATM   14  C9  UNL     1      24.909   5.689  49.193  1.00  0.00     0.010 A 
HETATM   15  C10 UNL     1      26.267   5.959  48.991  1.00  0.00     0.037 A 
HETATM   16  C11 UNL     1      27.132   4.898  49.092  1.00  0.00     0.065 A 
HETATM   17  C12 UNL     1      26.768   3.599  49.374  1.00  0.00     0.037 A 
HETATM   18  C13 UNL     1      25.434   3.394  49.560  1.00  0.00     0.010 A 
BRANCH  16  19
HETATM   19  O2  UNL     1      28.472   5.199  48.887  1.00  0.00    -0.361 OA
HETATM   20  H10 UNL     1      29.109   4.415  49.088  1.00  0.00     0.217 HD
ENDBRANCH  16  19
ENDBRANCH  12  13
ENDBRANCH  11  12
ENDBRANCH  10  11
ENDBRANCH   5  10
BRANCH   9  21
HETATM   21  C16 UNL     1      28.335   0.040  54.745  1.00  0.00     0.159 C 
BRANCH  21  22
HETATM   22  C17 UNL     1      29.559   0.720  54.163  1.00  0.00     0.286 C 
BRANCH  22  23
HETATM   23  N3  UNL     1      29.487   2.125  54.484  1.00  0.00     0.079 N 
HETATM   24  H18 UNL     1      28.520   2.509  54.392  1.00  0.00     0.312 HD
HETATM   25  H19 UNL     1      30.211   2.688  54.022  1.00  0.00     0.312 HD
ENDBRANCH  22  23
ENDBRANCH  21  22
ENDBRANCH   9  21
TORSDOF 8
ENDMDL
MODEL 3
REMARK VINA RESULT:      -7.3      4.097      7.037
REMARK  8 active torsions:
REMARK  status: ('A' for Active; 'I' for Inactive)
REMARK    1  A    between atoms: C5_5  and  O1_6 
REMARK    2  A    between atoms: O1_6  and  C6_7 
REMARK    3  A    between atoms: C6_7  and  C7_8 
REMARK    4  A    between atoms: C7_8  and  C8_9 
REMARK    5  A    between atoms: C11_12  and  O2_13 
REMARK    6  A    between atoms: N2_19  and  C16_20 
REMARK    7  A    between atoms: C16_20  and  C17_21 
REMARK    8  A    between atoms: C17_21  and  N3_22 
ROOT
HETATM    1  C1  UNL     1      28.254   5.011  48.442  1.00  0.00     0.064 C 
HETATM    2  C2  UNL     1      27.018   5.253  48.830  1.00  0.00     0.025 A 
HETATM    3  C3  UNL     1      26.016   4.388  49.431  1.00  0.00     0.019 A 
HETATM    4  C4  UNL     1      25.510   3.193  49.939  1.00  0.00     0.073 A 
HETATM    5  C5  UNL     1      24.230   3.090  50.440  1.00  0.00     0.164 A 
HETATM    6  N1  UNL     1      23.471   4.207  50.419  1.00  0.00    -0.235 NA
HETATM    7  C14 UNL     1      23.909   5.384  49.942  1.00  0.00     0.150 A 
HETATM    8  C15 UNL     1      25.193   5.501  49.436  1.00  0.00     0.065 A 
HETATM    9  N2  UNL     1      26.168   6.386  48.840  1.00  0.00    -0.346 N 
ENDROOT
BRANCH   5  10
HETATM   10  O1  UNL     1      23.732   1.875  50.951  1.00  0.00    -0.334 OA
BRANCH  10  11
HETATM   11  C6  UNL     1      23.539   1.813  52.361  1.00  0.00     0.182 C 
BRANCH  11  12
HETATM   12  C7  UNL     1      24.113   0.517  52.855  1.00  0.00     0.065 C 
BRANCH  12  13
HETATM   13  C8  UNL     1      25.568   0.668  53.021  1.00  0.00    -0.056 A 
HETATM   14  C9  UNL     1      26.423  -0.394  52.749  1.00  0.00     0.010 A 
HETATM   15  C10 UNL     1      27.807  -0.249  52.903  1.00  0.00     0.037 A 
HETATM   16  C11 UNL     1      28.256   0.976  53.329  1.00  0.00     0.065 A 
HETATM   17  C12 UNL     1      27.458   2.063  53.614  1.00  0.00     0.037 A 
HETATM   18  C13 UNL     1      26.120   1.863  53.447  1.00  0.00     0.010 A 
BRANCH  16  19
HETATM   19  O2  UNL     1      29.633   1.089  53.473  1.00  0.00    -0.361 OA
HETATM   20  H10 UNL     1      30.076   0.261  53.898  1.00  0.00     0.217 HD
ENDBRANCH  16  19
ENDBRANCH  12  13
ENDBRANCH  11  12
ENDBRANCH  10  11
ENDBRANCH   5  10
BRANCH   9  21
HETATM   21  C16 UNL     1      26.160   7.777  48.475  1.00  0.00     0.159 C 
BRANCH  21  22
HETATM   22  C17 UNL     1      27.209   8.564  49.236  1.00  0.00     0.286 C 
BRANCH  22  23
HETATM   23  N3  UNL     1      26.889   8.495  50.641  1.00  0.00     0.079 N 
HETATM   24  H18 UNL     1      26.131   7.807  50.847  1.00  0.00     0.312 HD
HETATM   25  H19 UNL     1      26.754   9.415  51.076  1.00  0.00     0.312 HD
ENDBRANCH  22  23
ENDBRANCH  21  22
ENDBRANCH   9  21
TORSDOF 8
ENDMDL
MODEL 4
REMARK VINA RESULT:      -7.3      3.369      7.926
REMARK  8 active torsions:
REMARK  status: ('A' for Active; 'I' for Inactive)
REMARK    1  A    between atoms: C5_5  and  O1_6 
REMARK    2  A    between atoms: O1_6  and  C6_7 
REMARK    3  A    between atoms: C6_7  and  C7_8 
REMARK    4  A    between atoms: C7_8  and  C8_9 
REMARK    5  A    between atoms: C11_12  and  O2_13 
REMARK    6  A    between atoms: N2_19  and  C16_20 
REMARK    7  A    between atoms: C16_20  and  C17_21 
REMARK    8  A    between atoms: C17_21  and  N3_22 
ROOT
HETATM    1  C1  UNL     1      26.634   0.976  51.927  1.00  0.00     0.064 C 
HETATM    2  C2  UNL     1      26.291   0.406  53.063  1.00  0.00     0.025 A 
HETATM    3  C3  UNL     1      25.010  -0.096  53.536  1.00  0.00     0.019 A 
HETATM    4  C4  UNL     1      23.648  -0.378  53.454  1.00  0.00     0.073 A 
HETATM    5  C5  UNL     1      22.959  -0.984  54.481  1.00  0.00     0.164 A 
HETATM    6  N1  UNL     1      23.663  -1.301  55.590  1.00  0.00    -0.235 NA
HETATM    7  C14 UNL     1      24.977  -1.053  55.722  1.00  0.00     0.150 A 
HETATM    8  C15 UNL     1      25.681  -0.444  54.696  1.00  0.00     0.065 A 
HETATM    9  N2  UNL     1      26.967   0.045  54.255  1.00  0.00    -0.346 N 
ENDROOT
BRANCH   5  10
HETATM   10  O1  UNL     1      21.581  -1.264  54.384  1.00  0.00    -0.334 OA
BRANCH  10  11
HETATM   11  C6  UNL     1      20.723  -0.149  54.159  1.00  0.00     0.182 C 
BRANCH  11  12
HETATM   12  C7  UNL     1      19.562  -0.613  53.329  1.00  0.00     0.065 C 
BRANCH  12  13
HETATM   13  C8  UNL     1      19.611   0.054  52.018  1.00  0.00    -0.056 A 
HETATM   14  C9  UNL     1      18.437   0.378  51.346  1.00  0.00     0.010 A 
HETATM   15  C10 UNL     1      18.485   1.016  50.101  1.00  0.00     0.037 A 
HETATM   16  C11 UNL     1      19.730   1.296  49.597  1.00  0.00     0.065 A 
HETATM   17  C12 UNL     1      20.926   0.999  50.215  1.00  0.00     0.037 A 
HETATM   18  C13 UNL     1      20.818   0.378  51.424  1.00  0.00     0.010 A 
BRANCH  16  19
HETATM   19  O2  UNL     1      19.745   1.928  48.360  1.00  0.00    -0.361 OA
HETATM   20  H10 UNL     1      18.997   2.627  48.243  1.00  0.00     0.217 HD
ENDBRANCH  16  19
ENDBRANCH  12  13
ENDBRANCH  11  12
ENDBRANCH  10  11
ENDBRANCH   5  10
BRANCH   9  21
HETATM   21  C16 UNL     1      28.276   0.086  54.849  1.00  0.00     0.159 C 
BRANCH  21  22
HETATM   22  C17 UNL     1      29.309  -0.607  53.982  1.00  0.00     0.286 C 
BRANCH  22  23
HETATM   23  N3  UNL     1      30.134   0.407  53.371  1.00  0.00     0.079 N 
HETATM   24  H18 UNL     1      30.893   0.003  52.778  1.00  0.00     0.312 HD
HETATM   25  H19 UNL     1      30.450   1.129  54.029  1.00  0.00     0.312 HD
ENDBRANCH  22  23
ENDBRANCH  21  22
ENDBRANCH   9  21
TORSDOF 8
ENDMDL
MODEL 5
REMARK VINA RESULT:      -7.3      2.976      5.507
REMARK  8 active torsions:
REMARK  status: ('A' for Active; 'I' for Inactive)
REMARK    1  A    between atoms: C5_5  and  O1_6 
REMARK    2  A    between atoms: O1_6  and  C6_7 
REMARK    3  A    between atoms: C6_7  and  C7_8 
REMARK    4  A    between atoms: C7_8  and  C8_9 
REMARK    5  A    between atoms: C11_12  and  O2_13 
REMARK    6  A    between atoms: N2_19  and  C16_20 
REMARK    7  A    between atoms: C16_20  and  C17_21 
REMARK    8  A    between atoms: C17_21  and  N3_22 
ROOT
HETATM    1  C1  UNL     1      26.670   3.534  49.531  1.00  0.00     0.064 C 
HETATM    2  C2  UNL     1      25.520   3.818  50.106  1.00  0.00     0.025 A 
HETATM    3  C3  UNL     1      24.665   3.032  50.982  1.00  0.00     0.019 A 
HETATM    4  C4  UNL     1      24.290   1.909  51.716  1.00  0.00     0.073 A 
HETATM    5  C5  UNL     1      23.126   1.865  52.451  1.00  0.00     0.164 A 
HETATM    6  N1  UNL     1      22.347   2.968  52.433  1.00  0.00    -0.235 NA
HETATM    7  C14 UNL     1      22.661   4.078  51.744  1.00  0.00     0.150 A 
HETATM    8  C15 UNL     1      23.829   4.135  51.001  1.00  0.00     0.065 A 
HETATM    9  N2  UNL     1      24.656   4.941  50.134  1.00  0.00    -0.346 N 
ENDROOT
BRANCH   5  10
HETATM   10  O1  UNL     1      22.760   0.721  53.190  1.00  0.00    -0.334 OA
BRANCH  10  11
HETATM   11  C6  UNL     1      23.612  -0.413  53.064  1.00  0.00     0.182 C 
BRANCH  11  12
HETATM   12  C7  UNL     1      24.332  -0.603  54.367  1.00  0.00     0.065 C 
BRANCH  12  13
HETATM   13  C8  UNL     1      25.783  -0.526  54.131  1.00  0.00    -0.056 A 
HETATM   14  C9  UNL     1      26.353  -1.156  53.030  1.00  0.00     0.010 A 
HETATM   15  C10 UNL     1      27.733  -1.079  52.805  1.00  0.00     0.037 A 
HETATM   16  C11 UNL     1      28.469  -0.362  53.714  1.00  0.00     0.065 A 
HETATM   17  C12 UNL     1      27.961   0.282  54.821  1.00  0.00     0.037 A 
HETATM   18  C13 UNL     1      26.613   0.173  54.991  1.00  0.00     0.010 A 
BRANCH  16  19
HETATM   19  O2  UNL     1      29.834  -0.304  53.463  1.00  0.00    -0.361 OA
HETATM   20  H10 UNL     1      30.094   0.378  52.736  1.00  0.00     0.217 HD
ENDBRANCH  16  19
ENDBRANCH  12  13
ENDBRANCH  11  12
ENDBRANCH  10  11
ENDBRANCH   5  10
BRANCH   9  21
HETATM   21  C16 UNL     1      24.546   6.275  49.609  1.00  0.00     0.159 C 
BRANCH  21  22
HETATM   22  C17 UNL     1      25.189   7.296  50.529  1.00  0.00     0.286 C 
BRANCH  22  23
HETATM   23  N3  UNL     1      24.202   7.710  51.497  1.00  0.00     0.079 N 
HETATM   24  H18 UNL     1      23.257   7.308  51.304  1.00  0.00     0.312 HD
HETATM   25  H19 UNL     1      24.203   8.721  51.674  1.00  0.00     0.312 HD
ENDBRANCH  22  23
ENDBRANCH  21  22
ENDBRANCH   9  21
TORSDOF 8
ENDMDL
MODEL 6
REMARK VINA RESULT:      -7.3      4.777      7.918
REMARK  8 active torsions:
REMARK  status: ('A' for Active; 'I' for Inactive)
REMARK    1  A    between atoms: C5_5  and  O1_6 
REMARK    2  A    between atoms: O1_6  and  C6_7 
REMARK    3  A    between atoms: C6_7  and  C7_8 
REMARK    4  A    between atoms: C7_8  and  C8_9 
REMARK    5  A    between atoms: C11_12  and  O2_13 
REMARK    6  A    between atoms: N2_19  and  C16_20 
REMARK    7  A    between atoms: C16_20  and  C17_21 
REMARK    8  A    between atoms: C17_21  and  N3_22 
ROOT
HETATM    1  C1  UNL     1      29.488   5.273  48.179  1.00  0.00     0.064 C 
HETATM    2  C2  UNL     1      28.246   5.636  48.428  1.00  0.00     0.025 A 
HETATM    3  C3  UNL     1      27.108   4.881  48.927  1.00  0.00     0.019 A 
HETATM    4  C4  UNL     1      26.440   3.750  49.392  1.00  0.00     0.073 A 
HETATM    5  C5  UNL     1      25.111   3.777  49.752  1.00  0.00     0.164 A 
HETATM    6  N1  UNL     1      24.467   4.958  49.635  1.00  0.00    -0.235 NA
HETATM    7  C14 UNL     1      25.062   6.079  49.193  1.00  0.00     0.150 A 
HETATM    8  C15 UNL     1      26.399   6.065  48.829  1.00  0.00     0.065 A 
HETATM    9  N2  UNL     1      27.510   6.842  48.332  1.00  0.00    -0.346 N 
ENDROOT
BRANCH   5  10
HETATM   10  O1  UNL     1      24.448   2.624  50.221  1.00  0.00    -0.334 OA
BRANCH  10  11
HETATM   11  C6  UNL     1      24.338   2.489  51.635  1.00  0.00     0.182 C 
BRANCH  11  12
HETATM   12  C7  UNL     1      24.678   1.073  51.997  1.00  0.00     0.065 C 
BRANCH  12  13
HETATM   13  C8  UNL     1      26.069   1.019  52.474  1.00  0.00    -0.056 A 
HETATM   14  C9  UNL     1      26.752   2.187  52.793  1.00  0.00     0.010 A 
HETATM   15  C10 UNL     1      28.074   2.134  53.250  1.00  0.00     0.037 A 
HETATM   16  C11 UNL     1      28.641   0.890  53.361  1.00  0.00     0.065 A 
HETATM   17  C12 UNL     1      28.015  -0.301  53.060  1.00  0.00     0.037 A 
HETATM   18  C13 UNL     1      26.730  -0.188  52.620  1.00  0.00     0.010 A 
BRANCH  16  19
HETATM   19  O2  UNL     1      29.953   0.871  53.817  1.00  0.00    -0.361 OA
HETATM   20  H10 UNL     1      30.616   0.441  53.156  1.00  0.00     0.217 HD
ENDBRANCH  16  19
ENDBRANCH  12  13
ENDBRANCH  11  12
ENDBRANCH  10  11
ENDBRANCH   5  10
BRANCH   9  21
HETATM   21  C16 UNL     1      27.672   8.220  47.950  1.00  0.00     0.159 C 
BRANCH  21  22
HETATM   22  C17 UNL     1      27.884   9.115  49.156  1.00  0.00     0.286 C 
BRANCH  22  23
HETATM   23  N3  UNL     1      29.228   8.908  49.638  1.00  0.00     0.079 N 
HETATM   24  H18 UNL     1      29.942   9.404  49.059  1.00  0.00     0.312 HD
HETATM   25  H19 UNL     1      29.447   7.923  49.828  1.00  0.00     0.312 HD
ENDBRANCH  22  23
ENDBRANCH  21  22
ENDBRANCH   9  21
TORSDOF 8
ENDMDL
MODEL 7
REMARK VINA RESULT:      -7.2      3.385      7.392
REMARK  8 active torsions:
REMARK  status: ('A' for Active; 'I' for Inactive)
REMARK    1  A    between atoms: C5_5  and  O1_6 
REMARK    2  A    between atoms: O1_6  and  C6_7 
REMARK    3  A    between atoms: C6_7  and  C7_8 
REMARK    4  A    between atoms: C7_8  and  C8_9 
REMARK    5  A    between atoms: C11_12  and  O2_13 
REMARK    6  A    between atoms: N2_19  and  C16_20 
REMARK    7  A    between atoms: C16_20  and  C17_21 
REMARK    8  A    between atoms: C17_21  and  N3_22 
ROOT
HETATM    1  C1  UNL     1      25.032  -0.960  55.402  1.00  0.00     0.064 C 
HETATM    2  C2  UNL     1      25.613  -0.174  54.520  1.00  0.00     0.025 A 
HETATM    3  C3  UNL     1      25.076   0.548  53.377  1.00  0.00     0.019 A 
HETATM    4  C4  UNL     1      24.084   0.972  52.496  1.00  0.00     0.073 A 
HETATM    5  C5  UNL     1      24.350   1.817  51.441  1.00  0.00     0.164 A 
HETATM    6  N1  UNL     1      25.628   2.225  51.288  1.00  0.00    -0.235 NA
HETATM    7  C14 UNL     1      26.623   1.848  52.108  1.00  0.00     0.150 A 
HETATM    8  C15 UNL     1      26.369   0.999  53.173  1.00  0.00     0.065 A 
HETATM    9  N2  UNL     1      26.932   0.294  54.302  1.00  0.00    -0.346 N 
ENDROOT
BRANCH   5  10
HETATM   10  O1  UNL     1      23.336   2.239  50.557  1.00  0.00    -0.334 OA
BRANCH  10  11
HETATM   11  C6  UNL     1      21.996   2.117  51.027  1.00  0.00     0.182 C 
BRANCH  11  12
HETATM   12  C7  UNL     1      21.408   0.866  50.441  1.00  0.00     0.065 C 
BRANCH  12  13
HETATM   13  C8  UNL     1      20.425   0.310  51.385  1.00  0.00    -0.056 A 
HETATM   14  C9  UNL     1      19.074   0.273  51.057  1.00  0.00     0.010 A 
HETATM   15  C10 UNL     1      18.141  -0.259  51.954  1.00  0.00     0.037 A 
HETATM   16  C11 UNL     1      18.628  -0.731  53.147  1.00  0.00     0.065 A 
HETATM   17  C12 UNL     1      19.953  -0.722  53.526  1.00  0.00     0.037 A 
HETATM   18  C13 UNL     1      20.816  -0.191  52.614  1.00  0.00     0.010 A 
BRANCH  16  19
HETATM   19  O2  UNL     1      17.677  -1.253  54.015  1.00  0.00    -0.361 OA
HETATM   20  H10 UNL     1      17.544  -2.270  53.922  1.00  0.00     0.217 HD
ENDBRANCH  16  19
ENDBRANCH  12  13
ENDBRANCH  11  12
ENDBRANCH  10  11
ENDBRANCH   5  10
BRANCH   9  21
HETATM   21  C16 UNL     1      28.256   0.196  54.856  1.00  0.00     0.159 C 
BRANCH  21  22
HETATM   22  C17 UNL     1      29.196  -0.557  53.933  1.00  0.00     0.286 C 
BRANCH  22  23
HETATM   23  N3  UNL     1      30.137   0.389  53.383  1.00  0.00     0.079 N 
HETATM   24  H18 UNL     1      30.007   1.353  53.765  1.00  0.00     0.312 HD
HETATM   25  H19 UNL     1      30.208   0.347  52.359  1.00  0.00     0.312 HD
ENDBRANCH  22  23
ENDBRANCH  21  22
ENDBRANCH   9  21
TORSDOF 8
ENDMDL
MODEL 8
REMARK VINA RESULT:      -7.1      4.854      8.401
REMARK  8 active torsions:
REMARK  status: ('A' for Active; 'I' for Inactive)
REMARK    1  A    between atoms: C5_5  and  O1_6 
REMARK    2  A    between atoms: O1_6  and  C6_7 
REMARK    3  A    between atoms: C6_7  and  C7_8 
REMARK    4  A    between atoms: C7_8  and  C8_9 
REMARK    5  A    between atoms: C11_12  and  O2_13 
REMARK    6  A    between atoms: N2_19  and  C16_20 
REMARK    7  A    between atoms: C16_20  and  C17_21 
REMARK    8  A    between atoms: C17_21  and  N3_22 
ROOT
HETATM    1  C1  UNL     1      29.390   5.469  47.993  1.00  0.00     0.064 C 
HETATM    2  C2  UNL     1      28.193   5.810  48.424  1.00  0.00     0.025 A 
HETATM    3  C3  UNL     1      27.093   5.008  48.935  1.00  0.00     0.019 A 
HETATM    4  C4  UNL     1      26.445   3.832  49.307  1.00  0.00     0.073 A 
HETATM    5  C5  UNL     1      25.163   3.826  49.810  1.00  0.00     0.164 A 
HETATM    6  N1  UNL     1      24.544   5.021  49.930  1.00  0.00    -0.235 NA
HETATM    7  C14 UNL     1      25.122   6.185  49.587  1.00  0.00     0.150 A 
HETATM    8  C15 UNL     1      26.411   6.204  49.081  1.00  0.00     0.065 A 
HETATM    9  N2  UNL     1      27.486   7.028  48.578  1.00  0.00    -0.346 N 
ENDROOT
BRANCH   5  10
HETATM   10  O1  UNL     1      24.521   2.628  50.184  1.00  0.00    -0.334 OA
BRANCH  10  11
HETATM   11  C6  UNL     1      24.127   2.520  51.549  1.00  0.00     0.182 C 
BRANCH  11  12
HETATM   12  C7  UNL     1      24.742   1.272  52.115  1.00  0.00     0.065 C 
BRANCH  12  13
HETATM   13  C8  UNL     1      23.718   0.532  52.870  1.00  0.00    -0.056 A 
HETATM   14  C9  UNL     1      22.366   0.739  52.618  1.00  0.00     0.010 A 
HETATM   15  C10 UNL     1      21.394   0.032  53.334  1.00  0.00     0.037 A 
HETATM   16  C11 UNL     1      21.845  -0.856  54.278  1.00  0.00     0.065 A 
HETATM   17  C12 UNL     1      23.169  -1.103  54.572  1.00  0.00     0.037 A 
HETATM   18  C13 UNL     1      24.071  -0.386  53.844  1.00  0.00     0.010 A 
BRANCH  16  19
HETATM   19  O2  UNL     1      20.857  -1.542  54.972  1.00  0.00    -0.361 OA
HETATM   20  H10 UNL     1      21.159  -1.886  55.895  1.00  0.00     0.217 HD
ENDBRANCH  16  19
ENDBRANCH  12  13
ENDBRANCH  11  12
ENDBRANCH  10  11
ENDBRANCH   5  10
BRANCH   9  21
HETATM   21  C16 UNL     1      27.647   8.443  48.377  1.00  0.00     0.159 C 
BRANCH  21  22
HETATM   22  C17 UNL     1      28.730   9.018  49.269  1.00  0.00     0.286 C 
BRANCH  22  23
HETATM   23  N3  UNL     1      28.111   9.464  50.494  1.00  0.00     0.079 N 
HETATM   24  H18 UNL     1      27.116   9.157  50.576  1.00  0.00     0.312 HD
HETATM   25  H19 UNL     1      28.264  10.460  50.691  1.00  0.00     0.312 HD
ENDBRANCH  22  23
ENDBRANCH  21  22
ENDBRANCH   9  21
TORSDOF 8
ENDMDL
MODEL 9
REMARK VINA RESULT:      -6.9      4.566      6.584
REMARK  8 active torsions:
REMARK  status: ('A' for Active; 'I' for Inactive)
REMARK    1  A    between atoms: C5_5  and  O1_6 
REMARK    2  A    between atoms: O1_6  and  C6_7 
REMARK    3  A    between atoms: C6_7  and  C7_8 
REMARK    4  A    between atoms: C7_8  and  C8_9 
REMARK    5  A    between atoms: C11_12  and  O2_13 
REMARK    6  A    between atoms: N2_19  and  C16_20 
REMARK    7  A    between atoms: C16_20  and  C17_21 
REMARK    8  A    between atoms: C17_21  and  N3_22 
ROOT
HETATM    1  C1  UNL     1      26.958   7.563  47.881  1.00  0.00     0.064 C 
HETATM    2  C2  UNL     1      26.012   6.720  48.240  1.00  0.00     0.025 A 
HETATM    3  C3  UNL     1      26.077   5.449  48.943  1.00  0.00     0.019 A 
HETATM    4  C4  UNL     1      26.705   4.388  49.593  1.00  0.00     0.073 A 
HETATM    5  C5  UNL     1      26.002   3.320  50.105  1.00  0.00     0.164 A 
HETATM    6  N1  UNL     1      24.660   3.337  49.951  1.00  0.00    -0.235 NA
HETATM    7  C14 UNL     1      24.004   4.334  49.334  1.00  0.00     0.150 A 
HETATM    8  C15 UNL     1      24.699   5.414  48.815  1.00  0.00     0.065 A 
HETATM    9  N2  UNL     1      24.602   6.674  48.115  1.00  0.00    -0.346 N 
ENDROOT
BRANCH   5  10
HETATM   10  O1  UNL     1      26.650   2.254  50.762  1.00  0.00    -0.334 OA
BRANCH  10  11
HETATM   11  C6  UNL     1      26.376   2.105  52.152  1.00  0.00     0.182 C 
BRANCH  11  12
HETATM   12  C7  UNL     1      27.679   1.890  52.865  1.00  0.00     0.065 C 
BRANCH  12  13
HETATM   13  C8  UNL     1      27.932   0.445  52.979  1.00  0.00    -0.056 A 
HETATM   14  C9  UNL     1      26.938  -0.473  52.659  1.00  0.00     0.010 A 
HETATM   15  C10 UNL     1      27.180  -1.848  52.765  1.00  0.00     0.037 A 
HETATM   16  C11 UNL     1      28.428  -2.225  53.193  1.00  0.00     0.065 A 
HETATM   17  C12 UNL     1      29.451  -1.362  53.524  1.00  0.00     0.037 A 
HETATM   18  C13 UNL     1      29.158  -0.037  53.403  1.00  0.00     0.010 A 
BRANCH  16  19
HETATM   19  O2  UNL     1      28.638  -3.594  53.288  1.00  0.00    -0.361 OA
HETATM   20  H10 UNL     1      29.154  -3.878  54.134  1.00  0.00     0.217 HD
ENDBRANCH  16  19
ENDBRANCH  12  13
ENDBRANCH  11  12
ENDBRANCH  10  11
ENDBRANCH   5  10
BRANCH   9  21
HETATM   21  C16 UNL     1      23.505   7.437  47.583  1.00  0.00     0.159 C 
BRANCH  21  22
HETATM   22  C17 UNL     1      23.263   8.703  48.382  1.00  0.00     0.286 C 
BRANCH  22  23
HETATM   23  N3  UNL     1      23.257   8.356  49.783  1.00  0.00     0.079 N 
HETATM   24  H18 UNL     1      23.733   9.072  50.376  1.00  0.00     0.312 HD
HETATM   25  H19 UNL     1      23.554   7.390  49.966  1.00  0.00     0.312 HD
ENDBRANCH  22  23
ENDBRANCH  21  22
ENDBRANCH   9  21
TORSDOF 8
ENDMDL
