MODEL 1
REMARK VINA RESULT:      -8.7      0.000      0.000
REMARK  8 active torsions:
REMARK  status: ('A' for Active; 'I' for Inactive)
REMARK    1  A    between atoms: C1_2  and  C2_3 
REMARK       I    between atoms: C1_2  and  N2_11 
REMARK    2  A    between atoms: C3_4  and  C4_5 
REMARK    3  A    between atoms: C4_5  and  N1_6 
REMARK    4  A    between atoms: N1_6  and  C5_8 
REMARK    5  A    between atoms: C5_8  and  C6_9 
REMARK    6  A    between atoms: C6_9  and  O2_10 
REMARK    7  A    between atoms: C9_14  and  N3_15 
REMARK    8  A    between atoms: N3_15  and  C10_16 
ROOT
HETATM    1  O1  UNL     1      26.774   2.596  50.492  1.00  0.00    -0.258 OA
HETATM    2  C1  UNL     1      25.648   3.151  50.496  1.00  0.00     0.302 C 
HETATM    3  N2  UNL     1      24.493   2.639  51.198  1.00  0.00    -0.313 N 
HETATM    4  C7  UNL     1      24.608   1.433  51.929  1.00  0.00     0.113 A 
HETATM    5  C8  UNL     1      23.490   1.077  52.539  1.00  0.00     0.054 A 
HETATM    6  C9  UNL     1      23.571  -0.088  53.259  1.00  0.00     0.143 A 
HETATM    7  N4  UNL     1      22.492  -0.555  53.925  1.00  0.00    -0.223 NA
HETATM    8  C16 UNL     1      21.316   0.080  53.920  1.00  0.00     0.236 A 
HETATM    9  N5  UNL     1      21.216   1.236  53.213  1.00  0.00    -0.241 NA
HETATM   10  C17 UNL     1      22.277   1.717  52.543  1.00  0.00     0.071 A 
HETATM   11  C18 UNL     1      22.186   2.830  51.856  1.00  0.00     0.026 A 
HETATM   12  C19 UNL     1      23.275   3.438  51.093  1.00  0.00     0.162 A 
ENDROOT
BRANCH   2  13
HETATM   13  C2  UNL     1      25.545   4.387  49.729  1.00  0.00    -0.004 C 
HETATM   14  C3  UNL     1      25.473   5.403  49.081  1.00  0.00    -0.081 C 
BRANCH  14  15
HETATM   15  C4  UNL     1      25.393   6.645  48.263  1.00  0.00     0.202 C 
BRANCH  15  16
HETATM   16  N1  UNL     1      26.590   7.371  48.507  1.00  0.00    -0.215 NA
HETATM   17 CL1  UNL     1      28.022   6.433  48.209  1.00  0.00    -0.021 Cl
BRANCH  16  18
HETATM   18  C5  UNL     1      26.605   8.015  49.768  1.00  0.00     0.135 C 
BRANCH  18  19
HETATM   19  C6  UNL     1      27.572   9.124  49.967  1.00  0.00     0.179 C 
BRANCH  19  20
HETATM   20  O2  UNL     1      27.699   9.609  51.239  1.00  0.00    -0.400 OA
HETATM   21  H7  UNL     1      28.610   9.826  51.491  1.00  0.00     0.209 HD
ENDBRANCH  19  20
ENDBRANCH  18  19
ENDBRANCH  16  18
ENDBRANCH  15  16
ENDBRANCH  14  15
ENDBRANCH   2  13
BRANCH   6  22
HETATM   22  N3  UNL     1      24.650  -0.977  53.449  1.00  0.00    -0.340 N 
HETATM   23  H9  UNL     1      24.327  -1.944  53.366  1.00  0.00     0.167 HD
BRANCH  22  24
HETATM   24  C10 UNL     1      26.014  -0.649  53.723  1.00  0.00     0.033 A 
HETATM   25  C11 UNL     1      26.388   0.213  54.721  1.00  0.00     0.032 A 
HETATM   26  C12 UNL     1      27.745   0.456  54.857  1.00  0.00     0.044 A 
HETATM   27  C13 UNL     1      28.719  -0.109  54.063  1.00  0.00     0.116 A 
HETATM   28  F1  UNL     1      30.043   0.130  54.198  1.00  0.00    -0.206 F 
HETATM   29  C14 UNL     1      28.319  -0.980  53.056  1.00  0.00     0.044 A 
HETATM   30  C15 UNL     1      26.971  -1.226  52.916  1.00  0.00     0.032 A 
ENDBRANCH  22  24
ENDBRANCH   6  22
TORSDOF 8
ENDMDL
MODEL 2
REMARK VINA RESULT:      -8.5      6.076      8.868
REMARK  8 active torsions:
REMARK  status: ('A' for Active; 'I' for Inactive)
REMARK    1  A    between atoms: C1_2  and  C2_3 
REMARK       I    between atoms: C1_2  and  N2_11 
REMARK    2  A    between atoms: C3_4  and  C4_5 
REMARK    3  A    between atoms: C4_5  and  N1_6 
REMARK    4  A    between atoms: N1_6  and  C5_8 
REMARK    5  A    between atoms: C5_8  and  C6_9 
REMARK    6  A    between atoms: C6_9  and  O2_10 
REMARK    7  A    between atoms: C9_14  and  N3_15 
REMARK    8  A    between atoms: N3_15  and  C10_16 
ROOT
HETATM    1  O1  UNL     1      22.085  -1.404  55.431  1.00  0.00    -0.258 OA
HETATM    2  C1  UNL     1      22.534  -0.810  54.421  1.00  0.00     0.302 C 
HETATM    3  N2  UNL     1      21.720  -0.362  53.315  1.00  0.00    -0.313 N 
HETATM    4  C7  UNL     1      20.325  -0.602  53.341  1.00  0.00     0.113 A 
HETATM    5  C8  UNL     1      19.689  -0.131  52.281  1.00  0.00     0.054 A 
HETATM    6  C9  UNL     1      18.334  -0.348  52.279  1.00  0.00     0.143 A 
HETATM    7  N4  UNL     1      17.575   0.086  51.249  1.00  0.00    -0.223 NA
HETATM    8  C16 UNL     1      18.092   0.734  50.202  1.00  0.00     0.236 A 
HETATM    9  N5  UNL     1      19.431   0.959  50.185  1.00  0.00    -0.241 NA
HETATM   10  C17 UNL     1      20.204   0.535  51.200  1.00  0.00     0.071 A 
HETATM   11  C18 UNL     1      21.499   0.746  51.188  1.00  0.00     0.026 A 
HETATM   12  C19 UNL     1      22.427   0.326  52.237  1.00  0.00     0.162 A 
ENDROOT
BRANCH   2  13
HETATM   13  C2  UNL     1      23.974  -0.578  54.406  1.00  0.00    -0.004 C 
HETATM   14  C3  UNL     1      25.169  -0.408  54.395  1.00  0.00    -0.081 C 
BRANCH  14  15
HETATM   15  C4  UNL     1      26.645  -0.219  54.377  1.00  0.00     0.202 C 
BRANCH  15  16
HETATM   16  N1  UNL     1      27.064  -0.413  53.033  1.00  0.00    -0.215 NA
HETATM   17 CL1  UNL     1      26.123   0.502  51.893  1.00  0.00    -0.021 Cl
BRANCH  16  18
HETATM   18  C5  UNL     1      27.184  -1.779  52.678  1.00  0.00     0.135 C 
BRANCH  18  19
HETATM   19  C6  UNL     1      28.517  -2.417  52.825  1.00  0.00     0.179 C 
BRANCH  19  20
HETATM   20  O2  UNL     1      28.557  -3.613  53.485  1.00  0.00    -0.400 OA
HETATM   21  H7  UNL     1      27.704  -3.888  53.857  1.00  0.00     0.209 HD
ENDBRANCH  19  20
ENDBRANCH  18  19
ENDBRANCH  16  18
ENDBRANCH  15  16
ENDBRANCH  14  15
ENDBRANCH   2  13
BRANCH   6  22
HETATM   22  N3  UNL     1      17.506  -0.999  53.219  1.00  0.00    -0.340 N 
HETATM   23  H9  UNL     1      17.388  -0.412  54.048  1.00  0.00     0.167 HD
BRANCH  22  24
HETATM   24  C10 UNL     1      16.893  -2.285  53.099  1.00  0.00     0.033 A 
HETATM   25  C11 UNL     1      17.439  -3.424  53.632  1.00  0.00     0.032 A 
HETATM   26  C12 UNL     1      16.746  -4.604  53.420  1.00  0.00     0.044 A 
HETATM   27  C13 UNL     1      15.565  -4.696  52.716  1.00  0.00     0.116 A 
HETATM   28  F1  UNL     1      14.890  -5.849  52.509  1.00  0.00    -0.206 F 
HETATM   29  C14 UNL     1      15.028  -3.529  52.183  1.00  0.00     0.044 A 
HETATM   30  C15 UNL     1      15.712  -2.352  52.392  1.00  0.00     0.032 A 
ENDBRANCH  22  24
ENDBRANCH   6  22
TORSDOF 8
ENDMDL
MODEL 3
REMARK VINA RESULT:      -8.4      4.563      7.598
REMARK  8 active torsions:
REMARK  status: ('A' for Active; 'I' for Inactive)
REMARK    1  A    between atoms: C1_2  and  C2_3 
REMARK       I    between atoms: C1_2  and  N2_11 
REMARK    2  A    between atoms: C3_4  and  C4_5 
REMARK    3  A    between atoms: C4_5  and  N1_6 
REMARK    4  A    between atoms: N1_6  and  C5_8 
REMARK    5  A    between atoms: C5_8  and  C6_9 
REMARK    6  A    between atoms: C6_9  and  O2_10 
REMARK    7  A    between atoms: C9_14  and  N3_15 
REMARK    8  A    between atoms: N3_15  and  C10_16 
ROOT
HETATM    1  O1  UNL     1      22.207   0.082  53.817  1.00  0.00    -0.258 OA
HETATM    2  C1  UNL     1      21.851   0.545  52.706  1.00  0.00     0.302 C 
HETATM    3  N2  UNL     1      22.716   1.297  51.826  1.00  0.00    -0.313 N 
HETATM    4  C7  UNL     1      24.051   1.551  52.220  1.00  0.00     0.113 A 
HETATM    5  C8  UNL     1      24.745   2.234  51.325  1.00  0.00     0.054 A 
HETATM    6  C9  UNL     1      26.045   2.493  51.679  1.00  0.00     0.143 A 
HETATM    7  N4  UNL     1      26.854   3.184  50.846  1.00  0.00    -0.223 NA
HETATM    8  C16 UNL     1      26.440   3.641  49.661  1.00  0.00     0.236 A 
HETATM    9  N5  UNL     1      25.156   3.394  49.292  1.00  0.00    -0.241 NA
HETATM   10  C17 UNL     1      24.336   2.709  50.106  1.00  0.00     0.071 A 
HETATM   11  C18 UNL     1      23.094   2.470  49.758  1.00  0.00     0.026 A 
HETATM   12  C19 UNL     1      22.120   1.738  50.567  1.00  0.00     0.162 A 
ENDROOT
BRANCH   2  13
HETATM   13  C2  UNL     1      20.470   0.283  52.319  1.00  0.00    -0.004 C 
HETATM   14  C3  UNL     1      19.326   0.048  52.011  1.00  0.00    -0.081 C 
BRANCH  14  15
HETATM   15  C4  UNL     1      17.915  -0.255  51.648  1.00  0.00     0.202 C 
BRANCH  15  16
HETATM   16  N1  UNL     1      17.291  -0.753  52.823  1.00  0.00    -0.215 NA
HETATM   17 CL1  UNL     1      18.075  -2.169  53.458  1.00  0.00    -0.021 Cl
BRANCH  16  18
HETATM   18  C5  UNL     1      15.890  -0.913  52.686  1.00  0.00     0.135 C 
BRANCH  18  19
HETATM   19  C6  UNL     1      15.045   0.307  52.740  1.00  0.00     0.179 C 
BRANCH  19  20
HETATM   20  O2  UNL     1      14.302   0.491  53.873  1.00  0.00    -0.400 OA
HETATM   21  H7  UNL     1      14.025  -0.334  54.302  1.00  0.00     0.209 HD
ENDBRANCH  19  20
ENDBRANCH  18  19
ENDBRANCH  16  18
ENDBRANCH  15  16
ENDBRANCH  14  15
ENDBRANCH   2  13
BRANCH   6  22
HETATM   22  N3  UNL     1      26.764   2.159  52.846  1.00  0.00    -0.340 N 
HETATM   23  H9  UNL     1      26.626   2.877  53.561  1.00  0.00     0.167 HD
BRANCH  22  24
HETATM   24  C10 UNL     1      27.584   1.009  53.068  1.00  0.00     0.033 A 
HETATM   25  C11 UNL     1      28.862   1.088  53.557  1.00  0.00     0.032 A 
HETATM   26  C12 UNL     1      29.548  -0.107  53.700  1.00  0.00     0.044 A 
HETATM   27  C13 UNL     1      29.029  -1.344  53.384  1.00  0.00     0.116 A 
HETATM   28  F1  UNL     1      29.701  -2.508  53.524  1.00  0.00    -0.206 F 
HETATM   29  C14 UNL     1      27.732  -1.402  52.888  1.00  0.00     0.044 A 
HETATM   30  C15 UNL     1      27.044  -0.218  52.745  1.00  0.00     0.032 A 
ENDBRANCH  22  24
ENDBRANCH   6  22
TORSDOF 8
ENDMDL
MODEL 4
REMARK VINA RESULT:      -8.3      5.391      8.273
REMARK  8 active torsions:
REMARK  status: ('A' for Active; 'I' for Inactive)
REMARK    1  A    between atoms: C1_2  and  C2_3 
REMARK       I    between atoms: C1_2  and  N2_11 
REMARK    2  A    between atoms: C3_4  and  C4_5 
REMARK    3  A    between atoms: C4_5  and  N1_6 
REMARK    4  A    between atoms: N1_6  and  C5_8 
REMARK    5  A    between atoms: C5_8  and  C6_9 
REMARK    6  A    between atoms: C6_9  and  O2_10 
REMARK    7  A    between atoms: C9_14  and  N3_15 
REMARK    8  A    between atoms: N3_15  and  C10_16 
ROOT
HETATM    1  O1  UNL     1      22.237  -1.383  55.297  1.00  0.00    -0.258 OA
HETATM    2  C1  UNL     1      22.686  -0.804  54.278  1.00  0.00     0.302 C 
HETATM    3  N2  UNL     1      21.866  -0.331  53.186  1.00  0.00    -0.313 N 
HETATM    4  C7  UNL     1      20.465  -0.527  53.238  1.00  0.00     0.113 A 
HETATM    5  C8  UNL     1      19.824  -0.038  52.190  1.00  0.00     0.054 A 
HETATM    6  C9  UNL     1      18.464  -0.211  52.214  1.00  0.00     0.143 A 
HETATM    7  N4  UNL     1      17.699   0.246  51.197  1.00  0.00    -0.223 NA
HETATM    8  C16 UNL     1      18.217   0.877  50.139  1.00  0.00     0.236 A 
HETATM    9  N5  UNL     1      19.563   1.059  50.097  1.00  0.00    -0.241 NA
HETATM   10  C17 UNL     1      20.340   0.611  51.099  1.00  0.00     0.071 A 
HETATM   11  C18 UNL     1      21.640   0.781  51.063  1.00  0.00     0.026 A 
HETATM   12  C19 UNL     1      22.574   0.333  52.095  1.00  0.00     0.162 A 
ENDROOT
BRANCH   2  13
HETATM   13  C2  UNL     1      24.132  -0.619  54.235  1.00  0.00    -0.004 C 
HETATM   14  C3  UNL     1      25.326  -0.444  54.199  1.00  0.00    -0.081 C 
BRANCH  14  15
HETATM   15  C4  UNL     1      26.795  -0.207  54.161  1.00  0.00     0.202 C 
BRANCH  15  16
HETATM   16  N1  UNL     1      27.007   0.899  53.295  1.00  0.00    -0.215 NA
HETATM   17 CL1  UNL     1      26.278   0.684  51.731  1.00  0.00    -0.021 Cl
BRANCH  16  18
HETATM   18  C5  UNL     1      28.364   1.298  53.221  1.00  0.00     0.135 C 
BRANCH  18  19
HETATM   19  C6  UNL     1      29.157   1.288  54.475  1.00  0.00     0.179 C 
BRANCH  19  20
HETATM   20  O2  UNL     1      29.824   2.439  54.790  1.00  0.00    -0.400 OA
HETATM   21  H7  UNL     1      29.927   3.053  54.046  1.00  0.00     0.209 HD
ENDBRANCH  19  20
ENDBRANCH  18  19
ENDBRANCH  16  18
ENDBRANCH  15  16
ENDBRANCH  14  15
ENDBRANCH   2  13
BRANCH   6  22
HETATM   22  N3  UNL     1      17.633  -0.835  53.169  1.00  0.00    -0.340 N 
HETATM   23  H9  UNL     1      17.504  -0.220  53.976  1.00  0.00     0.167 HD
BRANCH  22  24
HETATM   24  C10 UNL     1      17.030  -2.128  53.091  1.00  0.00     0.033 A 
HETATM   25  C11 UNL     1      17.618  -3.258  53.598  1.00  0.00     0.032 A 
HETATM   26  C12 UNL     1      16.929  -4.447  53.430  1.00  0.00     0.044 A 
HETATM   27  C13 UNL     1      15.711  -4.557  52.793  1.00  0.00     0.116 A 
HETATM   28  F1  UNL     1      15.040  -5.719  52.630  1.00  0.00    -0.206 F 
HETATM   29  C14 UNL     1      15.132  -3.399  52.286  1.00  0.00     0.044 A 
HETATM   30  C15 UNL     1      15.812  -2.213  52.450  1.00  0.00     0.032 A 
ENDBRANCH  22  24
ENDBRANCH   6  22
TORSDOF 8
ENDMDL
MODEL 5
REMARK VINA RESULT:      -8.3      5.340      7.395
REMARK  8 active torsions:
REMARK  status: ('A' for Active; 'I' for Inactive)
REMARK    1  A    between atoms: C1_2  and  C2_3 
REMARK       I    between atoms: C1_2  and  N2_11 
REMARK    2  A    between atoms: C3_4  and  C4_5 
REMARK    3  A    between atoms: C4_5  and  N1_6 
REMARK    4  A    between atoms: N1_6  and  C5_8 
REMARK    5  A    between atoms: C5_8  and  C6_9 
REMARK    6  A    between atoms: C6_9  and  O2_10 
REMARK    7  A    between atoms: C9_14  and  N3_15 
REMARK    8  A    between atoms: N3_15  and  C10_16 
ROOT
HETATM    1  O1  UNL     1      21.613   1.404  50.330  1.00  0.00    -0.258 OA
HETATM    2  C1  UNL     1      20.916   0.797  51.179  1.00  0.00     0.302 C 
HETATM    3  N2  UNL     1      21.449   0.159  52.361  1.00  0.00    -0.313 N 
HETATM    4  C7  UNL     1      22.844   0.199  52.598  1.00  0.00     0.113 A 
HETATM    5  C8  UNL     1      23.206  -0.405  53.718  1.00  0.00     0.054 A 
HETATM    6  C9  UNL     1      24.553  -0.382  53.975  1.00  0.00     0.143 A 
HETATM    7  N4  UNL     1      25.046  -0.967  55.089  1.00  0.00    -0.223 NA
HETATM    8  C16 UNL     1      24.264  -1.585  55.979  1.00  0.00     0.236 A 
HETATM    9  N5  UNL     1      22.926  -1.619  55.742  1.00  0.00    -0.241 NA
HETATM   10  C17 UNL     1      22.417  -1.043  54.640  1.00  0.00     0.071 A 
HETATM   11  C18 UNL     1      21.127  -1.074  54.403  1.00  0.00     0.026 A 
HETATM   12  C19 UNL     1      20.472  -0.483  53.237  1.00  0.00     0.162 A 
ENDROOT
BRANCH   2  13
HETATM   13  C2  UNL     1      19.482   0.758  50.915  1.00  0.00    -0.004 C 
HETATM   14  C3  UNL     1      18.294   0.705  50.703  1.00  0.00    -0.081 C 
BRANCH  14  15
HETATM   15  C4  UNL     1      16.829   0.623  50.456  1.00  0.00     0.202 C 
BRANCH  15  16
HETATM   16  N1  UNL     1      16.479  -0.752  50.539  1.00  0.00    -0.215 NA
HETATM   17 CL1  UNL     1      15.603  -1.313  49.146  1.00  0.00    -0.021 Cl
BRANCH  16  18
HETATM   18  C5  UNL     1      15.850  -1.095  51.761  1.00  0.00     0.135 C 
BRANCH  18  19
HETATM   19  C6  UNL     1      16.653  -1.829  52.770  1.00  0.00     0.179 C 
BRANCH  19  20
HETATM   20  O2  UNL     1      17.153  -1.096  53.810  1.00  0.00    -0.400 OA
HETATM   21  H7  UNL     1      17.392  -1.624  54.588  1.00  0.00     0.209 HD
ENDBRANCH  19  20
ENDBRANCH  18  19
ENDBRANCH  16  18
ENDBRANCH  15  16
ENDBRANCH  14  15
ENDBRANCH   2  13
BRANCH   6  22
HETATM   22  N3  UNL     1      25.620   0.174  53.238  1.00  0.00    -0.340 N 
HETATM   23  H9  UNL     1      25.266   0.872  52.580  1.00  0.00     0.167 HD
BRANCH  22  24
HETATM   24  C10 UNL     1      27.011  -0.145  53.338  1.00  0.00     0.033 A 
HETATM   25  C11 UNL     1      27.526  -1.361  52.971  1.00  0.00     0.032 A 
HETATM   26  C12 UNL     1      28.888  -1.537  53.144  1.00  0.00     0.044 A 
HETATM   27  C13 UNL     1      29.737  -0.579  53.655  1.00  0.00     0.116 A 
HETATM   28  F1  UNL     1      31.067  -0.754  53.824  1.00  0.00    -0.206 F 
HETATM   29  C14 UNL     1      29.195   0.647  54.022  1.00  0.00     0.044 A 
HETATM   30  C15 UNL     1      27.841   0.829  53.851  1.00  0.00     0.032 A 
ENDBRANCH  22  24
ENDBRANCH   6  22
TORSDOF 8
ENDMDL
MODEL 6
REMARK VINA RESULT:      -8.1      2.657      3.718
REMARK  8 active torsions:
REMARK  status: ('A' for Active; 'I' for Inactive)
REMARK    1  A    between atoms: C1_2  and  C2_3 
REMARK       I    between atoms: C1_2  and  N2_11 
REMARK    2  A    between atoms: C3_4  and  C4_5 
REMARK    3  A    between atoms: C4_5  and  N1_6 
REMARK    4  A    between atoms: N1_6  and  C5_8 
REMARK    5  A    between atoms: C5_8  and  C6_9 
REMARK    6  A    between atoms: C6_9  and  O2_10 
REMARK    7  A    between atoms: C9_14  and  N3_15 
REMARK    8  A    between atoms: N3_15  and  C10_16 
ROOT
HETATM    1  O1  UNL     1      26.813   2.545  49.513  1.00  0.00    -0.258 OA
HETATM    2  C1  UNL     1      26.322   3.698  49.447  1.00  0.00     0.302 C 
HETATM    3  N2  UNL     1      24.963   4.023  49.816  1.00  0.00    -0.313 N 
HETATM    4  C7  UNL     1      24.107   2.995  50.276  1.00  0.00     0.113 A 
HETATM    5  C8  UNL     1      22.896   3.420  50.597  1.00  0.00     0.054 A 
HETATM    6  C9  UNL     1      22.044   2.445  51.048  1.00  0.00     0.143 A 
HETATM    7  N4  UNL     1      20.779   2.756  51.406  1.00  0.00    -0.223 NA
HETATM    8  C16 UNL     1      20.302   4.003  51.341  1.00  0.00     0.236 A 
HETATM    9  N5  UNL     1      21.131   4.983  50.897  1.00  0.00    -0.241 NA
HETATM   10  C17 UNL     1      22.393   4.693  50.536  1.00  0.00     0.071 A 
HETATM   11  C18 UNL     1      23.198   5.634  50.103  1.00  0.00     0.026 A 
HETATM   12  C19 UNL     1      24.584   5.428  49.685  1.00  0.00     0.162 A 
ENDROOT
BRANCH   2  13
HETATM   13  C2  UNL     1      27.215   4.744  48.963  1.00  0.00    -0.004 C 
HETATM   14  C3  UNL     1      27.958   5.599  48.544  1.00  0.00    -0.081 C 
BRANCH  14  15
HETATM   15  C4  UNL     1      28.871   6.645  48.007  1.00  0.00     0.202 C 
BRANCH  15  16
HETATM   16  N1  UNL     1      28.127   7.856  47.974  1.00  0.00    -0.215 NA
HETATM   17 CL1  UNL     1      28.111   8.598  46.403  1.00  0.00    -0.021 Cl
BRANCH  16  18
HETATM   18  C5  UNL     1      28.484   8.758  49.007  1.00  0.00     0.135 C 
BRANCH  18  19
HETATM   19  C6  UNL     1      27.400   9.274  49.880  1.00  0.00     0.179 C 
BRANCH  19  20
HETATM   20  O2  UNL     1      27.724   9.511  51.187  1.00  0.00    -0.400 OA
HETATM   21  H7  UNL     1      26.959   9.673  51.761  1.00  0.00     0.209 HD
ENDBRANCH  19  20
ENDBRANCH  18  19
ENDBRANCH  16  18
ENDBRANCH  15  16
ENDBRANCH  14  15
ENDBRANCH   2  13
BRANCH   6  22
HETATM   22  N3  UNL     1      22.242   1.058  51.219  1.00  0.00    -0.340 N 
HETATM   23  H9  UNL     1      22.119   0.574  50.327  1.00  0.00     0.167 HD
BRANCH  22  24
HETATM   24  C10 UNL     1      22.564   0.364  52.427  1.00  0.00     0.033 A 
HETATM   25  C11 UNL     1      23.837   0.299  52.933  1.00  0.00     0.032 A 
HETATM   26  C12 UNL     1      24.006  -0.428  54.099  1.00  0.00     0.044 A 
HETATM   27  C13 UNL     1      22.989  -1.077  54.764  1.00  0.00     0.116 A 
HETATM   28  F1  UNL     1      23.157  -1.787  55.903  1.00  0.00    -0.206 F 
HETATM   29  C14 UNL     1      21.706  -1.000  54.234  1.00  0.00     0.044 A 
HETATM   30  C15 UNL     1      21.531  -0.278  53.075  1.00  0.00     0.032 A 
ENDBRANCH  22  24
ENDBRANCH   6  22
TORSDOF 8
ENDMDL
MODEL 7
REMARK VINA RESULT:      -8.0      3.095      5.036
REMARK  8 active torsions:
REMARK  status: ('A' for Active; 'I' for Inactive)
REMARK    1  A    between atoms: C1_2  and  C2_3 
REMARK       I    between atoms: C1_2  and  N2_11 
REMARK    2  A    between atoms: C3_4  and  C4_5 
REMARK    3  A    between atoms: C4_5  and  N1_6 
REMARK    4  A    between atoms: N1_6  and  C5_8 
REMARK    5  A    between atoms: C5_8  and  C6_9 
REMARK    6  A    between atoms: C6_9  and  O2_10 
REMARK    7  A    between atoms: C9_14  and  N3_15 
REMARK    8  A    between atoms: N3_15  and  C10_16 
ROOT
HETATM    1  O1  UNL     1      23.677   5.151  50.346  1.00  0.00    -0.258 OA
HETATM    2  C1  UNL     1      24.782   4.555  50.331  1.00  0.00     0.302 C 
HETATM    3  N2  UNL     1      25.039   3.306  51.010  1.00  0.00    -0.313 N 
HETATM    4  C7  UNL     1      24.001   2.697  51.754  1.00  0.00     0.113 A 
HETATM    5  C8  UNL     1      24.354   1.552  52.315  1.00  0.00     0.054 A 
HETATM    6  C9  UNL     1      23.367   0.937  53.041  1.00  0.00     0.143 A 
HETATM    7  N4  UNL     1      23.608  -0.238  53.663  1.00  0.00    -0.223 NA
HETATM    8  C16 UNL     1      24.794  -0.850  53.603  1.00  0.00     0.236 A 
HETATM    9  N5  UNL     1      25.785  -0.257  52.888  1.00  0.00    -0.241 NA
HETATM   10  C17 UNL     1      25.565   0.913  52.263  1.00  0.00     0.071 A 
HETATM   11  C18 UNL     1      26.519   1.493  51.574  1.00  0.00     0.026 A 
HETATM   12  C19 UNL     1      26.387   2.762  50.860  1.00  0.00     0.162 A 
ENDROOT
BRANCH   2  13
HETATM   13  C2  UNL     1      25.844   5.201  49.568  1.00  0.00    -0.004 C 
HETATM   14  C3  UNL     1      26.711   5.753  48.934  1.00  0.00    -0.081 C 
BRANCH  14  15
HETATM   15  C4  UNL     1      27.772   6.454  48.160  1.00  0.00     0.202 C 
BRANCH  15  16
HETATM   16  N1  UNL     1      27.477   7.842  48.229  1.00  0.00    -0.215 NA
HETATM   17 CL1  UNL     1      27.168   8.547  46.671  1.00  0.00    -0.021 Cl
BRANCH  16  18
HETATM   18  C5  UNL     1      28.420   8.576  48.990  1.00  0.00     0.135 C 
BRANCH  18  19
HETATM   19  C6  UNL     1      27.920   9.718  49.796  1.00  0.00     0.179 C 
BRANCH  19  20
HETATM   20  O2  UNL     1      27.686   9.480  51.121  1.00  0.00    -0.400 OA
HETATM   21  H7  UNL     1      28.352   8.915  51.545  1.00  0.00     0.209 HD
ENDBRANCH  19  20
ENDBRANCH  18  19
ENDBRANCH  16  18
ENDBRANCH  15  16
ENDBRANCH  14  15
ENDBRANCH   2  13
BRANCH   6  22
HETATM   22  N3  UNL     1      22.035   1.328  53.297  1.00  0.00    -0.340 N 
HETATM   23  H9  UNL     1      22.016   2.061  54.011  1.00  0.00     0.167 HD
BRANCH  22  24
HETATM   24  C10 UNL     1      20.844   0.820  52.692  1.00  0.00     0.033 A 
HETATM   25  C11 UNL     1      19.976  -0.019  53.343  1.00  0.00     0.032 A 
HETATM   26  C12 UNL     1      18.873  -0.451  52.626  1.00  0.00     0.044 A 
HETATM   27  C13 UNL     1      18.605  -0.093  51.322  1.00  0.00     0.116 A 
HETATM   28  F1  UNL     1      17.528  -0.517  50.624  1.00  0.00    -0.206 F 
HETATM   29  C14 UNL     1      19.497   0.758  50.680  1.00  0.00     0.044 A 
HETATM   30  C15 UNL     1      20.596   1.192  51.388  1.00  0.00     0.032 A 
ENDBRANCH  22  24
ENDBRANCH   6  22
TORSDOF 8
ENDMDL
MODEL 8
REMARK VINA RESULT:      -8.0      2.836      4.014
REMARK  8 active torsions:
REMARK  status: ('A' for Active; 'I' for Inactive)
REMARK    1  A    between atoms: C1_2  and  C2_3 
REMARK       I    between atoms: C1_2  and  N2_11 
REMARK    2  A    between atoms: C3_4  and  C4_5 
REMARK    3  A    between atoms: C4_5  and  N1_6 
REMARK    4  A    between atoms: N1_6  and  C5_8 
REMARK    5  A    between atoms: C5_8  and  C6_9 
REMARK    6  A    between atoms: C6_9  and  O2_10 
REMARK    7  A    between atoms: C9_14  and  N3_15 
REMARK    8  A    between atoms: N3_15  and  C10_16 
ROOT
HETATM    1  O1  UNL     1      27.269   3.127  49.034  1.00  0.00    -0.258 OA
HETATM    2  C1  UNL     1      26.806   4.288  49.143  1.00  0.00     0.302 C 
HETATM    3  N2  UNL     1      25.519   4.598  49.724  1.00  0.00    -0.313 N 
HETATM    4  C7  UNL     1      24.705   3.543  50.200  1.00  0.00     0.113 A 
HETATM    5  C8  UNL     1      23.561   3.955  50.722  1.00  0.00     0.054 A 
HETATM    6  C9  UNL     1      22.751   2.954  51.195  1.00  0.00     0.143 A 
HETATM    7  N4  UNL     1      21.555   3.250  51.751  1.00  0.00    -0.223 NA
HETATM    8  C16 UNL     1      21.109   4.504  51.866  1.00  0.00     0.236 A 
HETATM    9  N5  UNL     1      21.897   5.509  51.404  1.00  0.00    -0.241 NA
HETATM   10  C17 UNL     1      23.090   5.236  50.848  1.00  0.00     0.071 A 
HETATM   11  C18 UNL     1      23.855   6.201  50.397  1.00  0.00     0.026 A 
HETATM   12  C19 UNL     1      25.165   6.014  49.775  1.00  0.00     0.162 A 
ENDROOT
BRANCH   2  13
HETATM   13  C2  UNL     1      27.654   5.362  48.638  1.00  0.00    -0.004 C 
HETATM   14  C3  UNL     1      28.339   6.261  48.213  1.00  0.00    -0.081 C 
BRANCH  14  15
HETATM   15  C4  UNL     1      29.165   7.383  47.689  1.00  0.00     0.202 C 
BRANCH  15  16
HETATM   16  N1  UNL     1      30.225   7.575  48.615  1.00  0.00    -0.215 NA
HETATM   17 CL1  UNL     1      30.851   9.196  48.601  1.00  0.00    -0.021 Cl
BRANCH  16  18
HETATM   18  C5  UNL     1      31.239   6.591  48.514  1.00  0.00     0.135 C 
BRANCH  18  19
HETATM   19  C6  UNL     1      31.926   6.175  49.763  1.00  0.00     0.179 C 
BRANCH  19  20
HETATM   20  O2  UNL     1      31.232   5.348  50.601  1.00  0.00    -0.400 OA
HETATM   21  H7  UNL     1      30.832   5.800  51.361  1.00  0.00     0.209 HD
ENDBRANCH  19  20
ENDBRANCH  18  19
ENDBRANCH  16  18
ENDBRANCH  15  16
ENDBRANCH  14  15
ENDBRANCH   2  13
BRANCH   6  22
HETATM   22  N3  UNL     1      22.931   1.555  51.209  1.00  0.00    -0.340 N 
HETATM   23  H9  UNL     1      22.787   1.173  50.271  1.00  0.00     0.167 HD
BRANCH  22  24
HETATM   24  C10 UNL     1      23.263   0.728  52.327  1.00  0.00     0.033 A 
HETATM   25  C11 UNL     1      22.324   0.040  53.051  1.00  0.00     0.032 A 
HETATM   26  C12 UNL     1      22.787  -0.705  54.123  1.00  0.00     0.044 A 
HETATM   27  C13 UNL     1      24.111  -0.790  54.496  1.00  0.00     0.116 A 
HETATM   28  F1  UNL     1      24.561  -1.517  55.543  1.00  0.00    -0.206 F 
HETATM   29  C14 UNL     1      25.047  -0.084  53.749  1.00  0.00     0.044 A 
HETATM   30  C15 UNL     1      24.593   0.657  52.681  1.00  0.00     0.032 A 
ENDBRANCH  22  24
ENDBRANCH   6  22
TORSDOF 8
ENDMDL
MODEL 9
REMARK VINA RESULT:      -7.9      3.947      6.519
REMARK  8 active torsions:
REMARK  status: ('A' for Active; 'I' for Inactive)
REMARK    1  A    between atoms: C1_2  and  C2_3 
REMARK       I    between atoms: C1_2  and  N2_11 
REMARK    2  A    between atoms: C3_4  and  C4_5 
REMARK    3  A    between atoms: C4_5  and  N1_6 
REMARK    4  A    between atoms: N1_6  and  C5_8 
REMARK    5  A    between atoms: C5_8  and  C6_9 
REMARK    6  A    between atoms: C6_9  and  O2_10 
REMARK    7  A    between atoms: C9_14  and  N3_15 
REMARK    8  A    between atoms: N3_15  and  C10_16 
ROOT
HETATM    1  O1  UNL     1      21.453  -0.055  53.521  1.00  0.00    -0.258 OA
HETATM    2  C1  UNL     1      21.214   0.459  52.401  1.00  0.00     0.302 C 
HETATM    3  N2  UNL     1      22.176   1.214  51.633  1.00  0.00    -0.313 N 
HETATM    4  C7  UNL     1      23.477   1.411  52.154  1.00  0.00     0.113 A 
HETATM    5  C8  UNL     1      24.269   2.103  51.352  1.00  0.00     0.054 A 
HETATM    6  C9  UNL     1      25.537   2.308  51.831  1.00  0.00     0.143 A 
HETATM    7  N4  UNL     1      26.438   3.002  51.102  1.00  0.00    -0.223 NA
HETATM    8  C16 UNL     1      26.147   3.515  49.903  1.00  0.00     0.236 A 
HETATM    9  N5  UNL     1      24.896   3.323  49.411  1.00  0.00    -0.241 NA
HETATM   10  C17 UNL     1      23.985   2.634  50.121  1.00  0.00     0.071 A 
HETATM   11  C18 UNL     1      22.774   2.448  49.654  1.00  0.00     0.026 A 
HETATM   12  C19 UNL     1      21.710   1.719  50.343  1.00  0.00     0.162 A 
ENDROOT
BRANCH   2  13
HETATM   13  C2  UNL     1      19.866   0.255  51.882  1.00  0.00    -0.004 C 
HETATM   14  C3  UNL     1      18.743   0.102  51.466  1.00  0.00    -0.081 C 
BRANCH  14  15
HETATM   15  C4  UNL     1      17.354  -0.067  50.959  1.00  0.00     0.202 C 
BRANCH  15  16
HETATM   16  N1  UNL     1      16.948   1.198  50.457  1.00  0.00    -0.215 NA
HETATM   17 CL1  UNL     1      18.049   1.843  49.277  1.00  0.00    -0.021 Cl
BRANCH  16  18
HETATM   18  C5  UNL     1      16.626   2.127  51.476  1.00  0.00     0.135 C 
BRANCH  18  19
HETATM   19  C6  UNL     1      17.250   3.473  51.408  1.00  0.00     0.179 C 
BRANCH  19  20
HETATM   20  O2  UNL     1      18.410   3.649  52.109  1.00  0.00    -0.400 OA
HETATM   21  H7  UNL     1      18.715   2.855  52.577  1.00  0.00     0.209 HD
ENDBRANCH  19  20
ENDBRANCH  18  19
ENDBRANCH  16  18
ENDBRANCH  15  16
ENDBRANCH  14  15
ENDBRANCH   2  13
BRANCH   6  22
HETATM   22  N3  UNL     1      26.137   1.909  53.045  1.00  0.00    -0.340 N 
HETATM   23  H9  UNL     1      25.680   2.374  53.832  1.00  0.00     0.167 HD
BRANCH  22  24
HETATM   24  C10 UNL     1      27.225   0.998  53.224  1.00  0.00     0.033 A 
HETATM   25  C11 UNL     1      27.140  -0.335  52.915  1.00  0.00     0.032 A 
HETATM   26  C12 UNL     1      28.266  -1.103  53.162  1.00  0.00     0.044 A 
HETATM   27  C13 UNL     1      29.440  -0.614  53.691  1.00  0.00     0.116 A 
HETATM   28  F1  UNL     1      30.537  -1.366  53.931  1.00  0.00    -0.206 F 
HETATM   29  C14 UNL     1      29.505   0.740  53.998  1.00  0.00     0.044 A 
HETATM   30  C15 UNL     1      28.390   1.510  53.754  1.00  0.00     0.032 A 
ENDBRANCH  22  24
ENDBRANCH   6  22
TORSDOF 8
ENDMDL
