MODEL 1
REMARK VINA RESULT:      -7.5      0.000      0.000
REMARK  3 active torsions:
REMARK  status: ('A' for Active; 'I' for Inactive)
REMARK    1  A    between atoms: O1_2  and  C2_3 
REMARK    2  A    between atoms: C7_8  and  N1_9 
REMARK    3  A    between atoms: N1_9  and  C8_10 
ROOT
HETATM    1  C8  UNL     1      23.142   0.233  52.738  1.00  0.00     0.069 C 
HETATM    2  C9  UNL     1      23.533  -0.477  53.831  1.00  0.00     0.123 C 
HETATM    3  N2  UNL     1      24.811  -0.728  54.493  1.00  0.00    -0.365 N 
HETATM    4  C10 UNL     1      26.147  -0.601  53.932  1.00  0.00     0.033 C 
HETATM    5  C11 UNL     1      26.781  -0.990  52.789  1.00  0.00     0.028 C 
HETATM    6  C12 UNL     1      26.734   0.199  51.829  1.00  0.00     0.017 C 
HETATM    7  C13 UNL     1      25.796   1.096  52.261  1.00  0.00    -0.013 C 
HETATM    8  C14 UNL     1      26.160   1.991  53.440  1.00  0.00     0.212 C 
HETATM    9  O2  UNL     1      27.040   1.533  54.351  1.00  0.00    -0.380 OA
HETATM   10  C15 UNL     1      26.767   0.297  54.998  1.00  0.00     0.225 C 
HETATM   11  S1  UNL     1      24.094   1.662  52.027  1.00  0.00    -0.193 SA
HETATM   12  C16 UNL     1      23.750   3.239  52.851  1.00  0.00     0.077 C 
HETATM   13  H10 UNL     1      24.946  -1.019  55.473  1.00  0.00     0.165 HD
HETATM   14  H17 UNL     1      23.563   1.800  50.514  1.00  0.00     0.092 HD
ENDROOT
BRANCH   1  15
HETATM   15  N1  UNL     1      21.913  -0.354  52.324  1.00  0.00    -0.349 N 
HETATM   16  H8  UNL     1      21.920  -1.316  52.739  1.00  0.00     0.166 HD
BRANCH  15  17
HETATM   17  C7  UNL     1      20.878   0.202  51.527  1.00  0.00     0.066 A 
HETATM   18  C2  UNL     1      19.532   0.263  51.852  1.00  0.00     0.094 A 
HETATM   19  C3  UNL     1      18.634   0.834  50.975  1.00  0.00     0.039 A 
HETATM   20  C4  UNL     1      19.088   1.340  49.779  1.00  0.00     0.003 A 
HETATM   21  C5  UNL     1      20.434   1.288  49.433  1.00  0.00     0.002 A 
HETATM   22  C6  UNL     1      21.341   0.711  50.319  1.00  0.00     0.032 A 
BRANCH  18  23
HETATM   23  O1  UNL     1      19.303  -0.306  53.105  1.00  0.00    -0.354 OA
HETATM   24  C1  UNL     1      18.208  -1.166  53.224  1.00  0.00     0.210 C 
ENDBRANCH  18  23
ENDBRANCH  15  17
ENDBRANCH   1  15
TORSDOF 3
ENDMDL
MODEL 2
REMARK VINA RESULT:      -7.3      3.812      6.859
REMARK  3 active torsions:
REMARK  status: ('A' for Active; 'I' for Inactive)
REMARK    1  A    between atoms: O1_2  and  C2_3 
REMARK    2  A    between atoms: C7_8  and  N1_9 
REMARK    3  A    between atoms: N1_9  and  C8_10 
ROOT
HETATM    1  C8  UNL     1      24.265   3.908  51.903  1.00  0.00     0.069 C 
HETATM    2  C9  UNL     1      23.705   5.096  52.257  1.00  0.00     0.123 C 
HETATM    3  N2  UNL     1      23.528   6.389  51.600  1.00  0.00    -0.365 N 
HETATM    4  C10 UNL     1      24.269   6.923  50.468  1.00  0.00     0.033 C 
HETATM    5  C11 UNL     1      25.579   7.038  50.109  1.00  0.00     0.028 C 
HETATM    6  C12 UNL     1      25.896   5.850  49.201  1.00  0.00     0.017 C 
HETATM    7  C13 UNL     1      24.918   4.902  49.333  1.00  0.00    -0.013 C 
HETATM    8  C14 UNL     1      23.588   5.153  48.635  1.00  0.00     0.212 C 
HETATM    9  O2  UNL     1      23.190   6.425  48.439  1.00  0.00    -0.380 OA
HETATM   10  C15 UNL     1      23.094   7.287  49.566  1.00  0.00     0.225 C 
HETATM   11  S1  UNL     1      24.490   3.344  50.146  1.00  0.00    -0.193 SA
HETATM   12  C16 UNL     1      23.013   2.560  49.446  1.00  0.00     0.077 C 
HETATM   13  H10 UNL     1      22.828   7.107  51.840  1.00  0.00     0.165 HD
HETATM   14  H17 UNL     1      25.631   2.211  50.220  1.00  0.00     0.092 HD
ENDROOT
BRANCH   1  15
HETATM   15  N1  UNL     1      24.597   3.265  53.128  1.00  0.00    -0.349 N 
HETATM   16  H8  UNL     1      24.561   4.023  53.850  1.00  0.00     0.166 HD
BRANCH  15  17
HETATM   17  C7  UNL     1      24.915   1.901  53.367  1.00  0.00     0.066 A 
HETATM   18  C2  UNL     1      26.121   1.409  53.842  1.00  0.00     0.094 A 
HETATM   19  C3  UNL     1      26.290   0.053  54.027  1.00  0.00     0.039 A 
HETATM   20  C4  UNL     1      25.251  -0.801  53.735  1.00  0.00     0.003 A 
HETATM   21  C5  UNL     1      24.034  -0.329  53.257  1.00  0.00     0.002 A 
HETATM   22  C6  UNL     1      23.863   1.042  53.071  1.00  0.00     0.032 A 
BRANCH  18  23
HETATM   23  O1  UNL     1      27.022   2.449  54.069  1.00  0.00    -0.354 OA
HETATM   24  C1  UNL     1      28.298   2.321  53.516  1.00  0.00     0.210 C 
ENDBRANCH  18  23
ENDBRANCH  15  17
ENDBRANCH   1  15
TORSDOF 3
ENDMDL
MODEL 3
REMARK VINA RESULT:      -7.3      2.585      6.623
REMARK  3 active torsions:
REMARK  status: ('A' for Active; 'I' for Inactive)
REMARK    1  A    between atoms: O1_2  and  C2_3 
REMARK    2  A    between atoms: C7_8  and  N1_9 
REMARK    3  A    between atoms: N1_9  and  C8_10 
ROOT
HETATM    1  C8  UNL     1      24.464   1.787  53.070  1.00  0.00     0.069 C 
HETATM    2  C9  UNL     1      24.578   3.102  53.397  1.00  0.00     0.123 C 
HETATM    3  N2  UNL     1      24.293   4.362  52.715  1.00  0.00    -0.365 N 
HETATM    4  C10 UNL     1      24.159   4.592  51.285  1.00  0.00     0.033 C 
HETATM    5  C11 UNL     1      24.855   4.261  50.160  1.00  0.00     0.028 C 
HETATM    6  C12 UNL     1      24.195   3.010  49.582  1.00  0.00     0.017 C 
HETATM    7  C13 UNL     1      23.391   2.439  50.531  1.00  0.00    -0.013 C 
HETATM    8  C14 UNL     1      22.043   3.093  50.806  1.00  0.00     0.212 C 
HETATM    9  O2  UNL     1      21.915   4.419  50.607  1.00  0.00    -0.380 OA
HETATM   10  C15 UNL     1      22.806   5.295  51.284  1.00  0.00     0.225 C 
HETATM   11  S1  UNL     1      23.299   1.131  51.777  1.00  0.00    -0.193 SA
HETATM   12  C16 UNL     1      21.618   0.855  52.394  1.00  0.00     0.077 C 
HETATM   13  H10 UNL     1      24.128   5.276  53.162  1.00  0.00     0.165 HD
HETATM   14  H17 UNL     1      23.894  -0.311  51.380  1.00  0.00     0.092 HD
ENDROOT
BRANCH   1  15
HETATM   15  N1  UNL     1      25.387   1.104  53.911  1.00  0.00    -0.349 N 
HETATM   16  H8  UNL     1      25.162   1.432  54.880  1.00  0.00     0.166 HD
BRANCH  15  17
HETATM   17  C7  UNL     1      26.403   0.177  53.560  1.00  0.00     0.066 A 
HETATM   18  C2  UNL     1      27.764   0.324  53.783  1.00  0.00     0.094 A 
HETATM   19  C3  UNL     1      28.640  -0.664  53.385  1.00  0.00     0.039 A 
HETATM   20  C4  UNL     1      28.150  -1.792  52.768  1.00  0.00     0.003 A 
HETATM   21  C5  UNL     1      26.790  -1.959  52.534  1.00  0.00     0.002 A 
HETATM   22  C6  UNL     1      25.904  -0.961  52.936  1.00  0.00     0.032 A 
BRANCH  18  23
HETATM   23  O1  UNL     1      28.029   1.537  54.418  1.00  0.00    -0.354 OA
HETATM   24  C1  UNL     1      28.681   2.520  53.670  1.00  0.00     0.210 C 
ENDBRANCH  18  23
ENDBRANCH  15  17
ENDBRANCH   1  15
TORSDOF 3
ENDMDL
MODEL 4
REMARK VINA RESULT:      -7.1      3.648      6.079
REMARK  3 active torsions:
REMARK  status: ('A' for Active; 'I' for Inactive)
REMARK    1  A    between atoms: O1_2  and  C2_3 
REMARK    2  A    between atoms: C7_8  and  N1_9 
REMARK    3  A    between atoms: N1_9  and  C8_10 
ROOT
HETATM    1  C8  UNL     1      23.217   3.417  51.866  1.00  0.00     0.069 C 
HETATM    2  C9  UNL     1      23.497   4.545  52.573  1.00  0.00     0.123 C 
HETATM    3  N2  UNL     1      23.841   5.922  52.225  1.00  0.00    -0.365 N 
HETATM    4  C10 UNL     1      24.383   6.415  50.968  1.00  0.00     0.033 C 
HETATM    5  C11 UNL     1      25.386   6.059  50.116  1.00  0.00     0.028 C 
HETATM    6  C12 UNL     1      24.751   5.215  49.011  1.00  0.00     0.017 C 
HETATM    7  C13 UNL     1      23.510   4.800  49.411  1.00  0.00    -0.013 C 
HETATM    8  C14 UNL     1      22.374   5.814  49.368  1.00  0.00     0.212 C 
HETATM    9  O2  UNL     1      22.667   7.120  49.525  1.00  0.00    -0.380 OA
HETATM   10  C15 UNL     1      23.371   7.522  50.692  1.00  0.00     0.225 C 
HETATM   11  S1  UNL     1      22.587   3.413  50.116  1.00  0.00    -0.193 SA
HETATM   12  C16 UNL     1      20.791   3.621  49.996  1.00  0.00     0.077 C 
HETATM   13  H10 UNL     1      23.729   6.751  52.826  1.00  0.00     0.165 HD
HETATM   14  H17 UNL     1      22.926   1.941  49.560  1.00  0.00     0.092 HD
ENDROOT
BRANCH   1  15
HETATM   15  N1  UNL     1      23.503   2.336  52.745  1.00  0.00    -0.349 N 
HETATM   16  H8  UNL     1      22.777   2.401  53.498  1.00  0.00     0.166 HD
BRANCH  15  17
HETATM   17  C7  UNL     1      24.533   1.361  52.662  1.00  0.00     0.066 A 
HETATM   18  C2  UNL     1      24.503   0.085  53.203  1.00  0.00     0.094 A 
HETATM   19  C3  UNL     1      25.581  -0.759  53.044  1.00  0.00     0.039 A 
HETATM   20  C4  UNL     1      26.683  -0.321  52.345  1.00  0.00     0.003 A 
HETATM   21  C5  UNL     1      26.734   0.955  51.795  1.00  0.00     0.002 A 
HETATM   22  C6  UNL     1      25.644   1.808  51.956  1.00  0.00     0.032 A 
BRANCH  18  23
HETATM   23  O1  UNL     1      23.295  -0.140  53.864  1.00  0.00    -0.354 OA
HETATM   24  C1  UNL     1      22.395  -1.024  53.265  1.00  0.00     0.210 C 
ENDBRANCH  18  23
ENDBRANCH  15  17
ENDBRANCH   1  15
TORSDOF 3
ENDMDL
MODEL 5
REMARK VINA RESULT:      -7.0      3.441      5.685
REMARK  3 active torsions:
REMARK  status: ('A' for Active; 'I' for Inactive)
REMARK    1  A    between atoms: O1_2  and  C2_3 
REMARK    2  A    between atoms: C7_8  and  N1_9 
REMARK    3  A    between atoms: N1_9  and  C8_10 
ROOT
HETATM    1  C8  UNL     1      23.025   2.647  51.268  1.00  0.00     0.069 C 
HETATM    2  C9  UNL     1      24.081   3.296  51.827  1.00  0.00     0.123 C 
HETATM    3  N2  UNL     1      24.721   4.593  51.620  1.00  0.00    -0.365 N 
HETATM    4  C10 UNL     1      24.648   5.446  50.444  1.00  0.00     0.033 C 
HETATM    5  C11 UNL     1      24.776   5.285  49.096  1.00  0.00     0.028 C 
HETATM    6  C12 UNL     1      23.364   5.124  48.533  1.00  0.00     0.017 C 
HETATM    7  C13 UNL     1      22.497   4.837  49.551  1.00  0.00    -0.013 C 
HETATM    8  C14 UNL     1      22.065   5.981  50.460  1.00  0.00     0.212 C 
HETATM    9  O2  UNL     1      22.909   7.015  50.642  1.00  0.00    -0.380 OA
HETATM   10  C15 UNL     1      24.221   6.745  51.118  1.00  0.00     0.225 C 
HETATM   11  S1  UNL     1      21.621   3.497  50.394  1.00  0.00    -0.193 SA
HETATM   12  C16 UNL     1      20.327   4.091  51.517  1.00  0.00     0.077 C 
HETATM   13  H10 UNL     1      25.308   5.101  52.298  1.00  0.00     0.165 HD
HETATM   14  H17 UNL     1      20.955   2.356  49.475  1.00  0.00     0.092 HD
ENDROOT
BRANCH   1  15
HETATM   15  N1  UNL     1      23.257   1.264  51.513  1.00  0.00    -0.349 N 
HETATM   16  H8  UNL     1      23.725   0.911  50.645  1.00  0.00     0.166 HD
BRANCH  15  17
HETATM   17  C7  UNL     1      22.941   0.492  52.662  1.00  0.00     0.066 A 
HETATM   18  C2  UNL     1      23.842  -0.168  53.483  1.00  0.00     0.094 A 
HETATM   19  C3  UNL     1      23.391  -0.884  54.571  1.00  0.00     0.039 A 
HETATM   20  C4  UNL     1      22.040  -0.936  54.831  1.00  0.00     0.003 A 
HETATM   21  C5  UNL     1      21.119  -0.282  54.020  1.00  0.00     0.002 A 
HETATM   22  C6  UNL     1      21.576   0.443  52.921  1.00  0.00     0.032 A 
BRANCH  18  23
HETATM   23  O1  UNL     1      25.148   0.023  53.032  1.00  0.00    -0.354 OA
HETATM   24  C1  UNL     1      26.060  -1.010  53.260  1.00  0.00     0.210 C 
ENDBRANCH  18  23
ENDBRANCH  15  17
ENDBRANCH   1  15
TORSDOF 3
ENDMDL
MODEL 6
REMARK VINA RESULT:      -6.8      2.789      6.625
REMARK  3 active torsions:
REMARK  status: ('A' for Active; 'I' for Inactive)
REMARK    1  A    between atoms: O1_2  and  C2_3 
REMARK    2  A    between atoms: C7_8  and  N1_9 
REMARK    3  A    between atoms: N1_9  and  C8_10 
ROOT
HETATM    1  C8  UNL     1      24.332   1.829  52.765  1.00  0.00     0.069 C 
HETATM    2  C9  UNL     1      24.406   3.085  53.281  1.00  0.00     0.123 C 
HETATM    3  N2  UNL     1      24.165   4.429  52.761  1.00  0.00    -0.365 N 
HETATM    4  C10 UNL     1      24.144   4.856  51.371  1.00  0.00     0.033 C 
HETATM    5  C11 UNL     1      24.932   4.686  50.271  1.00  0.00     0.028 C 
HETATM    6  C12 UNL     1      24.334   3.528  49.472  1.00  0.00     0.017 C 
HETATM    7  C13 UNL     1      23.462   2.832  50.264  1.00  0.00    -0.013 C 
HETATM    8  C14 UNL     1      22.089   3.442  50.516  1.00  0.00     0.212 C 
HETATM    9  O2  UNL     1      21.964   4.783  50.494  1.00  0.00    -0.380 OA
HETATM   10  C15 UNL     1      22.788   5.555  51.357  1.00  0.00     0.225 C 
HETATM   11  S1  UNL     1      23.283   1.362  51.302  1.00  0.00    -0.193 SA
HETATM   12  C16 UNL     1      21.559   1.004  51.736  1.00  0.00     0.077 C 
HETATM   13  H10 UNL     1      23.954   5.271  53.316  1.00  0.00     0.165 HD
HETATM   14  H17 UNL     1      23.922  -0.011  50.758  1.00  0.00     0.092 HD
ENDROOT
BRANCH   1  15
HETATM   15  N1  UNL     1      25.190   1.034  53.575  1.00  0.00    -0.349 N 
HETATM   16  H8  UNL     1      24.547   0.481  54.190  1.00  0.00     0.166 HD
BRANCH  15  17
HETATM   17  C7  UNL     1      26.609   0.971  53.584  1.00  0.00     0.066 A 
HETATM   18  C2  UNL     1      27.382  -0.180  53.556  1.00  0.00     0.094 A 
HETATM   19  C3  UNL     1      28.758  -0.090  53.570  1.00  0.00     0.039 A 
HETATM   20  C4  UNL     1      29.351   1.151  53.611  1.00  0.00     0.003 A 
HETATM   21  C5  UNL     1      28.596   2.317  53.640  1.00  0.00     0.002 A 
HETATM   22  C6  UNL     1      27.205   2.226  53.626  1.00  0.00     0.032 A 
BRANCH  18  23
HETATM   23  O1  UNL     1      26.572  -1.314  53.516  1.00  0.00    -0.354 OA
HETATM   24  C1  UNL     1      26.802  -2.227  52.484  1.00  0.00     0.210 C 
ENDBRANCH  18  23
ENDBRANCH  15  17
ENDBRANCH   1  15
TORSDOF 3
ENDMDL
MODEL 7
REMARK VINA RESULT:      -6.7      9.625     11.662
REMARK  3 active torsions:
REMARK  status: ('A' for Active; 'I' for Inactive)
REMARK    1  A    between atoms: O1_2  and  C2_3 
REMARK    2  A    between atoms: C7_8  and  N1_9 
REMARK    3  A    between atoms: N1_9  and  C8_10 
ROOT
HETATM    1  C8  UNL     1      32.047   6.592  47.651  1.00  0.00     0.069 C 
HETATM    2  C9  UNL     1      32.764   5.991  48.638  1.00  0.00     0.123 C 
HETATM    3  N2  UNL     1      33.593   4.790  48.725  1.00  0.00    -0.365 N 
HETATM    4  C10 UNL     1      33.580   3.632  47.845  1.00  0.00     0.033 C 
HETATM    5  C11 UNL     1      32.635   2.814  47.300  1.00  0.00     0.028 C 
HETATM    6  C12 UNL     1      32.348   3.342  45.896  1.00  0.00     0.017 C 
HETATM    7  C13 UNL     1      32.833   4.616  45.780  1.00  0.00    -0.013 C 
HETATM    8  C14 UNL     1      34.336   4.791  45.600  1.00  0.00     0.212 C 
HETATM    9  O2  UNL     1      35.161   3.862  46.121  1.00  0.00    -0.380 OA
HETATM   10  C15 UNL     1      35.067   3.573  47.509  1.00  0.00     0.225 C 
HETATM   11  S1  UNL     1      32.378   6.366  45.835  1.00  0.00    -0.193 SA
HETATM   12  C16 UNL     1      33.677   7.458  45.198  1.00  0.00     0.077 C 
HETATM   13  H10 UNL     1      34.326   4.602  49.425  1.00  0.00     0.165 HD
HETATM   14  H17 UNL     1      31.008   6.797  45.110  1.00  0.00     0.092 HD
ENDROOT
BRANCH   1  15
HETATM   15  N1  UNL     1      31.065   7.376  48.319  1.00  0.00    -0.349 N 
HETATM   16  H8  UNL     1      31.597   8.175  48.737  1.00  0.00     0.166 HD
BRANCH  15  17
HETATM   17  C7  UNL     1      29.665   7.162  48.422  1.00  0.00     0.066 A 
HETATM   18  C2  UNL     1      28.697   8.132  48.631  1.00  0.00     0.094 A 
HETATM   19  C3  UNL     1      27.367   7.777  48.711  1.00  0.00     0.039 A 
HETATM   20  C4  UNL     1      27.014   6.454  48.581  1.00  0.00     0.003 A 
HETATM   21  C5  UNL     1      27.968   5.464  48.372  1.00  0.00     0.002 A 
HETATM   22  C6  UNL     1      29.312   5.823  48.290  1.00  0.00     0.032 A 
BRANCH  18  23
HETATM   23  O1  UNL     1      29.282   9.395  48.732  1.00  0.00    -0.354 OA
HETATM   24  C1  UNL     1      28.972  10.322  47.735  1.00  0.00     0.210 C 
ENDBRANCH  18  23
ENDBRANCH  15  17
ENDBRANCH   1  15
TORSDOF 3
ENDMDL
MODEL 8
REMARK VINA RESULT:      -6.6      4.592      6.560
REMARK  3 active torsions:
REMARK  status: ('A' for Active; 'I' for Inactive)
REMARK    1  A    between atoms: O1_2  and  C2_3 
REMARK    2  A    between atoms: C7_8  and  N1_9 
REMARK    3  A    between atoms: N1_9  and  C8_10 
ROOT
HETATM    1  C8  UNL     1      23.949   4.948  51.446  1.00  0.00     0.069 C 
HETATM    2  C9  UNL     1      23.751   6.235  51.838  1.00  0.00     0.123 C 
HETATM    3  N2  UNL     1      24.015   7.545  51.248  1.00  0.00    -0.365 N 
HETATM    4  C10 UNL     1      24.957   7.872  50.189  1.00  0.00     0.033 C 
HETATM    5  C11 UNL     1      26.263   7.598  49.906  1.00  0.00     0.028 C 
HETATM    6  C12 UNL     1      26.268   6.406  48.950  1.00  0.00     0.017 C 
HETATM    7  C13 UNL     1      25.043   5.796  48.975  1.00  0.00    -0.013 C 
HETATM    8  C14 UNL     1      23.900   6.466  48.224  1.00  0.00     0.212 C 
HETATM    9  O2  UNL     1      23.918   7.806  48.081  1.00  0.00    -0.380 OA
HETATM   10  C15 UNL     1      24.010   8.611  49.249  1.00  0.00     0.225 C 
HETATM   11  S1  UNL     1      24.112   4.411  49.673  1.00  0.00    -0.193 SA
HETATM   12  C16 UNL     1      22.519   4.141  48.852  1.00  0.00     0.077 C 
HETATM   13  H10 UNL     1      23.550   8.432  51.492  1.00  0.00     0.165 HD
HETATM   14  H17 UNL     1      24.851   2.983  49.741  1.00  0.00     0.092 HD
ENDROOT
BRANCH   1  15
HETATM   15  N1  UNL     1      23.989   4.187  52.648  1.00  0.00    -0.349 N 
HETATM   16  H8  UNL     1      24.040   4.897  53.416  1.00  0.00     0.166 HD
BRANCH  15  17
HETATM   17  C7  UNL     1      23.967   2.777  52.817  1.00  0.00     0.066 A 
HETATM   18  C2  UNL     1      22.880   1.941  52.613  1.00  0.00     0.094 A 
HETATM   19  C3  UNL     1      23.004   0.582  52.818  1.00  0.00     0.039 A 
HETATM   20  C4  UNL     1      24.215   0.070  53.224  1.00  0.00     0.003 A 
HETATM   21  C5  UNL     1      25.318   0.891  53.435  1.00  0.00     0.002 A 
HETATM   22  C6  UNL     1      25.192   2.263  53.227  1.00  0.00     0.032 A 
BRANCH  18  23
HETATM   23  O1  UNL     1      21.766   2.674  52.206  1.00  0.00    -0.354 OA
HETATM   24  C1  UNL     1      20.516   2.229  52.641  1.00  0.00     0.210 C 
ENDBRANCH  18  23
ENDBRANCH  15  17
ENDBRANCH   1  15
TORSDOF 3
ENDMDL
MODEL 9
REMARK VINA RESULT:      -6.5      3.713      5.577
REMARK  3 active torsions:
REMARK  status: ('A' for Active; 'I' for Inactive)
REMARK    1  A    between atoms: O1_2  and  C2_3 
REMARK    2  A    between atoms: C7_8  and  N1_9 
REMARK    3  A    between atoms: N1_9  and  C8_10 
ROOT
HETATM    1  C8  UNL     1      23.090   3.067  50.806  1.00  0.00     0.069 C 
HETATM    2  C9  UNL     1      24.131   3.712  51.396  1.00  0.00     0.123 C 
HETATM    3  N2  UNL     1      24.710   5.050  51.289  1.00  0.00    -0.365 N 
HETATM    4  C10 UNL     1      24.572   5.995  50.192  1.00  0.00     0.033 C 
HETATM    5  C11 UNL     1      24.673   5.956  48.833  1.00  0.00     0.028 C 
HETATM    6  C12 UNL     1      23.256   5.782  48.289  1.00  0.00     0.017 C 
HETATM    7  C13 UNL     1      22.427   5.370  49.297  1.00  0.00    -0.013 C 
HETATM    8  C14 UNL     1      21.970   6.413  50.310  1.00  0.00     0.212 C 
HETATM    9  O2  UNL     1      22.774   7.464  50.563  1.00  0.00    -0.380 OA
HETATM   10  C15 UNL     1      24.107   7.212  50.986  1.00  0.00     0.225 C 
HETATM   11  S1  UNL     1      21.630   3.926  50.039  1.00  0.00    -0.193 SA
HETATM   12  C16 UNL     1      20.341   4.364  51.236  1.00  0.00     0.077 C 
HETATM   13  H10 UNL     1      25.293   5.523  51.995  1.00  0.00     0.165 HD
HETATM   14  H17 UNL     1      20.990   2.839  49.039  1.00  0.00     0.092 HD
ENDROOT
BRANCH   1  15
HETATM   15  N1  UNL     1      23.386   1.680  50.925  1.00  0.00    -0.349 N 
HETATM   16  H8  UNL     1      23.930   1.445  50.062  1.00  0.00     0.166 HD
BRANCH  15  17
HETATM   17  C7  UNL     1      23.041   0.776  51.965  1.00  0.00     0.066 A 
HETATM   18  C2  UNL     1      21.811   0.163  52.147  1.00  0.00     0.094 A 
HETATM   19  C3  UNL     1      21.617  -0.696  53.208  1.00  0.00     0.039 A 
HETATM   20  C4  UNL     1      22.655  -0.937  54.079  1.00  0.00     0.003 A 
HETATM   21  C5  UNL     1      23.896  -0.332  53.915  1.00  0.00     0.002 A 
HETATM   22  C6  UNL     1      24.092   0.536  52.842  1.00  0.00     0.032 A 
BRANCH  18  23
HETATM   23  O1  UNL     1      20.915   0.552  51.151  1.00  0.00    -0.354 OA
HETATM   24  C1  UNL     1      19.561   0.585  51.488  1.00  0.00     0.210 C 
ENDBRANCH  18  23
ENDBRANCH  15  17
ENDBRANCH   1  15
TORSDOF 3
ENDMDL
