MODEL 1
REMARK VINA RESULT:      -9.6      0.000      0.000
REMARK  3 active torsions:
REMARK  status: ('A' for Active; 'I' for Inactive)
REMARK    1  A    between atoms: O1_1  and  C1_2 
REMARK    2  A    between atoms: C4_5  and  C5_6 
REMARK    3  A    between atoms: C19_23  and  O2_24 
ROOT
HETATM    1  C5  UNL     1      25.568   1.453  53.009  1.00  0.00     0.296 C 
HETATM    2  N1  UNL     1      25.586   2.487  52.113  1.00  0.00    -0.430 NA
HETATM    3  C6  UNL     1      25.389   3.271  51.242  1.00  0.00     0.180 C 
HETATM    4  C7  UNL     1      24.660   3.816  50.099  1.00  0.00     0.055 C 
HETATM    5  C8  UNL     1      23.558   3.405  49.509  1.00  0.00     0.036 C 
HETATM    6 CL1  UNL     1      23.339   4.594  48.188  1.00  0.00    -0.084 Cl
HETATM    7  C9  UNL     1      22.518   2.438  49.702  1.00  0.00     0.020 C 
HETATM    8  C10 UNL     1      21.896   1.475  50.355  1.00  0.00    -0.018 C 
HETATM    9  C11 UNL     1      22.189   0.787  51.669  1.00  0.00    -0.009 C 
HETATM   10  C12 UNL     1      21.190  -0.193  51.874  1.00  0.00     0.067 C 
HETATM   11  C13 UNL     1      21.253  -0.985  53.128  1.00  0.00    -0.020 C 
HETATM   12  C14 UNL     1      21.640  -1.496  54.323  1.00  0.00    -0.004 C 
HETATM   13  C15 UNL     1      22.724  -1.376  55.263  1.00  0.00    -0.003 C 
HETATM   14  C16 UNL     1      23.925  -0.758  55.237  1.00  0.00    -0.007 C 
HETATM   15  C17 UNL     1      24.129  -0.180  53.984  1.00  0.00     0.147 C 
HETATM   16  N2  UNL     1      24.315   0.552  52.910  1.00  0.00    -0.375 N 
HETATM   17  C18 UNL     1      23.541   1.377  52.158  1.00  0.00     0.130 C 
ENDROOT
BRANCH   1  18
HETATM   18  C4  UNL     1      26.773   0.633  53.138  1.00  0.00     0.030 A 
HETATM   19  C3  UNL     1      27.014  -0.676  52.790  1.00  0.00     0.018 A 
HETATM   20  C2  UNL     1      28.235  -1.276  53.016  1.00  0.00     0.037 A 
HETATM   21  C1  UNL     1      29.248  -0.545  53.607  1.00  0.00     0.068 A 
HETATM   22  C20 UNL     1      29.059   0.771  53.975  1.00  0.00     0.073 A 
HETATM   23  C19 UNL     1      27.809   1.353  53.733  1.00  0.00     0.079 A 
BRANCH  21  24
HETATM   24  O1  UNL     1      30.476  -1.189  53.821  1.00  0.00    -0.361 OA
HETATM   25  H1  UNL     1      30.810  -1.279  54.788  1.00  0.00     0.217 HD
ENDBRANCH  21  24
BRANCH  23  26
HETATM   26  O2  UNL     1      27.750   2.687  54.153  1.00  0.00    -0.360 OA
HETATM   27  H18 UNL     1      28.649   3.141  54.303  1.00  0.00     0.217 HD
ENDBRANCH  23  26
ENDBRANCH   1  18
TORSDOF 3
ENDMDL
MODEL 2
REMARK VINA RESULT:      -9.4      2.928      5.714
REMARK  3 active torsions:
REMARK  status: ('A' for Active; 'I' for Inactive)
REMARK    1  A    between atoms: O1_1  and  C1_2 
REMARK    2  A    between atoms: C4_5  and  C5_6 
REMARK    3  A    between atoms: C19_23  and  O2_24 
ROOT
HETATM    1  C5  UNL     1      23.903   1.797  51.408  1.00  0.00     0.296 C 
HETATM    2  N1  UNL     1      25.253   1.616  51.547  1.00  0.00    -0.430 NA
HETATM    3  C6  UNL     1      26.357   1.338  51.886  1.00  0.00     0.180 C 
HETATM    4  C7  UNL     1      27.353   0.746  52.777  1.00  0.00     0.055 C 
HETATM    5  C8  UNL     1      27.209   0.070  53.897  1.00  0.00     0.036 C 
HETATM    6 CL1  UNL     1      28.897  -0.282  54.378  1.00  0.00    -0.084 Cl
HETATM    7  C9  UNL     1      26.166  -0.516  54.685  1.00  0.00     0.020 C 
HETATM    8  C10 UNL     1      24.914  -0.842  54.949  1.00  0.00    -0.018 C 
HETATM    9  C11 UNL     1      23.627  -0.621  54.189  1.00  0.00    -0.009 C 
HETATM   10  C12 UNL     1      22.574  -1.168  54.958  1.00  0.00     0.067 C 
HETATM   11  C13 UNL     1      21.202  -1.097  54.393  1.00  0.00    -0.020 C 
HETATM   12  C14 UNL     1      20.140  -0.834  53.592  1.00  0.00    -0.004 C 
HETATM   13  C15 UNL     1      19.842  -0.142  52.365  1.00  0.00    -0.003 C 
HETATM   14  C16 UNL     1      20.543   0.685  51.559  1.00  0.00    -0.007 C 
HETATM   15  C17 UNL     1      21.796   0.935  52.118  1.00  0.00     0.147 C 
HETATM   16  N2  UNL     1      23.054   1.065  52.472  1.00  0.00    -0.375 N 
HETATM   17  C18 UNL     1      24.014   0.230  52.947  1.00  0.00     0.130 C 
ENDROOT
BRANCH   1  18
HETATM   18  C4  UNL     1      23.408   3.160  51.213  1.00  0.00     0.030 A 
HETATM   19  C3  UNL     1      22.674   3.714  50.190  1.00  0.00     0.018 A 
HETATM   20  C2  UNL     1      22.319   5.047  50.189  1.00  0.00     0.037 A 
HETATM   21  C1  UNL     1      22.709   5.851  51.243  1.00  0.00     0.068 A 
HETATM   22  C20 UNL     1      23.447   5.346  52.294  1.00  0.00     0.073 A 
HETATM   23  C19 UNL     1      23.792   3.989  52.267  1.00  0.00     0.079 A 
BRANCH  21  24
HETATM   24  O1  UNL     1      22.330   7.201  51.208  1.00  0.00    -0.361 OA
HETATM   25  H1  UNL     1      22.620   7.762  50.397  1.00  0.00     0.217 HD
ENDBRANCH  21  24
BRANCH  23  26
HETATM   26  O2  UNL     1      24.538   3.605  53.388  1.00  0.00    -0.360 OA
HETATM   27  H18 UNL     1      24.009   3.167  54.139  1.00  0.00     0.217 HD
ENDBRANCH  23  26
ENDBRANCH   1  18
TORSDOF 3
ENDMDL
MODEL 3
REMARK VINA RESULT:      -8.5      3.229      5.057
REMARK  3 active torsions:
REMARK  status: ('A' for Active; 'I' for Inactive)
REMARK    1  A    between atoms: O1_1  and  C1_2 
REMARK    2  A    between atoms: C4_5  and  C5_6 
REMARK    3  A    between atoms: C19_23  and  O2_24 
ROOT
HETATM    1  C5  UNL     1      23.475   3.722  52.064  1.00  0.00     0.296 C 
HETATM    2  N1  UNL     1      22.148   3.987  51.855  1.00  0.00    -0.430 NA
HETATM    3  C6  UNL     1      20.969   3.963  51.708  1.00  0.00     0.180 C 
HETATM    4  C7  UNL     1      19.662   3.312  51.641  1.00  0.00     0.055 C 
HETATM    5  C8  UNL     1      19.319   2.055  51.821  1.00  0.00     0.036 C 
HETATM    6 CL1  UNL     1      17.550   2.074  51.546  1.00  0.00    -0.084 Cl
HETATM    7  C9  UNL     1      19.901   0.823  52.264  1.00  0.00     0.020 C 
HETATM    8  C10 UNL     1      20.878   0.071  52.736  1.00  0.00    -0.018 C 
HETATM    9  C11 UNL     1      22.297   0.390  53.147  1.00  0.00    -0.009 C 
HETATM   10  C12 UNL     1      22.906  -0.815  53.566  1.00  0.00     0.067 C 
HETATM   11  C13 UNL     1      24.307  -0.745  54.049  1.00  0.00    -0.020 C 
HETATM   12  C14 UNL     1      25.544  -0.301  54.386  1.00  0.00    -0.004 C 
HETATM   13  C15 UNL     1      26.320   0.910  54.339  1.00  0.00    -0.003 C 
HETATM   14  C16 UNL     1      26.137   2.122  53.768  1.00  0.00    -0.007 C 
HETATM   15  C17 UNL     1      24.953   2.119  53.031  1.00  0.00     0.147 C 
HETATM   16  N2  UNL     1      23.770   2.262  52.481  1.00  0.00    -0.375 N 
HETATM   17  C18 UNL     1      22.504   1.892  52.805  1.00  0.00     0.130 C 
ENDROOT
BRANCH   1  18
HETATM   18  C4  UNL     1      24.433   4.164  51.052  1.00  0.00     0.030 A 
HETATM   19  C3  UNL     1      25.247   3.445  50.207  1.00  0.00     0.018 A 
HETATM   20  C2  UNL     1      26.106   4.065  49.323  1.00  0.00     0.037 A 
HETATM   21  C1  UNL     1      26.152   5.445  49.282  1.00  0.00     0.068 A 
HETATM   22  C20 UNL     1      25.358   6.213  50.107  1.00  0.00     0.073 A 
HETATM   23  C19 UNL     1      24.496   5.556  50.994  1.00  0.00     0.079 A 
BRANCH  21  24
HETATM   24  O1  UNL     1      27.038   6.040  48.370  1.00  0.00    -0.361 OA
HETATM   25  H1  UNL     1      28.045   5.970  48.562  1.00  0.00     0.217 HD
ENDBRANCH  21  24
BRANCH  23  26
HETATM   26  O2  UNL     1      23.748   6.448  51.771  1.00  0.00    -0.360 OA
HETATM   27  H18 UNL     1      24.147   6.683  52.678  1.00  0.00     0.217 HD
ENDBRANCH  23  26
ENDBRANCH   1  18
TORSDOF 3
ENDMDL
MODEL 4
REMARK VINA RESULT:      -8.5      3.058      6.040
REMARK  3 active torsions:
REMARK  status: ('A' for Active; 'I' for Inactive)
REMARK    1  A    between atoms: O1_1  and  C1_2 
REMARK    2  A    between atoms: C4_5  and  C5_6 
REMARK    3  A    between atoms: C19_23  and  O2_24 
ROOT
HETATM    1  C5  UNL     1      24.829   3.015  50.305  1.00  0.00     0.296 C 
HETATM    2  N1  UNL     1      26.040   2.778  50.899  1.00  0.00    -0.430 NA
HETATM    3  C6  UNL     1      26.948   2.443  51.588  1.00  0.00     0.180 C 
HETATM    4  C7  UNL     1      27.554   1.770  52.735  1.00  0.00     0.055 C 
HETATM    5  C8  UNL     1      27.013   1.044  53.689  1.00  0.00     0.036 C 
HETATM    6 CL1  UNL     1      28.417   0.607  54.711  1.00  0.00    -0.084 Cl
HETATM    7  C9  UNL     1      25.750   0.456  54.022  1.00  0.00     0.020 C 
HETATM    8  C10 UNL     1      24.481   0.163  53.807  1.00  0.00    -0.018 C 
HETATM    9  C11 UNL     1      23.550   0.468  52.657  1.00  0.00    -0.009 C 
HETATM   10  C12 UNL     1      22.284  -0.080  52.971  1.00  0.00     0.067 C 
HETATM   11  C13 UNL     1      21.203   0.070  51.965  1.00  0.00    -0.020 C 
HETATM   12  C14 UNL     1      20.497   0.412  50.859  1.00  0.00    -0.004 C 
HETATM   13  C15 UNL     1      20.662   1.176  49.650  1.00  0.00    -0.003 C 
HETATM   14  C16 UNL     1      21.616   2.019  49.194  1.00  0.00    -0.007 C 
HETATM   15  C17 UNL     1      22.594   2.194  50.174  1.00  0.00     0.147 C 
HETATM   16  N2  UNL     1      23.647   2.259  50.955  1.00  0.00    -0.375 N 
HETATM   17  C18 UNL     1      24.364   1.367  51.686  1.00  0.00     0.130 C 
ENDROOT
BRANCH   1  18
HETATM   18  C4  UNL     1      24.457   4.403  50.032  1.00  0.00     0.030 A 
HETATM   19  C3  UNL     1      24.294   5.074  48.842  1.00  0.00     0.018 A 
HETATM   20  C2  UNL     1      23.951   6.410  48.802  1.00  0.00     0.037 A 
HETATM   21  C1  UNL     1      23.764   7.095  49.988  1.00  0.00     0.068 A 
HETATM   22  C20 UNL     1      23.915   6.469  51.207  1.00  0.00     0.073 A 
HETATM   23  C19 UNL     1      24.264   5.113  51.216  1.00  0.00     0.079 A 
BRANCH  21  24
HETATM   24  O1  UNL     1      23.416   8.452  49.907  1.00  0.00    -0.361 OA
HETATM   25  H1  UNL     1      22.894   8.863  50.690  1.00  0.00     0.217 HD
ENDBRANCH  21  24
BRANCH  23  26
HETATM   26  O2  UNL     1      24.385   4.601  52.514  1.00  0.00    -0.360 OA
HETATM   27  H18 UNL     1      24.613   3.611  52.576  1.00  0.00     0.217 HD
ENDBRANCH  23  26
ENDBRANCH   1  18
TORSDOF 3
ENDMDL
MODEL 5
REMARK VINA RESULT:      -8.3      2.708      5.430
REMARK  3 active torsions:
REMARK  status: ('A' for Active; 'I' for Inactive)
REMARK    1  A    between atoms: O1_1  and  C1_2 
REMARK    2  A    between atoms: C4_5  and  C5_6 
REMARK    3  A    between atoms: C19_23  and  O2_24 
ROOT
HETATM    1  C5  UNL     1      24.530   2.310  50.799  1.00  0.00     0.296 C 
HETATM    2  N1  UNL     1      23.214   2.006  51.022  1.00  0.00    -0.430 NA
HETATM    3  C6  UNL     1      22.038   1.999  51.196  1.00  0.00     0.180 C 
HETATM    4  C7  UNL     1      20.722   2.620  51.331  1.00  0.00     0.055 C 
HETATM    5  C8  UNL     1      20.352   3.879  51.234  1.00  0.00     0.036 C 
HETATM    6 CL1  UNL     1      18.591   3.808  51.547  1.00  0.00    -0.084 Cl
HETATM    7  C9  UNL     1      20.901   5.146  50.853  1.00  0.00     0.020 C 
HETATM    8  C10 UNL     1      21.853   5.943  50.404  1.00  0.00    -0.018 C 
HETATM    9  C11 UNL     1      23.267   5.676  49.944  1.00  0.00    -0.009 C 
HETATM   10  C12 UNL     1      23.844   6.916  49.584  1.00  0.00     0.067 C 
HETATM   11  C13 UNL     1      25.235   6.901  49.066  1.00  0.00    -0.020 C 
HETATM   12  C14 UNL     1      26.471   6.502  48.676  1.00  0.00    -0.004 C 
HETATM   13  C15 UNL     1      27.270   5.305  48.634  1.00  0.00    -0.003 C 
HETATM   14  C16 UNL     1      27.123   4.059  49.135  1.00  0.00    -0.007 C 
HETATM   15  C17 UNL     1      25.956   3.995  49.898  1.00  0.00     0.147 C 
HETATM   16  N2  UNL     1      24.789   3.797  50.464  1.00  0.00    -0.375 N 
HETATM   17  C18 UNL     1      23.509   4.161  50.191  1.00  0.00     0.130 C 
ENDROOT
BRANCH   1  18
HETATM   18  C4  UNL     1      25.520   1.827  51.762  1.00  0.00     0.030 A 
HETATM   19  C3  UNL     1      26.531   0.903  51.628  1.00  0.00     0.018 A 
HETATM   20  C2  UNL     1      27.357   0.571  52.682  1.00  0.00     0.037 A 
HETATM   21  C1  UNL     1      27.166   1.181  53.907  1.00  0.00     0.068 A 
HETATM   22  C20 UNL     1      26.167   2.113  54.096  1.00  0.00     0.073 A 
HETATM   23  C19 UNL     1      25.345   2.429  53.008  1.00  0.00     0.079 A 
BRANCH  21  24
HETATM   24  O1  UNL     1      28.025   0.817  54.956  1.00  0.00    -0.361 OA
HETATM   25  H1  UNL     1      27.612   0.648  55.881  1.00  0.00     0.217 HD
ENDBRANCH  21  24
BRANCH  23  26
HETATM   26  O2  UNL     1      24.374   3.385  53.331  1.00  0.00    -0.360 OA
HETATM   27  H18 UNL     1      24.719   4.221  53.798  1.00  0.00     0.217 HD
ENDBRANCH  23  26
ENDBRANCH   1  18
TORSDOF 3
ENDMDL
MODEL 6
REMARK VINA RESULT:      -7.8      4.009      6.673
REMARK  3 active torsions:
REMARK  status: ('A' for Active; 'I' for Inactive)
REMARK    1  A    between atoms: O1_1  and  C1_2 
REMARK    2  A    between atoms: C4_5  and  C5_6 
REMARK    3  A    between atoms: C19_23  and  O2_24 
ROOT
HETATM    1  C5  UNL     1      21.532   2.167  51.978  1.00  0.00     0.296 C 
HETATM    2  N1  UNL     1      20.310   1.589  52.188  1.00  0.00    -0.430 NA
HETATM    3  C6  UNL     1      19.389   0.890  52.463  1.00  0.00     0.180 C 
HETATM    4  C7  UNL     1      18.765  -0.327  52.979  1.00  0.00     0.055 C 
HETATM    5  C8  UNL     1      19.299  -1.406  53.511  1.00  0.00     0.036 C 
HETATM    6 CL1  UNL     1      17.874  -2.431  53.862  1.00  0.00    -0.084 Cl
HETATM    7  C9  UNL     1      20.574  -1.877  53.962  1.00  0.00     0.020 C 
HETATM    8  C10 UNL     1      21.866  -1.761  54.210  1.00  0.00    -0.018 C 
HETATM    9  C11 UNL     1      22.833  -0.613  54.037  1.00  0.00    -0.009 C 
HETATM   10  C12 UNL     1      24.109  -1.059  54.451  1.00  0.00     0.067 C 
HETATM   11  C13 UNL     1      25.227  -0.083  54.400  1.00  0.00    -0.020 C 
HETATM   12  C14 UNL     1      25.965   1.036  54.196  1.00  0.00    -0.004 C 
HETATM   13  C15 UNL     1      25.817   2.358  53.646  1.00  0.00    -0.003 C 
HETATM   14  C16 UNL     1      24.842   2.979  52.945  1.00  0.00    -0.007 C 
HETATM   15  C17 UNL     1      23.812   2.079  52.675  1.00  0.00     0.147 C 
HETATM   16  N2  UNL     1      22.721   1.359  52.548  1.00  0.00    -0.375 N 
HETATM   17  C18 UNL     1      22.018   0.521  53.354  1.00  0.00     0.130 C 
ENDROOT
BRANCH   1  18
HETATM   18  C4  UNL     1      21.844   2.646  50.631  1.00  0.00     0.030 A 
HETATM   19  C3  UNL     1      22.554   2.060  49.609  1.00  0.00     0.018 A 
HETATM   20  C2  UNL     1      22.751   2.699  48.402  1.00  0.00     0.037 A 
HETATM   21  C1  UNL     1      22.222   3.961  48.211  1.00  0.00     0.068 A 
HETATM   22  C20 UNL     1      21.502   4.593  49.203  1.00  0.00     0.073 A 
HETATM   23  C19 UNL     1      21.318   3.920  50.417  1.00  0.00     0.079 A 
BRANCH  21  24
HETATM   24  O1  UNL     1      22.443   4.579  46.970  1.00  0.00    -0.361 OA
HETATM   25  H1  UNL     1      22.287   5.591  46.902  1.00  0.00     0.217 HD
ENDBRANCH  21  24
BRANCH  23  26
HETATM   26  O2  UNL     1      20.573   4.669  51.335  1.00  0.00    -0.360 OA
HETATM   27  H18 UNL     1      20.530   5.670  51.155  1.00  0.00     0.217 HD
ENDBRANCH  23  26
ENDBRANCH   1  18
TORSDOF 3
ENDMDL
MODEL 7
REMARK VINA RESULT:      -7.5      2.983      5.615
REMARK  3 active torsions:
REMARK  status: ('A' for Active; 'I' for Inactive)
REMARK    1  A    between atoms: O1_1  and  C1_2 
REMARK    2  A    between atoms: C4_5  and  C5_6 
REMARK    3  A    between atoms: C19_23  and  O2_24 
ROOT
HETATM    1  C5  UNL     1      24.143   2.977  50.339  1.00  0.00     0.296 C 
HETATM    2  N1  UNL     1      23.174   2.043  50.090  1.00  0.00    -0.430 NA
HETATM    3  C6  UNL     1      22.171   1.426  49.932  1.00  0.00     0.180 C 
HETATM    4  C7  UNL     1      20.720   1.251  49.910  1.00  0.00     0.055 C 
HETATM    5  C8  UNL     1      19.749   2.107  50.143  1.00  0.00     0.036 C 
HETATM    6 CL1  UNL     1      18.274   1.114  49.934  1.00  0.00    -0.084 Cl
HETATM    7  C9  UNL     1      19.568   3.511  50.366  1.00  0.00     0.020 C 
HETATM    8  C10 UNL     1      19.980   4.760  50.478  1.00  0.00    -0.018 C 
HETATM    9  C11 UNL     1      21.346   5.393  50.349  1.00  0.00    -0.009 C 
HETATM   10  C12 UNL     1      21.203   6.779  50.590  1.00  0.00     0.067 C 
HETATM   11  C13 UNL     1      22.420   7.624  50.487  1.00  0.00    -0.020 C 
HETATM   12  C14 UNL     1      23.700   8.042  50.330  1.00  0.00    -0.004 C 
HETATM   13  C15 UNL     1      25.011   7.490  50.106  1.00  0.00    -0.003 C 
HETATM   14  C16 UNL     1      25.514   6.236  50.105  1.00  0.00    -0.007 C 
HETATM   15  C17 UNL     1      24.515   5.330  50.464  1.00  0.00     0.147 C 
HETATM   16  N2  UNL     1      23.598   4.401  50.600  1.00  0.00    -0.375 N 
HETATM   17  C18 UNL     1      22.336   4.214  50.133  1.00  0.00     0.130 C 
ENDROOT
BRANCH   1  18
HETATM   18  C4  UNL     1      25.183   2.646  51.313  1.00  0.00     0.030 A 
HETATM   19  C3  UNL     1      26.548   2.542  51.173  1.00  0.00     0.018 A 
HETATM   20  C2  UNL     1      27.363   2.194  52.231  1.00  0.00     0.037 A 
HETATM   21  C1  UNL     1      26.797   1.943  53.465  1.00  0.00     0.068 A 
HETATM   22  C20 UNL     1      25.434   2.033  53.660  1.00  0.00     0.073 A 
HETATM   23  C19 UNL     1      24.633   2.388  52.568  1.00  0.00     0.079 A 
BRANCH  21  24
HETATM   24  O1  UNL     1      27.657   1.592  54.517  1.00  0.00    -0.361 OA
HETATM   25  H1  UNL     1      28.113   2.350  55.039  1.00  0.00     0.217 HD
ENDBRANCH  21  24
BRANCH  23  26
HETATM   26  O2  UNL     1      23.273   2.443  52.899  1.00  0.00    -0.360 OA
HETATM   27  H18 UNL     1      22.937   1.696  53.503  1.00  0.00     0.217 HD
ENDBRANCH  23  26
ENDBRANCH   1  18
TORSDOF 3
ENDMDL
MODEL 8
REMARK VINA RESULT:      -7.4      4.044      5.829
REMARK  3 active torsions:
REMARK  status: ('A' for Active; 'I' for Inactive)
REMARK    1  A    between atoms: O1_1  and  C1_2 
REMARK    2  A    between atoms: C4_5  and  C5_6 
REMARK    3  A    between atoms: C19_23  and  O2_24 
ROOT
HETATM    1  C5  UNL     1      22.814   5.394  50.205  1.00  0.00     0.296 C 
HETATM    2  N1  UNL     1      21.767   5.839  49.443  1.00  0.00    -0.430 NA
HETATM    3  C6  UNL     1      20.804   5.973  48.760  1.00  0.00     0.180 C 
HETATM    4  C7  UNL     1      19.656   5.496  47.992  1.00  0.00     0.055 C 
HETATM    5  C8  UNL     1      19.200   4.277  47.796  1.00  0.00     0.036 C 
HETATM    6 CL1  UNL     1      17.784   4.541  46.733  1.00  0.00    -0.084 Cl
HETATM    7  C9  UNL     1      19.430   2.944  48.266  1.00  0.00     0.020 C 
HETATM    8  C10 UNL     1      20.017   2.032  49.019  1.00  0.00    -0.018 C 
HETATM    9  C11 UNL     1      21.080   2.132  50.089  1.00  0.00    -0.009 C 
HETATM   10  C12 UNL     1      21.346   0.823  50.554  1.00  0.00     0.067 C 
HETATM   11  C13 UNL     1      22.345   0.671  51.642  1.00  0.00    -0.020 C 
HETATM   12  C14 UNL     1      23.291   0.924  52.580  1.00  0.00    -0.004 C 
HETATM   13  C15 UNL     1      24.060   2.030  53.087  1.00  0.00    -0.003 C 
HETATM   14  C16 UNL     1      24.240   3.309  52.689  1.00  0.00    -0.007 C 
HETATM   15  C17 UNL     1      23.557   3.529  51.493  1.00  0.00     0.147 C 
HETATM   16  N2  UNL     1      22.792   3.872  50.483  1.00  0.00    -0.375 N 
HETATM   17  C18 UNL     1      21.508   3.626  50.117  1.00  0.00     0.130 C 
ENDROOT
BRANCH   1  18
HETATM   18  C4  UNL     1      24.163   5.823  49.838  1.00  0.00     0.030 A 
HETATM   19  C3  UNL     1      25.079   5.273  48.972  1.00  0.00     0.018 A 
HETATM   20  C2  UNL     1      26.325   5.834  48.778  1.00  0.00     0.037 A 
HETATM   21  C1  UNL     1      26.665   6.979  49.472  1.00  0.00     0.068 A 
HETATM   22  C20 UNL     1      25.784   7.571  50.352  1.00  0.00     0.073 A 
HETATM   23  C19 UNL     1      24.527   6.980  50.528  1.00  0.00     0.079 A 
BRANCH  21  24
HETATM   24  O1  UNL     1      27.941   7.520  49.249  1.00  0.00    -0.361 OA
HETATM   25  H1  UNL     1      28.548   7.673  50.064  1.00  0.00     0.217 HD
ENDBRANCH  21  24
BRANCH  23  26
HETATM   26  O2  UNL     1      23.732   7.677  51.445  1.00  0.00    -0.360 OA
HETATM   27  H18 UNL     1      24.222   8.061  52.250  1.00  0.00     0.217 HD
ENDBRANCH  23  26
ENDBRANCH   1  18
TORSDOF 3
ENDMDL
MODEL 9
REMARK VINA RESULT:      -7.4      4.690      7.143
REMARK  3 active torsions:
REMARK  status: ('A' for Active; 'I' for Inactive)
REMARK    1  A    between atoms: O1_1  and  C1_2 
REMARK    2  A    between atoms: C4_5  and  C5_6 
REMARK    3  A    between atoms: C19_23  and  O2_24 
ROOT
HETATM    1  C5  UNL     1      20.149   2.001  51.006  1.00  0.00     0.296 C 
HETATM    2  N1  UNL     1      18.782   1.968  51.064  1.00  0.00    -0.430 NA
HETATM    3  C6  UNL     1      17.634   1.716  51.240  1.00  0.00     0.180 C 
HETATM    4  C7  UNL     1      16.523   0.904  51.733  1.00  0.00     0.055 C 
HETATM    5  C8  UNL     1      16.518  -0.224  52.409  1.00  0.00     0.036 C 
HETATM    6 CL1  UNL     1      14.772  -0.572  52.603  1.00  0.00    -0.084 Cl
HETATM    7  C9  UNL     1      17.439  -1.093  53.079  1.00  0.00     0.020 C 
HETATM    8  C10 UNL     1      18.632  -1.454  53.513  1.00  0.00    -0.018 C 
HETATM    9  C11 UNL     1      19.989  -0.797  53.416  1.00  0.00    -0.009 C 
HETATM   10  C12 UNL     1      20.926  -1.646  54.048  1.00  0.00     0.067 C 
HETATM   11  C13 UNL     1      22.338  -1.191  54.105  1.00  0.00    -0.020 C 
HETATM   12  C14 UNL     1      23.479  -0.475  53.945  1.00  0.00    -0.004 C 
HETATM   13  C15 UNL     1      23.933   0.726  53.294  1.00  0.00    -0.003 C 
HETATM   14  C16 UNL     1      23.374   1.586  52.413  1.00  0.00    -0.007 C 
HETATM   15  C17 UNL     1      22.108   1.126  52.048  1.00  0.00     0.147 C 
HETATM   16  N2  UNL     1      20.844   0.872  51.803  1.00  0.00    -0.375 N 
HETATM   17  C18 UNL     1      19.778   0.473  52.544  1.00  0.00     0.130 C 
ENDROOT
BRANCH   1  18
HETATM   18  C4  UNL     1      20.778   2.158  49.695  1.00  0.00     0.030 A 
HETATM   19  C3  UNL     1      21.517   1.277  48.939  1.00  0.00     0.018 A 
HETATM   20  C2  UNL     1      22.045   1.634  47.715  1.00  0.00     0.037 A 
HETATM   21  C1  UNL     1      21.827   2.910  47.232  1.00  0.00     0.068 A 
HETATM   22  C20 UNL     1      21.094   3.832  47.950  1.00  0.00     0.073 A 
HETATM   23  C19 UNL     1      20.571   3.441  49.188  1.00  0.00     0.079 A 
BRANCH  21  24
HETATM   24  O1  UNL     1      22.380   3.237  45.984  1.00  0.00    -0.361 OA
HETATM   25  H1  UNL     1      22.449   4.230  45.734  1.00  0.00     0.217 HD
ENDBRANCH  21  24
BRANCH  23  26
HETATM   26  O2  UNL     1      19.850   4.467  49.812  1.00  0.00    -0.360 OA
HETATM   27  H18 UNL     1      20.046   5.408  49.477  1.00  0.00     0.217 HD
ENDBRANCH  23  26
ENDBRANCH   1  18
TORSDOF 3
ENDMDL
