MODEL 1
REMARK VINA RESULT:      -7.9      0.000      0.000
REMARK  5 active torsions:
REMARK  status: ('A' for Active; 'I' for Inactive)
REMARK    1  A    between atoms: C2_2  and  C3_3 
REMARK    2  A    between atoms: C7_7  and  N1_8 
REMARK    3  A    between atoms: C14_16  and  N2_17 
REMARK    4  A    between atoms: C15_18  and  C16_19 
REMARK    5  A    between atoms: C16_19  and  N3_20 
ROOT
HETATM    1  C3  UNL     1      26.522   2.218  50.892  1.00  0.00     0.025 C 
HETATM    2  C4  UNL     1      25.789   1.380  51.588  1.00  0.00     0.030 C 
HETATM    3  C5  UNL     1      24.488   1.869  52.001  1.00  0.00     0.043 C 
HETATM    4  C6  UNL     1      23.678   1.625  52.964  1.00  0.00     0.002 C 
HETATM    5  C7  UNL     1      23.161   0.486  53.281  1.00  0.00     0.032 C 
HETATM    6  C13 UNL     1      23.742  -0.695  53.961  1.00  0.00     0.136 C 
HETATM    7  S1  UNL     1      25.529  -0.524  54.203  1.00  0.00    -0.115 SA
HETATM    8  C14 UNL     1      26.457  -0.984  52.737  1.00  0.00     0.269 C 
HETATM    9  N4  UNL     1      26.418   0.149  51.809  1.00  0.00    -0.359 N 
HETATM   10  H22 UNL     1      27.134  -0.102  51.067  1.00  0.00     0.162 HD
ENDROOT
BRANCH   5  11
HETATM   11  N1  UNL     1      21.801   0.242  52.959  1.00  0.00    -0.355 N 
HETATM   12  C8  UNL     1      21.349   0.601  51.661  1.00  0.00     0.091 A 
HETATM   13  C9  UNL     1      20.088   0.418  51.253  1.00  0.00     0.017 A 
HETATM   14  C10 UNL     1      19.101  -0.180  52.171  1.00  0.00    -0.001 A 
HETATM   15  C11 UNL     1      19.548  -0.508  53.381  1.00  0.00    -0.007 A 
HETATM   16  C12 UNL     1      20.905  -0.354  53.932  1.00  0.00     0.155 A 
ENDBRANCH   5  11
BRANCH   8  17
HETATM   17  N2  UNL     1      27.799  -1.251  53.152  1.00  0.00    -0.268 NA
HETATM   18  C15 UNL     1      28.449  -0.596  54.025  1.00  0.00     0.116 C 
BRANCH  18  19
HETATM   19  C16 UNL     1      28.238   0.582  54.932  1.00  0.00     0.315 C 
BRANCH  19  20
HETATM   20  N3  UNL     1      29.214   1.622  54.639  1.00  0.00     0.083 N 
HETATM   21  C17 UNL     1      28.759   2.498  53.602  1.00  0.00     0.307 C 
HETATM   22  H18 UNL     1      29.586   2.072  55.486  1.00  0.00     0.315 HD
ENDBRANCH  19  20
ENDBRANCH  18  19
ENDBRANCH   8  17
BRANCH   1  23
HETATM   23  C2  UNL     1      26.548   3.552  50.324  1.00  0.00    -0.024 C 
HETATM   24  C1  UNL     1      26.940   4.123  49.194  1.00  0.00     0.031 C 
ENDBRANCH   1  23
TORSDOF 5
ENDMDL
MODEL 2
REMARK VINA RESULT:      -7.8      2.444      6.612
REMARK  5 active torsions:
REMARK  status: ('A' for Active; 'I' for Inactive)
REMARK    1  A    between atoms: C2_2  and  C3_3 
REMARK    2  A    between atoms: C7_7  and  N1_8 
REMARK    3  A    between atoms: C14_16  and  N2_17 
REMARK    4  A    between atoms: C15_18  and  C16_19 
REMARK    5  A    between atoms: C16_19  and  N3_20 
ROOT
HETATM    1  C3  UNL     1      21.833   0.259  52.692  1.00  0.00     0.025 C 
HETATM    2  C4  UNL     1      23.092   0.572  52.491  1.00  0.00     0.030 C 
HETATM    3  C5  UNL     1      24.041   0.018  53.437  1.00  0.00     0.043 C 
HETATM    4  C6  UNL     1      25.196   0.351  53.882  1.00  0.00     0.002 C 
HETATM    5  C7  UNL     1      26.267   0.565  53.195  1.00  0.00     0.032 C 
HETATM    6  C13 UNL     1      26.671   1.713  52.349  1.00  0.00     0.136 C 
HETATM    7  S1  UNL     1      25.323   2.903  52.135  1.00  0.00    -0.115 SA
HETATM    8  C14 UNL     1      24.190   2.414  50.830  1.00  0.00     0.269 C 
HETATM    9  N4  UNL     1      23.284   1.402  51.380  1.00  0.00    -0.359 N 
HETATM   10  H22 UNL     1      22.531   1.302  50.639  1.00  0.00     0.162 HD
ENDROOT
BRANCH   5  11
HETATM   11  N1  UNL     1      27.288  -0.420  53.198  1.00  0.00    -0.355 N 
HETATM   12  C8  UNL     1      28.574  -0.045  53.671  1.00  0.00     0.091 A 
HETATM   13  C9  UNL     1      29.608  -0.891  53.715  1.00  0.00     0.017 A 
HETATM   14  C10 UNL     1      29.436  -2.283  53.260  1.00  0.00    -0.001 A 
HETATM   15  C11 UNL     1      28.222  -2.611  52.822  1.00  0.00    -0.007 A 
HETATM   16  C12 UNL     1      27.020  -1.766  52.730  1.00  0.00     0.155 A 
ENDBRANCH   5  11
BRANCH   8  17
HETATM   17  N2  UNL     1      23.464   3.582  50.441  1.00  0.00    -0.268 NA
HETATM   18  C15 UNL     1      23.940   4.573  49.802  1.00  0.00     0.116 C 
BRANCH  18  19
HETATM   19  C16 UNL     1      25.252   5.003  49.213  1.00  0.00     0.315 C 
BRANCH  19  20
HETATM   20  N3  UNL     1      25.940   5.904  50.126  1.00  0.00     0.083 N 
HETATM   21  C17 UNL     1      25.090   6.977  50.550  1.00  0.00     0.307 C 
HETATM   22  H18 UNL     1      26.453   5.410  50.867  1.00  0.00     0.315 HD
ENDBRANCH  19  20
ENDBRANCH  18  19
ENDBRANCH   8  17
BRANCH   1  23
HETATM   23  C2  UNL     1      20.939  -0.483  53.559  1.00  0.00    -0.024 C 
HETATM   24  C1  UNL     1      20.973  -1.604  54.265  1.00  0.00     0.031 C 
ENDBRANCH   1  23
TORSDOF 5
ENDMDL
MODEL 3
REMARK VINA RESULT:      -7.6      1.784      2.503
REMARK  5 active torsions:
REMARK  status: ('A' for Active; 'I' for Inactive)
REMARK    1  A    between atoms: C2_2  and  C3_3 
REMARK    2  A    between atoms: C7_7  and  N1_8 
REMARK    3  A    between atoms: C14_16  and  N2_17 
REMARK    4  A    between atoms: C15_18  and  C16_19 
REMARK    5  A    between atoms: C16_19  and  N3_20 
ROOT
HETATM    1  C3  UNL     1      26.626   4.369  49.626  1.00  0.00     0.025 C 
HETATM    2  C4  UNL     1      25.980   3.585  50.457  1.00  0.00     0.030 C 
HETATM    3  C5  UNL     1      24.560   3.844  50.597  1.00  0.00     0.043 C 
HETATM    4  C6  UNL     1      23.680   3.665  51.512  1.00  0.00     0.002 C 
HETATM    5  C7  UNL     1      23.360   2.554  52.083  1.00  0.00     0.032 C 
HETATM    6  C13 UNL     1      24.057   1.750  53.115  1.00  0.00     0.136 C 
HETATM    7  S1  UNL     1      25.715   2.388  53.463  1.00  0.00    -0.115 SA
HETATM    8  C14 UNL     1      26.927   1.806  52.272  1.00  0.00     0.269 C 
HETATM    9  N4  UNL     1      26.802   2.630  51.067  1.00  0.00    -0.359 N 
HETATM   10  H22 UNL     1      27.658   2.375  50.492  1.00  0.00     0.162 HD
ENDROOT
BRANCH   5  11
HETATM   11  N1  UNL     1      22.140   1.926  51.719  1.00  0.00    -0.355 N 
HETATM   12  C8  UNL     1      22.088   1.246  50.473  1.00  0.00     0.091 A 
HETATM   13  C9  UNL     1      20.991   0.624  50.030  1.00  0.00     0.017 A 
HETATM   14  C10 UNL     1      19.765   0.627  50.849  1.00  0.00    -0.001 A 
HETATM   15  C11 UNL     1      19.839   1.270  52.013  1.00  0.00    -0.007 A 
HETATM   16  C12 UNL     1      20.987   1.984  52.596  1.00  0.00     0.155 A 
ENDBRANCH   5  11
BRANCH   8  17
HETATM   17  N2  UNL     1      28.217   1.973  52.866  1.00  0.00    -0.268 NA
HETATM   18  C15 UNL     1      28.691   1.278  53.818  1.00  0.00     0.116 C 
BRANCH  18  19
HETATM   19  C16 UNL     1      28.269   0.129  54.687  1.00  0.00     0.315 C 
BRANCH  19  20
HETATM   20  N3  UNL     1      28.287  -1.110  53.922  1.00  0.00     0.083 N 
HETATM   21  C17 UNL     1      29.595  -1.400  53.416  1.00  0.00     0.307 C 
HETATM   22  H18 UNL     1      27.802  -1.882  54.398  1.00  0.00     0.315 HD
ENDBRANCH  19  20
ENDBRANCH  18  19
ENDBRANCH   8  17
BRANCH   1  23
HETATM   23  C2  UNL     1      26.470   5.486  48.715  1.00  0.00    -0.024 C 
HETATM   24  C1  UNL     1      27.225   6.462  48.230  1.00  0.00     0.031 C 
ENDBRANCH   1  23
TORSDOF 5
ENDMDL
MODEL 4
REMARK VINA RESULT:      -7.6      2.503      7.204
REMARK  5 active torsions:
REMARK  status: ('A' for Active; 'I' for Inactive)
REMARK    1  A    between atoms: C2_2  and  C3_3 
REMARK    2  A    between atoms: C7_7  and  N1_8 
REMARK    3  A    between atoms: C14_16  and  N2_17 
REMARK    4  A    between atoms: C15_18  and  C16_19 
REMARK    5  A    between atoms: C16_19  and  N3_20 
ROOT
HETATM    1  C3  UNL     1      21.985   0.395  52.824  1.00  0.00     0.025 C 
HETATM    2  C4  UNL     1      23.197   0.776  52.491  1.00  0.00     0.030 C 
HETATM    3  C5  UNL     1      24.235   0.510  53.469  1.00  0.00     0.043 C 
HETATM    4  C6  UNL     1      25.367   1.030  53.770  1.00  0.00     0.002 C 
HETATM    5  C7  UNL     1      26.382   1.201  52.992  1.00  0.00     0.032 C 
HETATM    6  C13 UNL     1      26.632   2.190  51.917  1.00  0.00     0.136 C 
HETATM    7  S1  UNL     1      25.162   3.184  51.558  1.00  0.00    -0.115 SA
HETATM    8  C14 UNL     1      24.033   2.344  50.442  1.00  0.00     0.269 C 
HETATM    9  N4  UNL     1      23.259   1.383  51.231  1.00  0.00    -0.359 N 
HETATM   10  H22 UNL     1      22.490   1.069  50.570  1.00  0.00     0.162 HD
ENDROOT
BRANCH   5  11
HETATM   11  N1  UNL     1      27.497   0.334  53.125  1.00  0.00    -0.355 N 
HETATM   12  C8  UNL     1      28.739   0.902  53.518  1.00  0.00     0.091 A 
HETATM   13  C9  UNL     1      29.853   0.179  53.671  1.00  0.00     0.017 A 
HETATM   14  C10 UNL     1      29.823  -1.275  53.428  1.00  0.00    -0.001 A 
HETATM   15  C11 UNL     1      28.648  -1.783  53.060  1.00  0.00    -0.007 A 
HETATM   16  C12 UNL     1      27.367  -1.086  52.864  1.00  0.00     0.155 A 
ENDBRANCH   5  11
BRANCH   8  17
HETATM   17  N2  UNL     1      23.177   3.340  49.878  1.00  0.00    -0.268 NA
HETATM   18  C15 UNL     1      22.387   3.171  48.898  1.00  0.00     0.116 C 
BRANCH  18  19
HETATM   19  C16 UNL     1      21.978   2.069  47.963  1.00  0.00     0.315 C 
BRANCH  19  20
HETATM   20  N3  UNL     1      20.898   1.289  48.551  1.00  0.00     0.083 N 
HETATM   21  C17 UNL     1      19.858   2.128  49.065  1.00  0.00     0.307 C 
HETATM   22  H18 UNL     1      20.599   0.506  47.954  1.00  0.00     0.315 HD
ENDBRANCH  19  20
ENDBRANCH  18  19
ENDBRANCH   8  17
BRANCH   1  23
HETATM   23  C2  UNL     1      21.207  -0.239  53.871  1.00  0.00    -0.024 C 
HETATM   24  C1  UNL     1      21.196  -1.399  54.510  1.00  0.00     0.031 C 
ENDBRANCH   1  23
TORSDOF 5
ENDMDL
MODEL 5
REMARK VINA RESULT:      -7.5      2.242      4.711
REMARK  5 active torsions:
REMARK  status: ('A' for Active; 'I' for Inactive)
REMARK    1  A    between atoms: C2_2  and  C3_3 
REMARK    2  A    between atoms: C7_7  and  N1_8 
REMARK    3  A    between atoms: C14_16  and  N2_17 
REMARK    4  A    between atoms: C15_18  and  C16_19 
REMARK    5  A    between atoms: C16_19  and  N3_20 
ROOT
HETATM    1  C3  UNL     1      22.776  -0.997  54.116  1.00  0.00     0.025 C 
HETATM    2  C4  UNL     1      23.532  -0.089  53.544  1.00  0.00     0.030 C 
HETATM    3  C5  UNL     1      22.886   0.732  52.539  1.00  0.00     0.043 C 
HETATM    4  C6  UNL     1      23.265   1.380  51.500  1.00  0.00     0.002 C 
HETATM    5  C7  UNL     1      24.157   2.311  51.440  1.00  0.00     0.032 C 
HETATM    6  C13 UNL     1      25.637   2.248  51.486  1.00  0.00     0.136 C 
HETATM    7  S1  UNL     1      26.232   0.582  51.872  1.00  0.00    -0.115 SA
HETATM    8  C14 UNL     1      26.221   0.253  53.637  1.00  0.00     0.269 C 
HETATM    9  N4  UNL     1      24.849  -0.088  54.020  1.00  0.00    -0.359 N 
HETATM   10  H22 UNL     1      24.943  -0.458  55.011  1.00  0.00     0.162 HD
ENDROOT
BRANCH   5  11
HETATM   11  N1  UNL     1      23.730   3.657  51.304  1.00  0.00    -0.355 N 
HETATM   12  C8  UNL     1      24.623   4.581  50.698  1.00  0.00     0.091 A 
HETATM   13  C9  UNL     1      24.326   5.872  50.523  1.00  0.00     0.017 A 
HETATM   14  C10 UNL     1      23.019   6.390  50.969  1.00  0.00    -0.001 A 
HETATM   15  C11 UNL     1      22.199   5.505  51.533  1.00  0.00    -0.007 A 
HETATM   16  C12 UNL     1      22.422   4.070  51.774  1.00  0.00     0.155 A 
ENDBRANCH   5  11
BRANCH   8  17
HETATM   17  N2  UNL     1      27.099  -0.853  53.866  1.00  0.00    -0.268 NA
HETATM   18  C15 UNL     1      28.368  -0.801  53.881  1.00  0.00     0.116 C 
BRANCH  18  19
HETATM   19  C16 UNL     1      29.452   0.222  53.705  1.00  0.00     0.315 C 
BRANCH  19  20
HETATM   20  N3  UNL     1      29.190   1.380  54.548  1.00  0.00     0.083 N 
HETATM   21  C17 UNL     1      28.910   2.549  53.769  1.00  0.00     0.307 C 
HETATM   22  H18 UNL     1      28.535   1.177  55.316  1.00  0.00     0.315 HD
ENDBRANCH  19  20
ENDBRANCH  18  19
ENDBRANCH   8  17
BRANCH   1  23
HETATM   23  C2  UNL     1      21.436  -1.551  54.143  1.00  0.00    -0.024 C 
HETATM   24  C1  UNL     1      20.211  -1.156  53.830  1.00  0.00     0.031 C 
ENDBRANCH   1  23
TORSDOF 5
ENDMDL
MODEL 6
REMARK VINA RESULT:      -7.5      2.740      6.897
REMARK  5 active torsions:
REMARK  status: ('A' for Active; 'I' for Inactive)
REMARK    1  A    between atoms: C2_2  and  C3_3 
REMARK    2  A    between atoms: C7_7  and  N1_8 
REMARK    3  A    between atoms: C14_16  and  N2_17 
REMARK    4  A    between atoms: C15_18  and  C16_19 
REMARK    5  A    between atoms: C16_19  and  N3_20 
ROOT
HETATM    1  C3  UNL     1      21.977   0.391  52.748  1.00  0.00     0.025 C 
HETATM    2  C4  UNL     1      23.174   0.809  52.408  1.00  0.00     0.030 C 
HETATM    3  C5  UNL     1      24.216   0.620  53.398  1.00  0.00     0.043 C 
HETATM    4  C6  UNL     1      25.324   1.195  53.687  1.00  0.00     0.002 C 
HETATM    5  C7  UNL     1      26.336   1.380  52.908  1.00  0.00     0.032 C 
HETATM    6  C13 UNL     1      26.552   2.341  51.800  1.00  0.00     0.136 C 
HETATM    7  S1  UNL     1      25.045   3.262  51.401  1.00  0.00    -0.115 SA
HETATM    8  C14 UNL     1      23.958   2.339  50.310  1.00  0.00     0.269 C 
HETATM    9  N4  UNL     1      23.218   1.374  51.128  1.00  0.00    -0.359 N 
HETATM   10  H22 UNL     1      22.467   1.007  50.474  1.00  0.00     0.162 HD
ENDROOT
BRANCH   5  11
HETATM   11  N1  UNL     1      27.485   0.565  53.076  1.00  0.00    -0.355 N 
HETATM   12  C8  UNL     1      27.344  -0.834  52.871  1.00  0.00     0.091 A 
HETATM   13  C9  UNL     1      28.358  -1.695  53.005  1.00  0.00     0.017 A 
HETATM   14  C10 UNL     1      29.695  -1.199  53.382  1.00  0.00    -0.001 A 
HETATM   15  C11 UNL     1      29.802   0.115  53.569  1.00  0.00    -0.007 A 
HETATM   16  C12 UNL     1      28.759   1.148  53.448  1.00  0.00     0.155 A 
ENDBRANCH   5  11
BRANCH   8  17
HETATM   17  N2  UNL     1      23.065   3.280  49.707  1.00  0.00    -0.268 NA
HETATM   18  C15 UNL     1      22.295   4.074  50.330  1.00  0.00     0.116 C 
BRANCH  18  19
HETATM   19  C16 UNL     1      21.945   4.417  51.749  1.00  0.00     0.315 C 
BRANCH  19  20
HETATM   20  N3  UNL     1      22.207   5.826  52.004  1.00  0.00     0.083 N 
HETATM   21  C17 UNL     1      22.026   6.619  50.825  1.00  0.00     0.307 C 
HETATM   22  H18 UNL     1      21.750   6.171  52.859  1.00  0.00     0.315 HD
ENDBRANCH  19  20
ENDBRANCH  18  19
ENDBRANCH   8  17
BRANCH   1  23
HETATM   23  C2  UNL     1      21.219  -0.238  53.812  1.00  0.00    -0.024 C 
HETATM   24  C1  UNL     1      21.321  -1.317  54.575  1.00  0.00     0.031 C 
ENDBRANCH   1  23
TORSDOF 5
ENDMDL
MODEL 7
REMARK VINA RESULT:      -7.3      2.822      5.061
REMARK  5 active torsions:
REMARK  status: ('A' for Active; 'I' for Inactive)
REMARK    1  A    between atoms: C2_2  and  C3_3 
REMARK    2  A    between atoms: C7_7  and  N1_8 
REMARK    3  A    between atoms: C14_16  and  N2_17 
REMARK    4  A    between atoms: C15_18  and  C16_19 
REMARK    5  A    between atoms: C16_19  and  N3_20 
ROOT
HETATM    1  C3  UNL     1      23.490  -0.399  53.734  1.00  0.00     0.025 C 
HETATM    2  C4  UNL     1      24.008   0.655  53.145  1.00  0.00     0.030 C 
HETATM    3  C5  UNL     1      23.214   1.241  52.083  1.00  0.00     0.043 C 
HETATM    4  C6  UNL     1      23.455   1.928  51.028  1.00  0.00     0.002 C 
HETATM    5  C7  UNL     1      24.075   3.057  50.955  1.00  0.00     0.032 C 
HETATM    6  C13 UNL     1      25.517   3.386  51.050  1.00  0.00     0.136 C 
HETATM    7  S1  UNL     1      26.508   1.949  51.530  1.00  0.00    -0.115 SA
HETATM    8  C14 UNL     1      26.509   1.692  53.308  1.00  0.00     0.269 C 
HETATM    9  N4  UNL     1      25.258   1.017  53.662  1.00  0.00    -0.359 N 
HETATM   10  H22 UNL     1      25.403   0.720  54.671  1.00  0.00     0.162 HD
ENDROOT
BRANCH   5  11
HETATM   11  N1  UNL     1      23.319   4.239  50.744  1.00  0.00    -0.355 N 
HETATM   12  C8  UNL     1      23.954   5.487  50.983  1.00  0.00     0.091 A 
HETATM   13  C9  UNL     1      23.335   6.661  50.820  1.00  0.00     0.017 A 
HETATM   14  C10 UNL     1      21.931   6.693  50.372  1.00  0.00    -0.001 A 
HETATM   15  C11 UNL     1      21.358   5.511  50.155  1.00  0.00    -0.007 A 
HETATM   16  C12 UNL     1      21.940   4.167  50.301  1.00  0.00     0.155 A 
ENDBRANCH   5  11
BRANCH   8  17
HETATM   17  N2  UNL     1      27.634   0.863  53.614  1.00  0.00    -0.268 NA
HETATM   18  C15 UNL     1      27.742  -0.372  53.338  1.00  0.00     0.116 C 
BRANCH  18  19
HETATM   19  C16 UNL     1      26.934  -1.449  52.675  1.00  0.00     0.315 C 
BRANCH  19  20
HETATM   20  N3  UNL     1      27.580  -2.742  52.854  1.00  0.00     0.083 N 
HETATM   21  C17 UNL     1      28.964  -2.599  53.192  1.00  0.00     0.307 C 
HETATM   22  H18 UNL     1      27.032  -3.386  53.439  1.00  0.00     0.315 HD
ENDBRANCH  19  20
ENDBRANCH  18  19
ENDBRANCH   8  17
BRANCH   1  23
HETATM   23  C2  UNL     1      22.341  -1.283  53.744  1.00  0.00    -0.024 C 
HETATM   24  C1  UNL     1      21.247  -1.453  54.472  1.00  0.00     0.031 C 
ENDBRANCH   1  23
TORSDOF 5
ENDMDL
MODEL 8
REMARK VINA RESULT:      -7.2      2.326      6.670
REMARK  5 active torsions:
REMARK  status: ('A' for Active; 'I' for Inactive)
REMARK    1  A    between atoms: C2_2  and  C3_3 
REMARK    2  A    between atoms: C7_7  and  N1_8 
REMARK    3  A    between atoms: C14_16  and  N2_17 
REMARK    4  A    between atoms: C15_18  and  C16_19 
REMARK    5  A    between atoms: C16_19  and  N3_20 
ROOT
HETATM    1  C3  UNL     1      25.524   5.547  49.465  1.00  0.00     0.025 C 
HETATM    2  C4  UNL     1      25.348   4.524  50.269  1.00  0.00     0.030 C 
HETATM    3  C5  UNL     1      26.398   3.524  50.260  1.00  0.00     0.043 C 
HETATM    4  C6  UNL     1      26.472   2.268  50.506  1.00  0.00     0.002 C 
HETATM    5  C7  UNL     1      26.140   1.663  51.596  1.00  0.00     0.032 C 
HETATM    6  C13 UNL     1      24.812   1.317  52.156  1.00  0.00     0.136 C 
HETATM    7  S1  UNL     1      23.463   2.049  51.195  1.00  0.00    -0.115 SA
HETATM    8  C14 UNL     1      23.150   3.755  51.661  1.00  0.00     0.269 C 
HETATM    9  N4  UNL     1      24.152   4.591  50.995  1.00  0.00    -0.359 N 
HETATM   10  H22 UNL     1      23.801   5.582  51.144  1.00  0.00     0.162 HD
ENDROOT
BRANCH   5  11
HETATM   11  N1  UNL     1      27.167   1.216  52.468  1.00  0.00    -0.355 N 
HETATM   12  C8  UNL     1      27.939   2.197  53.145  1.00  0.00     0.091 A 
HETATM   13  C9  UNL     1      28.932   1.888  53.986  1.00  0.00     0.017 A 
HETATM   14  C10 UNL     1      29.263   0.474  54.241  1.00  0.00    -0.001 A 
HETATM   15  C11 UNL     1      28.526  -0.427  53.594  1.00  0.00    -0.007 A 
HETATM   16  C12 UNL     1      27.416  -0.201  52.653  1.00  0.00     0.155 A 
ENDBRANCH   5  11
BRANCH   8  17
HETATM   17  N2  UNL     1      21.835   4.083  51.205  1.00  0.00    -0.268 NA
HETATM   18  C15 UNL     1      20.753   3.573  51.632  1.00  0.00     0.116 C 
BRANCH  18  19
HETATM   19  C16 UNL     1      20.316   2.552  52.642  1.00  0.00     0.315 C 
BRANCH  19  20
HETATM   20  N3  UNL     1      19.352   1.638  52.046  1.00  0.00     0.083 N 
HETATM   21  C17 UNL     1      19.946   0.372  51.736  1.00  0.00     0.307 C 
HETATM   22  H18 UNL     1      18.458   1.610  52.554  1.00  0.00     0.315 HD
ENDBRANCH  19  20
ENDBRANCH  18  19
ENDBRANCH   8  17
BRANCH   1  23
HETATM   23  C2  UNL     1      26.429   6.122  48.489  1.00  0.00    -0.024 C 
HETATM   24  C1  UNL     1      27.670   6.587  48.465  1.00  0.00     0.031 C 
ENDBRANCH   1  23
TORSDOF 5
ENDMDL
MODEL 9
REMARK VINA RESULT:      -7.2      3.587      6.556
REMARK  5 active torsions:
REMARK  status: ('A' for Active; 'I' for Inactive)
REMARK    1  A    between atoms: C2_2  and  C3_3 
REMARK    2  A    between atoms: C7_7  and  N1_8 
REMARK    3  A    between atoms: C14_16  and  N2_17 
REMARK    4  A    between atoms: C15_18  and  C16_19 
REMARK    5  A    between atoms: C16_19  and  N3_20 
ROOT
HETATM    1  C3  UNL     1      26.404   5.338  49.134  1.00  0.00     0.025 C 
HETATM    2  C4  UNL     1      25.839   4.460  49.930  1.00  0.00     0.030 C 
HETATM    3  C5  UNL     1      26.648   3.309  50.280  1.00  0.00     0.043 C 
HETATM    4  C6  UNL     1      26.419   2.096  50.625  1.00  0.00     0.002 C 
HETATM    5  C7  UNL     1      25.712   1.687  51.624  1.00  0.00     0.032 C 
HETATM    6  C13 UNL     1      24.244   1.631  51.822  1.00  0.00     0.136 C 
HETATM    7  S1  UNL     1      23.349   2.452  50.480  1.00  0.00    -0.115 SA
HETATM    8  C14 UNL     1      23.254   4.230  50.719  1.00  0.00     0.269 C 
HETATM    9  N4  UNL     1      24.532   4.806  50.294  1.00  0.00    -0.359 N 
HETATM   10  H22 UNL     1      24.347   5.852  50.271  1.00  0.00     0.162 HD
ENDROOT
BRANCH   5  11
HETATM   11  N1  UNL     1      26.378   1.186  52.772  1.00  0.00    -0.355 N 
HETATM   12  C8  UNL     1      27.794   1.288  52.818  1.00  0.00     0.091 A 
HETATM   13  C9  UNL     1      28.522   0.846  53.848  1.00  0.00     0.017 A 
HETATM   14  C10 UNL     1      27.853   0.221  55.004  1.00  0.00    -0.001 A 
HETATM   15  C11 UNL     1      26.526   0.138  54.938  1.00  0.00    -0.007 A 
HETATM   16  C12 UNL     1      25.629   0.588  53.861  1.00  0.00     0.155 A 
ENDBRANCH   5  11
BRANCH   8  17
HETATM   17  N2  UNL     1      22.186   4.710  49.899  1.00  0.00    -0.268 NA
HETATM   18  C15 UNL     1      21.562   5.805  50.060  1.00  0.00     0.116 C 
BRANCH  18  19
HETATM   19  C16 UNL     1      21.575   6.977  50.997  1.00  0.00     0.315 C 
BRANCH  19  20
HETATM   20  N3  UNL     1      22.842   7.688  50.893  1.00  0.00     0.083 N 
HETATM   21  C17 UNL     1      22.944   8.408  49.660  1.00  0.00     0.307 C 
HETATM   22  H18 UNL     1      23.080   8.210  51.747  1.00  0.00     0.315 HD
ENDBRANCH  19  20
ENDBRANCH  18  19
ENDBRANCH   8  17
BRANCH   1  23
HETATM   23  C2  UNL     1      27.621   5.638  48.403  1.00  0.00    -0.024 C 
HETATM   24  C1  UNL     1      28.314   6.715  48.065  1.00  0.00     0.031 C 
ENDBRANCH   1  23
TORSDOF 5
ENDMDL
