MODEL 1
REMARK VINA RESULT:      -8.9      0.000      0.000
REMARK  6 active torsions:
REMARK  status: ('A' for Active; 'I' for Inactive)
REMARK    1  A    between atoms: O1_2  and  C2_3 
REMARK    2  A    between atoms: C5_6  and  C6_7 
REMARK    3  A    between atoms: C8_9  and  C9_10 
REMARK    4  A    between atoms: N2_18  and  C16_19 
REMARK    5  A    between atoms: C18_22  and  O2_23 
REMARK    6  A    between atoms: C19_24  and  S1_25 
ROOT
HETATM    1  C6  UNL     1      24.140   1.752  52.943  1.00  0.00     0.149 A 
HETATM    2  C7  UNL     1      24.346   2.565  51.699  1.00  0.00     0.094 A 
HETATM    3  C8  UNL     1      23.177   2.247  50.873  1.00  0.00     0.067 A 
HETATM    4  N1  UNL     1      22.436   1.370  51.420  1.00  0.00    -0.175 NA
HETATM    5  N2  UNL     1      22.973   0.970  52.667  1.00  0.00    -0.256 N 
ENDROOT
BRANCH   5   6
HETATM    6  C16 UNL     1      22.360  -0.061  53.433  1.00  0.00     0.105 A 
HETATM    7  C17 UNL     1      22.785  -0.900  54.363  1.00  0.00     0.120 A 
HETATM    8  N3  UNL     1      21.864  -1.637  54.842  1.00  0.00    -0.219 NA
HETATM    9  C18 UNL     1      20.655  -1.332  54.119  1.00  0.00     0.182 A 
HETATM   10  C19 UNL     1      20.937  -0.367  53.249  1.00  0.00     0.081 A 
BRANCH   9  11
HETATM   11  O2  UNL     1      19.394  -1.930  54.284  1.00  0.00    -0.344 OA
HETATM   12  H16 UNL     1      19.058  -2.674  53.679  1.00  0.00     0.219 HD
ENDBRANCH   9  11
BRANCH  10  13
HETATM   13  S1  UNL     1      19.762   0.348  52.127  1.00  0.00    -0.136 SA
HETATM   14  H17 UNL     1      19.871  -0.281  50.856  1.00  0.00     0.107 HD
ENDBRANCH  10  13
ENDBRANCH   5   6
BRANCH   1  15
HETATM   15  C5  UNL     1      25.370   0.953  53.178  1.00  0.00    -0.033 A 
HETATM   16  C4  UNL     1      25.772   0.097  52.174  1.00  0.00     0.012 A 
HETATM   17  C3  UNL     1      26.906  -0.671  52.332  1.00  0.00     0.037 A 
HETATM   18  C2  UNL     1      27.655  -0.593  53.500  1.00  0.00     0.068 A 
HETATM   19  C21 UNL     1      27.252   0.263  54.501  1.00  0.00     0.037 A 
HETATM   20  C20 UNL     1      26.117   1.037  54.353  1.00  0.00     0.012 A 
BRANCH  18  21
HETATM   21  O1  UNL     1      28.808  -1.295  53.804  1.00  0.00    -0.356 OA
HETATM   22  C1  UNL     1      30.096  -0.710  53.668  1.00  0.00     0.210 C 
ENDBRANCH  18  21
ENDBRANCH   1  15
BRANCH   3  23
HETATM   23  C9  UNL     1      22.887   2.857  49.574  1.00  0.00    -0.010 A 
HETATM   24  C10 UNL     1      23.137   4.194  49.334  1.00  0.00     0.014 A 
HETATM   25  C11 UNL     1      22.855   4.755  48.100  1.00  0.00     0.007 A 
HETATM   26  C12 UNL     1      22.317   3.996  47.076  1.00  0.00    -0.062 A 
HETATM   27  C13 UNL     1      22.006   4.560  45.754  1.00  0.00     0.048 C 
HETATM   28  C14 UNL     1      22.057   2.656  47.290  1.00  0.00     0.007 A 
HETATM   29  C15 UNL     1      22.350   2.128  48.532  1.00  0.00     0.014 A 
ENDBRANCH   3  23
TORSDOF 6
ENDMDL
MODEL 2
REMARK VINA RESULT:      -8.6      3.359      7.597
REMARK  6 active torsions:
REMARK  status: ('A' for Active; 'I' for Inactive)
REMARK    1  A    between atoms: O1_2  and  C2_3 
REMARK    2  A    between atoms: C5_6  and  C6_7 
REMARK    3  A    between atoms: C8_9  and  C9_10 
REMARK    4  A    between atoms: N2_18  and  C16_19 
REMARK    5  A    between atoms: C18_22  and  O2_23 
REMARK    6  A    between atoms: C19_24  and  S1_25 
ROOT
HETATM    1  C6  UNL     1      23.313   2.943  52.186  1.00  0.00     0.149 A 
HETATM    2  C7  UNL     1      24.218   2.092  53.027  1.00  0.00     0.094 A 
HETATM    3  C8  UNL     1      25.401   1.896  52.184  1.00  0.00     0.067 A 
HETATM    4  N1  UNL     1      25.257   2.426  51.037  1.00  0.00    -0.175 NA
HETATM    5  N2  UNL     1      23.988   3.045  50.928  1.00  0.00    -0.256 N 
ENDROOT
BRANCH   5   6
HETATM    6  C16 UNL     1      23.565   3.639  49.707  1.00  0.00     0.105 A 
HETATM    7  C17 UNL     1      22.857   3.220  48.670  1.00  0.00     0.120 A 
HETATM    8  N3  UNL     1      22.656   4.122  47.794  1.00  0.00    -0.219 NA
HETATM    9  C18 UNL     1      23.361   5.302  48.228  1.00  0.00     0.182 A 
HETATM   10  C19 UNL     1      23.925   5.027  49.400  1.00  0.00     0.081 A 
BRANCH   9  11
HETATM   11  O2  UNL     1      23.450   6.532  47.555  1.00  0.00    -0.344 OA
HETATM   12  H16 UNL     1      22.642   6.991  47.144  1.00  0.00     0.219 HD
ENDBRANCH   9  11
BRANCH  10  13
HETATM   13  S1  UNL     1      24.904   6.175  50.335  1.00  0.00    -0.136 SA
HETATM   14  H17 UNL     1      24.460   7.502  50.079  1.00  0.00     0.107 HD
ENDBRANCH  10  13
ENDBRANCH   5   6
BRANCH   1  15
HETATM   15  C5  UNL     1      21.988   2.274  52.116  1.00  0.00    -0.033 A 
HETATM   16  C4  UNL     1      21.977   0.907  51.928  1.00  0.00     0.012 A 
HETATM   17  C3  UNL     1      20.779   0.228  51.855  1.00  0.00     0.037 A 
HETATM   18  C2  UNL     1      19.573   0.909  51.969  1.00  0.00     0.068 A 
HETATM   19  C21 UNL     1      19.586   2.274  52.158  1.00  0.00     0.037 A 
HETATM   20  C20 UNL     1      20.781   2.963  52.232  1.00  0.00     0.012 A 
BRANCH  18  21
HETATM   21  O1  UNL     1      18.300   0.371  51.917  1.00  0.00    -0.356 OA
HETATM   22  C1  UNL     1      17.959  -0.812  52.629  1.00  0.00     0.210 C 
ENDBRANCH  18  21
ENDBRANCH   1  15
BRANCH   3  23
HETATM   23  C9  UNL     1      26.610   1.181  52.600  1.00  0.00    -0.010 A 
HETATM   24  C10 UNL     1      27.730   1.857  53.041  1.00  0.00     0.014 A 
HETATM   25  C11 UNL     1      28.864   1.165  53.430  1.00  0.00     0.007 A 
HETATM   26  C12 UNL     1      28.907  -0.218  53.389  1.00  0.00    -0.062 A 
HETATM   27  C13 UNL     1      30.095  -0.983  53.795  1.00  0.00     0.048 C 
HETATM   28  C14 UNL     1      27.799  -0.917  52.952  1.00  0.00     0.007 A 
HETATM   29  C15 UNL     1      26.685  -0.196  52.571  1.00  0.00     0.014 A 
ENDBRANCH   3  23
TORSDOF 6
ENDMDL
MODEL 3
REMARK VINA RESULT:      -8.5      3.227      6.172
REMARK  6 active torsions:
REMARK  status: ('A' for Active; 'I' for Inactive)
REMARK    1  A    between atoms: O1_2  and  C2_3 
REMARK    2  A    between atoms: C5_6  and  C6_7 
REMARK    3  A    between atoms: C8_9  and  C9_10 
REMARK    4  A    between atoms: N2_18  and  C16_19 
REMARK    5  A    between atoms: C18_22  and  O2_23 
REMARK    6  A    between atoms: C19_24  and  S1_25 
ROOT
HETATM    1  C6  UNL     1      21.481   0.787  50.834  1.00  0.00     0.149 A 
HETATM    2  C7  UNL     1      22.138   1.779  49.921  1.00  0.00     0.094 A 
HETATM    3  C8  UNL     1      23.356   2.165  50.639  1.00  0.00     0.067 A 
HETATM    4  N1  UNL     1      23.426   1.614  51.783  1.00  0.00    -0.175 NA
HETATM    5  N2  UNL     1      22.295   0.792  52.011  1.00  0.00    -0.256 N 
ENDROOT
BRANCH   5   6
HETATM    6  C16 UNL     1      22.108   0.130  53.256  1.00  0.00     0.105 A 
HETATM    7  C17 UNL     1      21.069  -0.073  54.050  1.00  0.00     0.120 A 
HETATM    8  N3  UNL     1      21.339  -0.790  55.066  1.00  0.00    -0.219 NA
HETATM    9  C18 UNL     1      22.752  -1.073  55.026  1.00  0.00     0.182 A 
HETATM   10  C19 UNL     1      23.243  -0.517  53.923  1.00  0.00     0.081 A 
BRANCH   9  11
HETATM   11  O2  UNL     1      23.498  -1.800  55.968  1.00  0.00    -0.344 OA
HETATM   12  H16 UNL     1      23.067  -2.294  56.744  1.00  0.00     0.219 HD
ENDBRANCH   9  11
BRANCH  10  13
HETATM   13  S1  UNL     1      24.948  -0.594  53.434  1.00  0.00    -0.136 SA
HETATM   14  H17 UNL     1      25.617  -1.595  54.192  1.00  0.00     0.107 HD
ENDBRANCH  10  13
ENDBRANCH   5   6
BRANCH   1  15
HETATM   15  C5  UNL     1      20.079   1.226  51.057  1.00  0.00    -0.033 A 
HETATM   16  C4  UNL     1      19.086   0.283  50.897  1.00  0.00     0.012 A 
HETATM   17  C3  UNL     1      17.765   0.630  51.091  1.00  0.00     0.037 A 
HETATM   18  C2  UNL     1      17.420   1.927  51.448  1.00  0.00     0.068 A 
HETATM   19  C21 UNL     1      18.414   2.868  51.609  1.00  0.00     0.037 A 
HETATM   20  C20 UNL     1      19.741   2.531  51.417  1.00  0.00     0.012 A 
BRANCH  18  21
HETATM   21  O1  UNL     1      16.149   2.423  51.677  1.00  0.00    -0.356 OA
HETATM   22  C1  UNL     1      15.931   3.778  52.048  1.00  0.00     0.210 C 
ENDBRANCH  18  21
ENDBRANCH   1  15
BRANCH   3  23
HETATM   23  C9  UNL     1      24.379   3.073  50.114  1.00  0.00    -0.010 A 
HETATM   24  C10 UNL     1      24.039   4.261  49.499  1.00  0.00     0.014 A 
HETATM   25  C11 UNL     1      25.019   5.107  49.007  1.00  0.00     0.007 A 
HETATM   26  C12 UNL     1      26.361   4.787  49.119  1.00  0.00    -0.062 A 
HETATM   27  C13 UNL     1      27.426   5.662  48.608  1.00  0.00     0.048 C 
HETATM   28  C14 UNL     1      26.727   3.604  49.730  1.00  0.00     0.007 A 
HETATM   29  C15 UNL     1      25.725   2.783  50.209  1.00  0.00     0.014 A 
ENDBRANCH   3  23
TORSDOF 6
ENDMDL
MODEL 4
REMARK VINA RESULT:      -8.5      3.303      5.595
REMARK  6 active torsions:
REMARK  status: ('A' for Active; 'I' for Inactive)
REMARK    1  A    between atoms: O1_2  and  C2_3 
REMARK    2  A    between atoms: C5_6  and  C6_7 
REMARK    3  A    between atoms: C8_9  and  C9_10 
REMARK    4  A    between atoms: N2_18  and  C16_19 
REMARK    5  A    between atoms: C18_22  and  O2_23 
REMARK    6  A    between atoms: C19_24  and  S1_25 
ROOT
HETATM    1  C6  UNL     1      22.876   1.035  51.486  1.00  0.00     0.149 A 
HETATM    2  C7  UNL     1      21.838  -0.045  51.565  1.00  0.00     0.094 A 
HETATM    3  C8  UNL     1      20.609   0.673  51.919  1.00  0.00     0.067 A 
HETATM    4  N1  UNL     1      20.823   1.912  52.107  1.00  0.00    -0.175 NA
HETATM    5  N2  UNL     1      22.192   2.217  51.916  1.00  0.00    -0.256 N 
ENDROOT
BRANCH   5   6
HETATM    6  C16 UNL     1      22.690   3.530  52.147  1.00  0.00     0.105 A 
HETATM    7  C17 UNL     1      23.535   4.059  53.016  1.00  0.00     0.120 A 
HETATM    8  N3  UNL     1      23.751   5.299  52.825  1.00  0.00    -0.219 NA
HETATM    9  C18 UNL     1      22.907   5.715  51.733  1.00  0.00     0.182 A 
HETATM   10  C19 UNL     1      22.248   4.645  51.302  1.00  0.00     0.081 A 
BRANCH   9  11
HETATM   11  O2  UNL     1      22.786   7.010  51.201  1.00  0.00    -0.344 OA
HETATM   12  H16 UNL     1      23.233   7.289  50.332  1.00  0.00     0.219 HD
ENDBRANCH   9  11
BRANCH  10  13
HETATM   13  S1  UNL     1      21.082   4.656  49.964  1.00  0.00    -0.136 SA
HETATM   14  H17 UNL     1      21.058   5.944  49.362  1.00  0.00     0.107 HD
ENDBRANCH  10  13
ENDBRANCH   5   6
BRANCH   1  15
HETATM   15  C5  UNL     1      24.016   0.640  52.353  1.00  0.00    -0.033 A 
HETATM   16  C4  UNL     1      23.729  -0.102  53.479  1.00  0.00     0.012 A 
HETATM   17  C3  UNL     1      24.744  -0.500  54.323  1.00  0.00     0.037 A 
HETATM   18  C2  UNL     1      26.063  -0.161  54.051  1.00  0.00     0.068 A 
HETATM   19  C21 UNL     1      26.348   0.580  52.925  1.00  0.00     0.037 A 
HETATM   20  C20 UNL     1      25.338   0.984  52.072  1.00  0.00     0.012 A 
BRANCH  18  21
HETATM   21  O1  UNL     1      27.182  -0.484  54.797  1.00  0.00    -0.356 OA
HETATM   22  C1  UNL     1      28.363   0.306  54.754  1.00  0.00     0.210 C 
ENDBRANCH  18  21
ENDBRANCH   1  15
BRANCH   3  23
HETATM   23  C9  UNL     1      19.289   0.050  52.043  1.00  0.00    -0.010 A 
HETATM   24  C10 UNL     1      18.962  -0.733  53.132  1.00  0.00     0.014 A 
HETATM   25  C11 UNL     1      17.709  -1.315  53.232  1.00  0.00     0.007 A 
HETATM   26  C12 UNL     1      16.754  -1.128  52.249  1.00  0.00    -0.062 A 
HETATM   27  C13 UNL     1      15.415  -1.731  52.325  1.00  0.00     0.048 C 
HETATM   28  C14 UNL     1      17.056  -0.349  51.149  1.00  0.00     0.007 A 
HETATM   29  C15 UNL     1      18.314   0.216  51.080  1.00  0.00     0.014 A 
ENDBRANCH   3  23
TORSDOF 6
ENDMDL
MODEL 5
REMARK VINA RESULT:      -8.3      3.472      5.919
REMARK  6 active torsions:
REMARK  status: ('A' for Active; 'I' for Inactive)
REMARK    1  A    between atoms: O1_2  and  C2_3 
REMARK    2  A    between atoms: C5_6  and  C6_7 
REMARK    3  A    between atoms: C8_9  and  C9_10 
REMARK    4  A    between atoms: N2_18  and  C16_19 
REMARK    5  A    between atoms: C18_22  and  O2_23 
REMARK    6  A    between atoms: C19_24  and  S1_25 
ROOT
HETATM    1  C6  UNL     1      23.692   2.124  50.789  1.00  0.00     0.149 A 
HETATM    2  C7  UNL     1      22.850   0.946  51.179  1.00  0.00     0.094 A 
HETATM    3  C8  UNL     1      21.517   1.519  51.388  1.00  0.00     0.067 A 
HETATM    4  N1  UNL     1      21.519   2.783  51.248  1.00  0.00    -0.175 NA
HETATM    5  N2  UNL     1      22.819   3.249  50.932  1.00  0.00    -0.256 N 
ENDROOT
BRANCH   5   6
HETATM    6  C16 UNL     1      23.088   4.640  50.803  1.00  0.00     0.105 A 
HETATM    7  C17 UNL     1      23.449   5.594  51.646  1.00  0.00     0.120 A 
HETATM    8  N3  UNL     1      23.647   6.719  51.084  1.00  0.00    -0.219 NA
HETATM    9  C18 UNL     1      23.323   6.562  49.688  1.00  0.00     0.182 A 
HETATM   10  C19 UNL     1      22.977   5.293  49.495  1.00  0.00     0.081 A 
BRANCH   9  11
HETATM   11  O2  UNL     1      23.358   7.553  48.693  1.00  0.00    -0.344 OA
HETATM   12  H16 UNL     1      22.940   8.471  48.820  1.00  0.00     0.219 HD
ENDBRANCH   9  11
BRANCH  10  13
HETATM   13  S1  UNL     1      22.492   4.614  47.929  1.00  0.00    -0.136 SA
HETATM   14  H17 UNL     1      22.104   5.664  47.052  1.00  0.00     0.107 HD
ENDBRANCH  10  13
ENDBRANCH   5   6
BRANCH   1  15
HETATM   15  C5  UNL     1      24.880   2.155  51.681  1.00  0.00    -0.033 A 
HETATM   16  C4  UNL     1      24.651   2.135  53.041  1.00  0.00     0.012 A 
HETATM   17  C3  UNL     1      25.712   2.162  53.922  1.00  0.00     0.037 A 
HETATM   18  C2  UNL     1      27.018   2.210  53.453  1.00  0.00     0.068 A 
HETATM   19  C21 UNL     1      27.245   2.229  52.094  1.00  0.00     0.037 A 
HETATM   20  C20 UNL     1      26.189   2.202  51.203  1.00  0.00     0.012 A 
BRANCH  18  21
HETATM   21  O1  UNL     1      28.178   2.240  54.206  1.00  0.00    -0.356 OA
HETATM   22  C1  UNL     1      29.095   1.154  54.212  1.00  0.00     0.210 C 
ENDBRANCH  18  21
ENDBRANCH   1  15
BRANCH   3  23
HETATM   23  C9  UNL     1      20.320   0.742  51.718  1.00  0.00    -0.010 A 
HETATM   24  C10 UNL     1      19.237   0.693  50.864  1.00  0.00     0.014 A 
HETATM   25  C11 UNL     1      18.113  -0.046  51.192  1.00  0.00     0.007 A 
HETATM   26  C12 UNL     1      18.044  -0.754  52.379  1.00  0.00    -0.062 A 
HETATM   27  C13 UNL     1      16.866  -1.548  52.758  1.00  0.00     0.048 C 
HETATM   28  C14 UNL     1      19.114  -0.720  53.251  1.00  0.00     0.007 A 
HETATM   29  C15 UNL     1      20.220   0.027  52.893  1.00  0.00     0.014 A 
ENDBRANCH   3  23
TORSDOF 6
ENDMDL
MODEL 6
REMARK VINA RESULT:      -8.3      3.548      5.526
REMARK  6 active torsions:
REMARK  status: ('A' for Active; 'I' for Inactive)
REMARK    1  A    between atoms: O1_2  and  C2_3 
REMARK    2  A    between atoms: C5_6  and  C6_7 
REMARK    3  A    between atoms: C8_9  and  C9_10 
REMARK    4  A    between atoms: N2_18  and  C16_19 
REMARK    5  A    between atoms: C18_22  and  O2_23 
REMARK    6  A    between atoms: C19_24  and  S1_25 
ROOT
HETATM    1  C6  UNL     1      22.940   3.970  51.669  1.00  0.00     0.149 A 
HETATM    2  C7  UNL     1      24.405   4.221  51.460  1.00  0.00     0.094 A 
HETATM    3  C8  UNL     1      24.480   4.746  50.093  1.00  0.00     0.067 A 
HETATM    4  N1  UNL     1      23.343   4.752  49.525  1.00  0.00    -0.175 NA
HETATM    5  N2  UNL     1      22.347   4.246  50.396  1.00  0.00    -0.256 N 
ENDROOT
BRANCH   5   6
HETATM    6  C16 UNL     1      21.003   4.083  49.957  1.00  0.00     0.105 A 
HETATM    7  C17 UNL     1      19.886   4.773  50.120  1.00  0.00     0.120 A 
HETATM    8  N3  UNL     1      18.894   4.290  49.487  1.00  0.00    -0.219 NA
HETATM    9  C18 UNL     1      19.342   3.075  48.854  1.00  0.00     0.182 A 
HETATM   10  C19 UNL     1      20.634   2.929  49.131  1.00  0.00     0.081 A 
BRANCH   9  11
HETATM   11  O2  UNL     1      18.574   2.188  48.081  1.00  0.00    -0.344 OA
HETATM   12  H16 UNL     1      17.722   1.756  48.428  1.00  0.00     0.219 HD
ENDBRANCH   9  11
BRANCH  10  13
HETATM   13  S1  UNL     1      21.633   1.575  48.568  1.00  0.00    -0.136 SA
HETATM   14  H17 UNL     1      23.010   1.908  48.704  1.00  0.00     0.107 HD
ENDBRANCH  10  13
ENDBRANCH   5   6
BRANCH   1  15
HETATM   15  C5  UNL     1      22.776   2.568  52.129  1.00  0.00    -0.033 A 
HETATM   16  C4  UNL     1      23.906   1.777  52.171  1.00  0.00     0.012 A 
HETATM   17  C3  UNL     1      23.818   0.466  52.589  1.00  0.00     0.037 A 
HETATM   18  C2  UNL     1      22.597  -0.073  52.973  1.00  0.00     0.068 A 
HETATM   19  C21 UNL     1      21.470   0.718  52.932  1.00  0.00     0.037 A 
HETATM   20  C20 UNL     1      21.546   2.033  52.514  1.00  0.00     0.012 A 
BRANCH  18  21
HETATM   21  O1  UNL     1      22.351  -1.361  53.413  1.00  0.00    -0.356 OA
HETATM   22  C1  UNL     1      21.558  -1.619  54.564  1.00  0.00     0.210 C 
ENDBRANCH  18  21
ENDBRANCH   1  15
BRANCH   3  23
HETATM   23  C9  UNL     1      25.710   5.211  49.448  1.00  0.00    -0.010 A 
HETATM   24  C10 UNL     1      26.761   4.351  49.197  1.00  0.00     0.014 A 
HETATM   25  C11 UNL     1      27.917   4.808  48.587  1.00  0.00     0.007 A 
HETATM   26  C12 UNL     1      28.052   6.133  48.212  1.00  0.00    -0.062 A 
HETATM   27  C13 UNL     1      29.265   6.651  47.562  1.00  0.00     0.048 C 
HETATM   28  C14 UNL     1      27.015   7.014  48.452  1.00  0.00     0.007 A 
HETATM   29  C15 UNL     1      25.876   6.525  49.062  1.00  0.00     0.014 A 
ENDBRANCH   3  23
TORSDOF 6
ENDMDL
MODEL 7
REMARK VINA RESULT:      -8.3      4.219      7.635
REMARK  6 active torsions:
REMARK  status: ('A' for Active; 'I' for Inactive)
REMARK    1  A    between atoms: O1_2  and  C2_3 
REMARK    2  A    between atoms: C5_6  and  C6_7 
REMARK    3  A    between atoms: C8_9  and  C9_10 
REMARK    4  A    between atoms: N2_18  and  C16_19 
REMARK    5  A    between atoms: C18_22  and  O2_23 
REMARK    6  A    between atoms: C19_24  and  S1_25 
ROOT
HETATM    1  C6  UNL     1      25.098   3.831  49.363  1.00  0.00     0.149 A 
HETATM    2  C7  UNL     1      26.303   3.029  49.759  1.00  0.00     0.094 A 
HETATM    3  C8  UNL     1      26.006   2.602  51.130  1.00  0.00     0.067 A 
HETATM    4  N1  UNL     1      24.907   3.085  51.548  1.00  0.00    -0.175 NA
HETATM    5  N2  UNL     1      24.305   3.894  50.553  1.00  0.00    -0.256 N 
ENDROOT
BRANCH   5   6
HETATM    6  C16 UNL     1      23.103   4.607  50.816  1.00  0.00     0.105 A 
HETATM    7  C17 UNL     1      22.813   5.728  51.457  1.00  0.00     0.120 A 
HETATM    8  N3  UNL     1      21.581   6.043  51.398  1.00  0.00    -0.219 NA
HETATM    9  C18 UNL     1      20.904   4.986  50.688  1.00  0.00     0.182 A 
HETATM   10  C19 UNL     1      21.820   4.095  50.323  1.00  0.00     0.081 A 
BRANCH   9  11
HETATM   11  O2  UNL     1      19.529   4.892  50.419  1.00  0.00    -0.344 OA
HETATM   12  H16 UNL     1      18.837   5.462  50.897  1.00  0.00     0.219 HD
ENDBRANCH   9  11
BRANCH  10  13
HETATM   13  S1  UNL     1      21.468   2.608  49.419  1.00  0.00    -0.136 SA
HETATM   14  H17 UNL     1      22.634   2.186  48.722  1.00  0.00     0.107 HD
ENDBRANCH  10  13
ENDBRANCH   5   6
BRANCH   1  15
HETATM   15  C5  UNL     1      25.568   5.152  48.872  1.00  0.00    -0.033 A 
HETATM   16  C4  UNL     1      26.929   5.372  48.845  1.00  0.00     0.012 A 
HETATM   17  C3  UNL     1      27.427   6.578  48.400  1.00  0.00     0.037 A 
HETATM   18  C2  UNL     1      26.569   7.583  47.973  1.00  0.00     0.068 A 
HETATM   19  C21 UNL     1      25.209   7.362  47.999  1.00  0.00     0.037 A 
HETATM   20  C20 UNL     1      24.699   6.157  48.444  1.00  0.00     0.012 A 
BRANCH  18  21
HETATM   21  O1  UNL     1      26.915   8.836  47.502  1.00  0.00    -0.356 OA
HETATM   22  C1  UNL     1      27.451   9.835  48.360  1.00  0.00     0.210 C 
ENDBRANCH  18  21
ENDBRANCH   1  15
BRANCH   3  23
HETATM   23  C9  UNL     1      26.862   1.724  51.930  1.00  0.00    -0.010 A 
HETATM   24  C10 UNL     1      26.687   0.354  51.932  1.00  0.00     0.014 A 
HETATM   25  C11 UNL     1      27.506  -0.461  52.696  1.00  0.00     0.007 A 
HETATM   26  C12 UNL     1      28.518   0.071  53.475  1.00  0.00    -0.062 A 
HETATM   27  C13 UNL     1      29.404  -0.765  54.297  1.00  0.00     0.048 C 
HETATM   28  C14 UNL     1      28.713   1.439  53.491  1.00  0.00     0.007 A 
HETATM   29  C15 UNL     1      27.880   2.223  52.718  1.00  0.00     0.014 A 
ENDBRANCH   3  23
TORSDOF 6
ENDMDL
MODEL 8
REMARK VINA RESULT:      -8.1      4.122      7.230
REMARK  6 active torsions:
REMARK  status: ('A' for Active; 'I' for Inactive)
REMARK    1  A    between atoms: O1_2  and  C2_3 
REMARK    2  A    between atoms: C5_6  and  C6_7 
REMARK    3  A    between atoms: C8_9  and  C9_10 
REMARK    4  A    between atoms: N2_18  and  C16_19 
REMARK    5  A    between atoms: C18_22  and  O2_23 
REMARK    6  A    between atoms: C19_24  and  S1_25 
ROOT
HETATM    1  C6  UNL     1      23.036   3.835  49.477  1.00  0.00     0.149 A 
HETATM    2  C7  UNL     1      23.393   2.551  50.166  1.00  0.00     0.094 A 
HETATM    3  C8  UNL     1      22.584   2.571  51.389  1.00  0.00     0.067 A 
HETATM    4  N1  UNL     1      21.924   3.652  51.502  1.00  0.00    -0.175 NA
HETATM    5  N2  UNL     1      22.178   4.510  50.404  1.00  0.00    -0.256 N 
ENDROOT
BRANCH   5   6
HETATM    6  C16 UNL     1      21.612   5.814  50.345  1.00  0.00     0.105 A 
HETATM    7  C17 UNL     1      21.956   6.994  50.835  1.00  0.00     0.120 A 
HETATM    8  N3  UNL     1      21.178   7.937  50.480  1.00  0.00    -0.219 NA
HETATM    9  C18 UNL     1      20.117   7.345  49.703  1.00  0.00     0.182 A 
HETATM   10  C19 UNL     1      20.365   6.043  49.608  1.00  0.00     0.081 A 
BRANCH   9  11
HETATM   11  O2  UNL     1      19.012   8.003  49.137  1.00  0.00    -0.344 OA
HETATM   12  H16 UNL     1      18.814   8.985  49.308  1.00  0.00     0.219 HD
ENDBRANCH   9  11
BRANCH  10  13
HETATM   13  S1  UNL     1      19.335   4.886  48.741  1.00  0.00    -0.136 SA
HETATM   14  H17 UNL     1      19.595   3.569  49.211  1.00  0.00     0.107 HD
ENDBRANCH  10  13
ENDBRANCH   5   6
BRANCH   1  15
HETATM   15  C5  UNL     1      24.297   4.559  49.173  1.00  0.00    -0.033 A 
HETATM   16  C4  UNL     1      25.482   3.927  49.487  1.00  0.00     0.012 A 
HETATM   17  C3  UNL     1      26.686   4.547  49.229  1.00  0.00     0.037 A 
HETATM   18  C2  UNL     1      26.721   5.811  48.652  1.00  0.00     0.068 A 
HETATM   19  C21 UNL     1      25.536   6.440  48.339  1.00  0.00     0.037 A 
HETATM   20  C20 UNL     1      24.324   5.827  48.593  1.00  0.00     0.012 A 
BRANCH  18  21
HETATM   21  O1  UNL     1      27.843   6.556  48.335  1.00  0.00    -0.356 OA
HETATM   22  C1  UNL     1      29.132   5.964  48.243  1.00  0.00     0.210 C 
ENDBRANCH  18  21
ENDBRANCH   1  15
BRANCH   3  23
HETATM   23  C9  UNL     1      22.531   1.484  52.369  1.00  0.00    -0.010 A 
HETATM   24  C10 UNL     1      21.358   1.156  53.018  1.00  0.00     0.014 A 
HETATM   25  C11 UNL     1      21.327   0.125  53.942  1.00  0.00     0.007 A 
HETATM   26  C12 UNL     1      22.465  -0.602  54.240  1.00  0.00    -0.062 A 
HETATM   27  C13 UNL     1      22.467  -1.702  55.216  1.00  0.00     0.048 C 
HETATM   28  C14 UNL     1      23.652  -0.294  53.605  1.00  0.00     0.007 A 
HETATM   29  C15 UNL     1      23.649   0.740  52.689  1.00  0.00     0.014 A 
ENDBRANCH   3  23
TORSDOF 6
ENDMDL
MODEL 9
REMARK VINA RESULT:      -8.0      4.091      8.336
REMARK  6 active torsions:
REMARK  status: ('A' for Active; 'I' for Inactive)
REMARK    1  A    between atoms: O1_2  and  C2_3 
REMARK    2  A    between atoms: C5_6  and  C6_7 
REMARK    3  A    between atoms: C8_9  and  C9_10 
REMARK    4  A    between atoms: N2_18  and  C16_19 
REMARK    5  A    between atoms: C18_22  and  O2_23 
REMARK    6  A    between atoms: C19_24  and  S1_25 
ROOT
HETATM    1  C6  UNL     1      21.481   4.135  50.298  1.00  0.00     0.149 A 
HETATM    2  C7  UNL     1      21.151   2.791  50.878  1.00  0.00     0.094 A 
HETATM    3  C8  UNL     1      22.197   2.576  51.883  1.00  0.00     0.067 A 
HETATM    4  N1  UNL     1      23.048   3.520  51.890  1.00  0.00    -0.175 NA
HETATM    5  N2  UNL     1      22.720   4.495  50.916  1.00  0.00    -0.256 N 
ENDROOT
BRANCH   5   6
HETATM    6  C16 UNL     1      23.571   5.612  50.682  1.00  0.00     0.105 A 
HETATM    7  C17 UNL     1      23.429   6.922  50.796  1.00  0.00     0.120 A 
HETATM    8  N3  UNL     1      24.491   7.573  50.534  1.00  0.00    -0.219 NA
HETATM    9  C18 UNL     1      25.486   6.615  50.118  1.00  0.00     0.182 A 
HETATM   10  C19 UNL     1      24.941   5.406  50.202  1.00  0.00     0.081 A 
BRANCH   9  11
HETATM   11  O2  UNL     1      26.798   6.885  49.697  1.00  0.00    -0.344 OA
HETATM   12  H16 UNL     1      27.554   6.212  49.792  1.00  0.00     0.219 HD
ENDBRANCH   9  11
BRANCH  10  13
HETATM   13  S1  UNL     1      25.781   3.897  49.793  1.00  0.00    -0.136 SA
HETATM   14  H17 UNL     1      26.865   3.695  50.691  1.00  0.00     0.107 HD
ENDBRANCH  10  13
ENDBRANCH   5   6
BRANCH   1  15
HETATM   15  C5  UNL     1      21.554   3.992  48.821  1.00  0.00    -0.033 A 
HETATM   16  C4  UNL     1      20.846   4.899  48.060  1.00  0.00     0.012 A 
HETATM   17  C3  UNL     1      20.874   4.818  46.684  1.00  0.00     0.037 A 
HETATM   18  C2  UNL     1      21.612   3.827  46.049  1.00  0.00     0.068 A 
HETATM   19  C21 UNL     1      22.319   2.923  46.810  1.00  0.00     0.037 A 
HETATM   20  C20 UNL     1      22.298   2.994  48.190  1.00  0.00     0.012 A 
BRANCH  18  21
HETATM   21  O1  UNL     1      21.738   3.620  44.687  1.00  0.00    -0.356 OA
HETATM   22  C1  UNL     1      20.720   4.009  43.774  1.00  0.00     0.210 C 
ENDBRANCH  18  21
ENDBRANCH   1  15
BRANCH   3  23
HETATM   23  C9  UNL     1      22.263   1.419  52.778  1.00  0.00    -0.010 A 
HETATM   24  C10 UNL     1      21.161   1.001  53.498  1.00  0.00     0.014 A 
HETATM   25  C11 UNL     1      21.243  -0.095  54.340  1.00  0.00     0.007 A 
HETATM   26  C12 UNL     1      22.424  -0.800  54.484  1.00  0.00    -0.062 A 
HETATM   27  C13 UNL     1      22.545  -1.968  55.369  1.00  0.00     0.048 C 
HETATM   28  C14 UNL     1      23.541  -0.403  53.775  1.00  0.00     0.007 A 
HETATM   29  C15 UNL     1      23.426   0.694  52.944  1.00  0.00     0.014 A 
ENDBRANCH   3  23
TORSDOF 6
ENDMDL
