MODEL 1
REMARK VINA RESULT:      -8.7      0.000      0.000
REMARK  4 active torsions:
REMARK  status: ('A' for Active; 'I' for Inactive)
REMARK    1  A    between atoms: C2_2  and  N1_3 
REMARK    2  A    between atoms: C2_2  and  C14_20 
REMARK       I    between atoms: N1_3  and  C3_4 
REMARK    3  A    between atoms: C3_4  and  C4_6 
REMARK    4  A    between atoms: C7_11  and  C8_12 
ROOT
HETATM    1  C4  UNL     1      22.756   1.848  52.038  1.00  0.00     0.036 C 
HETATM    2  C5  UNL     1      21.943   0.807  51.807  1.00  0.00     0.009 C 
HETATM    3  C6  UNL     1      22.247  -0.256  52.763  1.00  0.00     0.174 C 
HETATM    4  N2  UNL     1      23.662  -0.074  53.030  1.00  0.00    -0.288 N 
HETATM    5  N3  UNL     1      24.828  -0.810  53.160  1.00  0.00    -0.175 NA
HETATM    6  C7  UNL     1      25.882  -0.043  53.156  1.00  0.00     0.090 C 
HETATM    7  P1  UNL     1      25.389   1.720  52.978  1.00  0.00    -0.041 P 
HETATM    8  C13 UNL     1      23.563   1.391  53.161  1.00  0.00     0.174 C 
HETATM    9  H13 UNL     1      25.656   2.114  51.586  1.00  0.00     0.066 HD
ENDROOT
BRANCH   1  10
HETATM   10  C3  UNL     1      22.770   3.109  51.297  1.00  0.00     0.250 C 
HETATM   11  N1  UNL     1      23.447   3.323  50.076  1.00  0.00    -0.349 N 
HETATM   12  H5  UNL     1      23.979   2.524  49.667  1.00  0.00     0.163 HD
HETATM   13  O1  UNL     1      22.142   4.097  51.754  1.00  0.00    -0.268 OA
BRANCH  11  14
HETATM   14  C2  UNL     1      23.411   4.618  49.398  1.00  0.00     0.114 C 
HETATM   15  C1  UNL     1      22.651   4.543  48.096  1.00  0.00     0.037 C 
BRANCH  14  16
HETATM   16  C14 UNL     1      24.833   4.984  49.102  1.00  0.00    -0.034 A 
HETATM   17  C15 UNL     1      25.872   4.094  49.309  1.00  0.00     0.009 A 
HETATM   18  C16 UNL     1      27.174   4.423  49.040  1.00  0.00     0.002 A 
HETATM   19  C17 UNL     1      27.493   5.659  48.551  1.00  0.00     0.024 A 
HETATM   20  C18 UNL     1      26.481   6.585  48.327  1.00  0.00     0.034 A 
HETATM   21 CL1  UNL     1      26.881   8.180  47.697  1.00  0.00    -0.084 Cl
HETATM   22  C19 UNL     1      25.182   6.204  48.615  1.00  0.00     0.033 A 
ENDBRANCH  14  16
ENDBRANCH  11  14
ENDBRANCH   1  10
BRANCH   6  23
HETATM   23  C8  UNL     1      27.266  -0.544  53.279  1.00  0.00    -0.003 A 
HETATM   24  C9  UNL     1      28.212   0.365  53.724  1.00  0.00     0.033 A 
HETATM   25  C10 UNL     1      29.533  -0.078  53.851  1.00  0.00     0.117 A 
HETATM   26  N4  UNL     1      29.827  -1.357  53.540  1.00  0.00    -0.273 NA
HETATM   27  C11 UNL     1      28.878  -2.207  53.112  1.00  0.00     0.117 A 
HETATM   28  C12 UNL     1      27.539  -1.843  52.957  1.00  0.00     0.033 A 
ENDBRANCH   6  23
TORSDOF 4
ENDMDL
MODEL 2
REMARK VINA RESULT:      -8.6      2.868      7.094
REMARK  4 active torsions:
REMARK  status: ('A' for Active; 'I' for Inactive)
REMARK    1  A    between atoms: C2_2  and  N1_3 
REMARK    2  A    between atoms: C2_2  and  C14_20 
REMARK       I    between atoms: N1_3  and  C3_4 
REMARK    3  A    between atoms: C3_4  and  C4_6 
REMARK    4  A    between atoms: C7_11  and  C8_12 
ROOT
HETATM    1  C4  UNL     1      23.537   3.025  51.687  1.00  0.00     0.036 C 
HETATM    2  C5  UNL     1      23.026   3.947  52.516  1.00  0.00     0.009 C 
HETATM    3  C6  UNL     1      22.819   5.190  51.775  1.00  0.00     0.174 C 
HETATM    4  N2  UNL     1      23.859   5.156  50.764  1.00  0.00    -0.288 N 
HETATM    5  N3  UNL     1      24.806   5.980  50.177  1.00  0.00    -0.175 NA
HETATM    6  C7  UNL     1      25.659   5.298  49.466  1.00  0.00     0.090 C 
HETATM    7  P1  UNL     1      25.256   3.505  49.531  1.00  0.00    -0.041 P 
HETATM    8  C13 UNL     1      23.636   3.740  50.422  1.00  0.00     0.174 C 
HETATM    9  H13 UNL     1      26.211   2.872  50.455  1.00  0.00     0.066 HD
ENDROOT
BRANCH   1  10
HETATM   10  C3  UNL     1      23.887   1.650  52.041  1.00  0.00     0.250 C 
HETATM   11  N1  UNL     1      25.051   1.266  52.744  1.00  0.00    -0.349 N 
HETATM   12  H5  UNL     1      25.715   2.018  53.035  1.00  0.00     0.163 HD
HETATM   13  O1  UNL     1      23.116   0.715  51.710  1.00  0.00    -0.268 OA
BRANCH  11  14
HETATM   14  C2  UNL     1      25.328  -0.134  53.059  1.00  0.00     0.114 C 
HETATM   15  C1  UNL     1      24.612  -0.574  54.312  1.00  0.00     0.037 C 
BRANCH  14  16
HETATM   16  C14 UNL     1      26.804  -0.235  53.291  1.00  0.00    -0.034 A 
HETATM   17  C15 UNL     1      27.513  -1.385  52.990  1.00  0.00     0.009 A 
HETATM   18  C16 UNL     1      28.862  -1.484  53.199  1.00  0.00     0.002 A 
HETATM   19  C17 UNL     1      29.563  -0.432  53.719  1.00  0.00     0.024 A 
HETATM   20  C18 UNL     1      28.894   0.744  54.036  1.00  0.00     0.034 A 
HETATM   21 CL1  UNL     1      29.789   2.104  54.707  1.00  0.00    -0.084 Cl
HETATM   22  C19 UNL     1      27.530   0.792  53.806  1.00  0.00     0.033 A 
ENDBRANCH  14  16
ENDBRANCH  11  14
ENDBRANCH   1  10
BRANCH   6  23
HETATM   23  C8  UNL     1      26.782   5.904  48.723  1.00  0.00    -0.003 A 
HETATM   24  C9  UNL     1      27.958   5.172  48.680  1.00  0.00     0.033 A 
HETATM   25  C10 UNL     1      29.042   5.719  47.984  1.00  0.00     0.117 A 
HETATM   26  N4  UNL     1      28.899   6.921  47.390  1.00  0.00    -0.273 NA
HETATM   27  C11 UNL     1      27.739   7.599  47.456  1.00  0.00     0.117 A 
HETATM   28  C12 UNL     1      26.613   7.124  48.131  1.00  0.00     0.033 A 
ENDBRANCH   6  23
TORSDOF 4
ENDMDL
MODEL 3
REMARK VINA RESULT:      -8.4      3.443      7.729
REMARK  4 active torsions:
REMARK  status: ('A' for Active; 'I' for Inactive)
REMARK    1  A    between atoms: C2_2  and  N1_3 
REMARK    2  A    between atoms: C2_2  and  C14_20 
REMARK       I    between atoms: N1_3  and  C3_4 
REMARK    3  A    between atoms: C3_4  and  C4_6 
REMARK    4  A    between atoms: C7_11  and  C8_12 
ROOT
HETATM    1  C4  UNL     1      23.851   3.617  50.788  1.00  0.00     0.036 C 
HETATM    2  C5  UNL     1      22.848   4.495  50.646  1.00  0.00     0.009 C 
HETATM    3  C6  UNL     1      22.944   5.116  49.326  1.00  0.00     0.174 C 
HETATM    4  N2  UNL     1      24.369   5.103  49.050  1.00  0.00    -0.288 N 
HETATM    5  N3  UNL     1      25.368   5.923  48.551  1.00  0.00    -0.175 NA
HETATM    6  C7  UNL     1      26.552   5.429  48.782  1.00  0.00     0.090 C 
HETATM    7  P1  UNL     1      26.414   3.831  49.683  1.00  0.00    -0.041 P 
HETATM    8  C13 UNL     1      24.561   3.719  49.520  1.00  0.00     0.174 C 
HETATM    9  H13 UNL     1      26.745   4.091  51.094  1.00  0.00     0.066 HD
ENDROOT
BRANCH   1  10
HETATM   10  C3  UNL     1      24.108   2.789  51.967  1.00  0.00     0.250 C 
HETATM   11  N1  UNL     1      24.230   1.382  51.957  1.00  0.00    -0.349 N 
HETATM   12  H5  UNL     1      24.131   0.890  51.041  1.00  0.00     0.163 HD
HETATM   13  O1  UNL     1      24.235   3.341  53.089  1.00  0.00    -0.268 OA
BRANCH  11  14
HETATM   14  C2  UNL     1      24.488   0.628  53.183  1.00  0.00     0.114 C 
HETATM   15  C1  UNL     1      25.563  -0.412  52.980  1.00  0.00     0.037 C 
BRANCH  14  16
HETATM   16  C14 UNL     1      23.209  -0.068  53.532  1.00  0.00    -0.034 A 
HETATM   17  C15 UNL     1      23.147  -1.024  54.530  1.00  0.00     0.009 A 
HETATM   18  C16 UNL     1      21.981  -1.663  54.854  1.00  0.00     0.002 A 
HETATM   19  C17 UNL     1      20.821  -1.372  54.192  1.00  0.00     0.024 A 
HETATM   20  C18 UNL     1      20.834  -0.417  53.182  1.00  0.00     0.034 A 
HETATM   21 CL1  UNL     1      19.346  -0.034  52.323  1.00  0.00    -0.084 Cl
HETATM   22  C19 UNL     1      22.039   0.200  52.893  1.00  0.00     0.033 A 
ENDBRANCH  14  16
ENDBRANCH  11  14
ENDBRANCH   1  10
BRANCH   6  23
HETATM   23  C8  UNL     1      27.811   6.080  48.368  1.00  0.00    -0.003 A 
HETATM   24  C9  UNL     1      28.923   5.260  48.265  1.00  0.00     0.033 A 
HETATM   25  C10 UNL     1      30.132   5.847  47.875  1.00  0.00     0.117 A 
HETATM   26  N4  UNL     1      30.164   7.171  47.619  1.00  0.00    -0.273 NA
HETATM   27  C11 UNL     1      29.061   7.931  47.730  1.00  0.00     0.117 A 
HETATM   28  C12 UNL     1      27.818   7.423  48.114  1.00  0.00     0.033 A 
ENDBRANCH   6  23
TORSDOF 4
ENDMDL
MODEL 4
REMARK VINA RESULT:      -8.0      1.648      2.054
REMARK  4 active torsions:
REMARK  status: ('A' for Active; 'I' for Inactive)
REMARK    1  A    between atoms: C2_2  and  N1_3 
REMARK    2  A    between atoms: C2_2  and  C14_20 
REMARK       I    between atoms: N1_3  and  C3_4 
REMARK    3  A    between atoms: C3_4  and  C4_6 
REMARK    4  A    between atoms: C7_11  and  C8_12 
ROOT
HETATM    1  C4  UNL     1      21.906   1.401  51.574  1.00  0.00     0.036 C 
HETATM    2  C5  UNL     1      21.550   0.108  51.561  1.00  0.00     0.009 C 
HETATM    3  C6  UNL     1      22.015  -0.525  52.794  1.00  0.00     0.174 C 
HETATM    4  N2  UNL     1      23.211   0.228  53.129  1.00  0.00    -0.288 N 
HETATM    5  N3  UNL     1      24.512   0.030  53.561  1.00  0.00    -0.175 NA
HETATM    6  C7  UNL     1      25.225   1.114  53.445  1.00  0.00     0.090 C 
HETATM    7  P1  UNL     1      24.206   2.478  52.750  1.00  0.00    -0.041 P 
HETATM    8  C13 UNL     1      22.599   1.539  52.847  1.00  0.00     0.174 C 
HETATM    9  H13 UNL     1      24.575   2.627  51.333  1.00  0.00     0.066 HD
ENDROOT
BRANCH   1  10
HETATM   10  C3  UNL     1      21.628   2.379  50.522  1.00  0.00     0.250 C 
HETATM   11  N1  UNL     1      22.577   2.863  49.595  1.00  0.00    -0.349 N 
HETATM   12  H5  UNL     1      23.553   2.496  49.660  1.00  0.00     0.163 HD
HETATM   13  O1  UNL     1      20.467   2.846  50.408  1.00  0.00    -0.268 OA
BRANCH  11  14
HETATM   14  C2  UNL     1      22.217   3.843  48.572  1.00  0.00     0.114 C 
HETATM   15  C1  UNL     1      22.068   3.201  47.214  1.00  0.00     0.037 C 
BRANCH  14  16
HETATM   16  C14 UNL     1      23.342   4.830  48.514  1.00  0.00    -0.034 A 
HETATM   17  C15 UNL     1      24.559   4.586  49.126  1.00  0.00     0.009 A 
HETATM   18  C16 UNL     1      25.590   5.485  49.076  1.00  0.00     0.002 A 
HETATM   19  C17 UNL     1      25.449   6.670  48.410  1.00  0.00     0.024 A 
HETATM   20  C18 UNL     1      24.245   6.958  47.779  1.00  0.00     0.034 A 
HETATM   21 CL1  UNL     1      24.053   8.481  46.917  1.00  0.00    -0.084 Cl
HETATM   22  C19 UNL     1      23.233   6.016  47.858  1.00  0.00     0.033 A 
ENDBRANCH  14  16
ENDBRANCH  11  14
ENDBRANCH   1  10
BRANCH   6  23
HETATM   23  C8  UNL     1      26.649   1.208  53.825  1.00  0.00    -0.003 A 
HETATM   24  C9  UNL     1      27.141   0.187  54.622  1.00  0.00     0.033 A 
HETATM   25  C10 UNL     1      28.487   0.247  55.001  1.00  0.00     0.117 A 
HETATM   26  N4  UNL     1      29.241   1.282  54.578  1.00  0.00    -0.273 NA
HETATM   27  C11 UNL     1      28.723   2.252  53.803  1.00  0.00     0.117 A 
HETATM   28  C12 UNL     1      27.392   2.266  53.384  1.00  0.00     0.033 A 
ENDBRANCH   6  23
TORSDOF 4
ENDMDL
MODEL 5
REMARK VINA RESULT:      -8.0      2.786      5.455
REMARK  4 active torsions:
REMARK  status: ('A' for Active; 'I' for Inactive)
REMARK    1  A    between atoms: C2_2  and  N1_3 
REMARK    2  A    between atoms: C2_2  and  C14_20 
REMARK       I    between atoms: N1_3  and  C3_4 
REMARK    3  A    between atoms: C3_4  and  C4_6 
REMARK    4  A    between atoms: C7_11  and  C8_12 
ROOT
HETATM    1  C4  UNL     1      24.065   2.594  51.921  1.00  0.00     0.036 C 
HETATM    2  C5  UNL     1      24.651   2.250  53.077  1.00  0.00     0.009 C 
HETATM    3  C6  UNL     1      24.364   0.844  53.355  1.00  0.00     0.174 C 
HETATM    4  N2  UNL     1      23.066   0.636  52.739  1.00  0.00    -0.288 N 
HETATM    5  N3  UNL     1      21.844   0.039  52.998  1.00  0.00    -0.175 NA
HETATM    6  C7  UNL     1      20.939   0.407  52.135  1.00  0.00     0.090 C 
HETATM    7  P1  UNL     1      21.658   1.579  50.914  1.00  0.00    -0.041 P 
HETATM    8  C13 UNL     1      23.413   1.361  51.503  1.00  0.00     0.174 C 
HETATM    9  H13 UNL     1      21.207   2.931  51.282  1.00  0.00     0.066 HD
ENDROOT
BRANCH   1  10
HETATM   10  C3  UNL     1      24.112   3.915  51.294  1.00  0.00     0.250 C 
HETATM   11  N1  UNL     1      24.427   4.156  49.938  1.00  0.00    -0.349 N 
HETATM   12  H5  UNL     1      24.643   3.332  49.334  1.00  0.00     0.163 HD
HETATM   13  O1  UNL     1      23.859   4.933  51.985  1.00  0.00    -0.268 OA
BRANCH  11  14
HETATM   14  C2  UNL     1      24.453   5.510  49.387  1.00  0.00     0.114 C 
HETATM   15  C1  UNL     1      23.534   5.644  48.199  1.00  0.00     0.037 C 
BRANCH  14  16
HETATM   16  C14 UNL     1      25.859   5.760  48.936  1.00  0.00    -0.034 A 
HETATM   17  C15 UNL     1      26.812   4.757  48.930  1.00  0.00     0.009 A 
HETATM   18  C16 UNL     1      28.099   4.978  48.519  1.00  0.00     0.002 A 
HETATM   19  C17 UNL     1      28.489   6.218  48.094  1.00  0.00     0.024 A 
HETATM   20  C18 UNL     1      27.566   7.256  48.082  1.00  0.00     0.034 A 
HETATM   21 CL1  UNL     1      28.058   8.856  47.536  1.00  0.00    -0.084 Cl
HETATM   22  C19 UNL     1      26.278   6.980  48.507  1.00  0.00     0.033 A 
ENDBRANCH  14  16
ENDBRANCH  11  14
ENDBRANCH   1  10
BRANCH   6  23
HETATM   23  C8  UNL     1      19.540  -0.065  52.158  1.00  0.00    -0.003 A 
HETATM   24  C9  UNL     1      19.166  -0.829  53.252  1.00  0.00     0.033 A 
HETATM   25  C10 UNL     1      17.846  -1.292  53.303  1.00  0.00     0.117 A 
HETATM   26  N4  UNL     1      17.003  -0.980  52.298  1.00  0.00    -0.273 NA
HETATM   27  C11 UNL     1      17.407  -0.234  51.254  1.00  0.00     0.117 A 
HETATM   28  C12 UNL     1      18.705   0.265  51.128  1.00  0.00     0.033 A 
ENDBRANCH   6  23
TORSDOF 4
ENDMDL
MODEL 6
REMARK VINA RESULT:      -7.8      5.512      8.270
REMARK  4 active torsions:
REMARK  status: ('A' for Active; 'I' for Inactive)
REMARK    1  A    between atoms: C2_2  and  N1_3 
REMARK    2  A    between atoms: C2_2  and  C14_20 
REMARK       I    between atoms: N1_3  and  C3_4 
REMARK    3  A    between atoms: C3_4  and  C4_6 
REMARK    4  A    between atoms: C7_11  and  C8_12 
ROOT
HETATM    1  C4  UNL     1      28.706   8.641  48.782  1.00  0.00     0.036 C 
HETATM    2  C5  UNL     1      29.190   9.540  49.651  1.00  0.00     0.009 C 
HETATM    3  C6  UNL     1      30.590   9.807  49.328  1.00  0.00     0.174 C 
HETATM    4  N2  UNL     1      31.049   8.554  48.756  1.00  0.00    -0.288 N 
HETATM    5  N3  UNL     1      32.128   7.687  48.808  1.00  0.00    -0.175 NA
HETATM    6  C7  UNL     1      31.856   6.550  48.232  1.00  0.00     0.090 C 
HETATM    7  P1  UNL     1      30.138   6.558  47.579  1.00  0.00    -0.041 P 
HETATM    8  C13 UNL     1      29.849   8.367  47.921  1.00  0.00     0.174 C 
HETATM    9  H13 UNL     1      29.310   5.769  48.505  1.00  0.00     0.066 HD
ENDROOT
BRANCH   1  10
HETATM   10  C3  UNL     1      27.344   8.108  48.766  1.00  0.00     0.250 C 
HETATM   11  N1  UNL     1      26.760   7.345  49.801  1.00  0.00    -0.349 N 
HETATM   12  H5  UNL     1      27.341   7.143  50.645  1.00  0.00     0.163 HD
HETATM   13  O1  UNL     1      26.610   8.328  47.769  1.00  0.00    -0.268 OA
BRANCH  11  14
HETATM   14  C2  UNL     1      25.388   6.848  49.706  1.00  0.00     0.114 C 
HETATM   15  C1  UNL     1      24.489   7.501  50.727  1.00  0.00     0.037 C 
BRANCH  14  16
HETATM   16  C14 UNL     1      25.446   5.379  49.988  1.00  0.00    -0.034 A 
HETATM   17  C15 UNL     1      26.370   4.554  49.370  1.00  0.00     0.009 A 
HETATM   18  C16 UNL     1      26.428   3.210  49.623  1.00  0.00     0.002 A 
HETATM   19  C17 UNL     1      25.563   2.631  50.509  1.00  0.00     0.024 A 
HETATM   20  C18 UNL     1      24.619   3.421  51.155  1.00  0.00     0.034 A 
HETATM   21 CL1  UNL     1      23.500   2.685  52.298  1.00  0.00    -0.084 Cl
HETATM   22  C19 UNL     1      24.601   4.774  50.864  1.00  0.00     0.033 A 
ENDBRANCH  14  16
ENDBRANCH  11  14
ENDBRANCH   1  10
BRANCH   6  23
HETATM   23  C8  UNL     1      32.812   5.428  48.133  1.00  0.00    -0.003 A 
HETATM   24  C9  UNL     1      34.117   5.697  48.514  1.00  0.00     0.033 A 
HETATM   25  C10 UNL     1      35.048   4.656  48.431  1.00  0.00     0.117 A 
HETATM   26  N4  UNL     1      34.642   3.448  47.990  1.00  0.00    -0.273 NA
HETATM   27  C11 UNL     1      33.364   3.229  47.631  1.00  0.00     0.117 A 
HETATM   28  C12 UNL     1      32.376   4.215  47.683  1.00  0.00     0.033 A 
ENDBRANCH   6  23
TORSDOF 4
ENDMDL
MODEL 7
REMARK VINA RESULT:      -7.5      3.307      5.492
REMARK  4 active torsions:
REMARK  status: ('A' for Active; 'I' for Inactive)
REMARK    1  A    between atoms: C2_2  and  N1_3 
REMARK    2  A    between atoms: C2_2  and  C14_20 
REMARK       I    between atoms: N1_3  and  C3_4 
REMARK    3  A    between atoms: C3_4  and  C4_6 
REMARK    4  A    between atoms: C7_11  and  C8_12 
ROOT
HETATM    1  C4  UNL     1      24.893   4.662  49.168  1.00  0.00     0.036 C 
HETATM    2  C5  UNL     1      26.048   5.336  49.070  1.00  0.00     0.009 C 
HETATM    3  C6  UNL     1      27.160   4.400  49.228  1.00  0.00     0.174 C 
HETATM    4  N2  UNL     1      26.617   3.377  50.103  1.00  0.00    -0.288 N 
HETATM    5  N3  UNL     1      26.964   2.629  51.216  1.00  0.00    -0.175 NA
HETATM    6  C7  UNL     1      25.931   2.019  51.725  1.00  0.00     0.090 C 
HETATM    7  P1  UNL     1      24.419   2.403  50.751  1.00  0.00    -0.041 P 
HETATM    8  C13 UNL     1      25.331   3.290  49.389  1.00  0.00     0.174 C 
HETATM    9  H13 UNL     1      23.641   3.393  51.515  1.00  0.00     0.066 HD
ENDROOT
BRANCH   1  10
HETATM   10  C3  UNL     1      23.552   5.236  49.066  1.00  0.00     0.250 C 
HETATM   11  N1  UNL     1      22.786   5.705  50.156  1.00  0.00    -0.349 N 
HETATM   12  H5  UNL     1      23.206   5.640  51.110  1.00  0.00     0.163 HD
HETATM   13  O1  UNL     1      23.009   5.334  47.936  1.00  0.00    -0.268 OA
BRANCH  11  14
HETATM   14  C2  UNL     1      21.450   6.266  49.969  1.00  0.00     0.114 C 
HETATM   15  C1  UNL     1      21.257   7.525  50.778  1.00  0.00     0.037 C 
BRANCH  14  16
HETATM   16  C14 UNL     1      20.481   5.232  50.454  1.00  0.00    -0.034 A 
HETATM   17  C15 UNL     1      19.174   5.190  50.004  1.00  0.00     0.009 A 
HETATM   18  C16 UNL     1      18.284   4.247  50.443  1.00  0.00     0.002 A 
HETATM   19  C17 UNL     1      18.665   3.302  51.354  1.00  0.00     0.024 A 
HETATM   20  C18 UNL     1      19.970   3.304  51.833  1.00  0.00     0.034 A 
HETATM   21 CL1  UNL     1      20.471   2.091  53.007  1.00  0.00    -0.084 Cl
HETATM   22  C19 UNL     1      20.830   4.278  51.358  1.00  0.00     0.033 A 
ENDBRANCH  14  16
ENDBRANCH  11  14
ENDBRANCH   1  10
BRANCH   6  23
HETATM   23  C8  UNL     1      25.992   1.149  52.916  1.00  0.00    -0.003 A 
HETATM   24  C9  UNL     1      24.870   0.378  53.173  1.00  0.00     0.033 A 
HETATM   25  C10 UNL     1      24.896  -0.458  54.296  1.00  0.00     0.117 A 
HETATM   26  N4  UNL     1      25.999  -0.478  55.071  1.00  0.00    -0.273 NA
HETATM   27  C11 UNL     1      27.067   0.286  54.785  1.00  0.00     0.117 A 
HETATM   28  C12 UNL     1      27.120   1.146  53.686  1.00  0.00     0.033 A 
ENDBRANCH   6  23
TORSDOF 4
ENDMDL
MODEL 8
REMARK VINA RESULT:      -7.4      6.550     10.151
REMARK  4 active torsions:
REMARK  status: ('A' for Active; 'I' for Inactive)
REMARK    1  A    between atoms: C2_2  and  N1_3 
REMARK    2  A    between atoms: C2_2  and  C14_20 
REMARK       I    between atoms: N1_3  and  C3_4 
REMARK    3  A    between atoms: C3_4  and  C4_6 
REMARK    4  A    between atoms: C7_11  and  C8_12 
ROOT
HETATM    1  C4  UNL     1      31.054   8.345  45.990  1.00  0.00     0.036 C 
HETATM    2  C5  UNL     1      30.401   9.127  45.117  1.00  0.00     0.009 C 
HETATM    3  C6  UNL     1      29.207   9.666  45.764  1.00  0.00     0.174 C 
HETATM    4  N2  UNL     1      28.843   8.633  46.716  1.00  0.00    -0.288 N 
HETATM    5  N3  UNL     1      27.730   7.951  47.180  1.00  0.00    -0.175 NA
HETATM    6  C7  UNL     1      28.067   6.916  47.896  1.00  0.00     0.090 C 
HETATM    7  P1  UNL     1      29.898   6.779  48.001  1.00  0.00    -0.041 P 
HETATM    8  C13 UNL     1      30.224   8.422  47.185  1.00  0.00     0.174 C 
HETATM    9  H13 UNL     1      30.313   5.709  47.080  1.00  0.00     0.066 HD
ENDROOT
BRANCH   1  10
HETATM   10  C3  UNL     1      32.297   7.619  45.730  1.00  0.00     0.250 C 
HETATM   11  N1  UNL     1      32.385   6.380  45.058  1.00  0.00    -0.349 N 
HETATM   12  H5  UNL     1      31.499   5.945  44.718  1.00  0.00     0.163 HD
HETATM   13  O1  UNL     1      33.386   8.106  46.123  1.00  0.00    -0.268 OA
BRANCH  11  14
HETATM   14  C2  UNL     1      33.671   5.718  44.839  1.00  0.00     0.114 C 
HETATM   15  C1  UNL     1      33.705   4.995  43.515  1.00  0.00     0.037 C 
BRANCH  14  16
HETATM   16  C14 UNL     1      33.825   4.712  45.938  1.00  0.00    -0.034 A 
HETATM   17  C15 UNL     1      34.675   4.927  47.009  1.00  0.00     0.009 A 
HETATM   18  C16 UNL     1      34.820   4.011  48.016  1.00  0.00     0.002 A 
HETATM   19  C17 UNL     1      34.118   2.839  47.997  1.00  0.00     0.024 A 
HETATM   20  C18 UNL     1      33.251   2.580  46.942  1.00  0.00     0.034 A 
HETATM   21 CL1  UNL     1      32.342   1.073  46.908  1.00  0.00    -0.084 Cl
HETATM   22  C19 UNL     1      33.140   3.538  45.948  1.00  0.00     0.033 A 
ENDBRANCH  14  16
ENDBRANCH  11  14
ENDBRANCH   1  10
BRANCH   6  23
HETATM   23  C8  UNL     1      27.095   5.997  48.524  1.00  0.00    -0.003 A 
HETATM   24  C9  UNL     1      27.536   4.706  48.764  1.00  0.00     0.033 A 
HETATM   25  C10 UNL     1      26.639   3.810  49.358  1.00  0.00     0.117 A 
HETATM   26  N4  UNL     1      25.398   4.237  49.668  1.00  0.00    -0.273 NA
HETATM   27  C11 UNL     1      25.011   5.500  49.419  1.00  0.00     0.117 A 
HETATM   28  C12 UNL     1      25.844   6.453  48.829  1.00  0.00     0.033 A 
ENDBRANCH   6  23
TORSDOF 4
ENDMDL
MODEL 9
REMARK VINA RESULT:      -7.4      3.541      4.721
REMARK  4 active torsions:
REMARK  status: ('A' for Active; 'I' for Inactive)
REMARK    1  A    between atoms: C2_2  and  N1_3 
REMARK    2  A    between atoms: C2_2  and  C14_20 
REMARK       I    between atoms: N1_3  and  C3_4 
REMARK    3  A    between atoms: C3_4  and  C4_6 
REMARK    4  A    between atoms: C7_11  and  C8_12 
ROOT
HETATM    1  C4  UNL     1      22.235   4.473  50.325  1.00  0.00     0.036 C 
HETATM    2  C5  UNL     1      20.982   4.758  49.944  1.00  0.00     0.009 C 
HETATM    3  C6  UNL     1      20.083   4.560  51.079  1.00  0.00     0.174 C 
HETATM    4  N2  UNL     1      20.730   3.507  51.841  1.00  0.00    -0.288 N 
HETATM    5  N3  UNL     1      20.428   2.331  52.508  1.00  0.00    -0.175 NA
HETATM    6  C7  UNL     1      21.505   1.659  52.804  1.00  0.00     0.090 C 
HETATM    7  P1  UNL     1      22.999   2.552  52.211  1.00  0.00    -0.041 P 
HETATM    8  C13 UNL     1      22.076   4.095  51.722  1.00  0.00     0.174 C 
HETATM    9  H13 UNL     1      23.461   1.876  50.988  1.00  0.00     0.066 HD
ENDROOT
BRANCH   1  10
HETATM   10  C3  UNL     1      23.428   4.547  49.481  1.00  0.00     0.250 C 
HETATM   11  N1  UNL     1      24.686   5.034  49.899  1.00  0.00    -0.349 N 
HETATM   12  H5  UNL     1      24.778   5.366  50.884  1.00  0.00     0.163 HD
HETATM   13  O1  UNL     1      23.362   4.156  48.289  1.00  0.00    -0.268 OA
BRANCH  11  14
HETATM   14  C2  UNL     1      25.831   5.074  48.991  1.00  0.00     0.114 C 
HETATM   15  C1  UNL     1      26.847   4.011  49.329  1.00  0.00     0.037 C 
BRANCH  14  16
HETATM   16  C14 UNL     1      26.468   6.418  49.167  1.00  0.00    -0.034 A 
HETATM   17  C15 UNL     1      25.942   7.366  50.026  1.00  0.00     0.009 A 
HETATM   18  C16 UNL     1      26.519   8.597  50.192  1.00  0.00     0.002 A 
HETATM   19  C17 UNL     1      27.651   8.932  49.503  1.00  0.00     0.024 A 
HETATM   20  C18 UNL     1      28.216   8.011  48.629  1.00  0.00     0.034 A 
HETATM   21 CL1  UNL     1      29.674   8.433  47.738  1.00  0.00    -0.084 Cl
HETATM   22  C19 UNL     1      27.594   6.781  48.498  1.00  0.00     0.033 A 
ENDBRANCH  14  16
ENDBRANCH  11  14
ENDBRANCH   1  10
BRANCH   6  23
HETATM   23  C8  UNL     1      21.498   0.364  53.515  1.00  0.00    -0.003 A 
HETATM   24  C9  UNL     1      22.679   0.001  54.142  1.00  0.00     0.033 A 
HETATM   25  C10 UNL     1      22.706  -1.221  54.824  1.00  0.00     0.117 A 
HETATM   26  N4  UNL     1      21.594  -1.984  54.845  1.00  0.00    -0.273 NA
HETATM   27  C11 UNL     1      20.468  -1.593  54.223  1.00  0.00     0.117 A 
HETATM   28  C12 UNL     1      20.360  -0.391  53.521  1.00  0.00     0.033 A 
ENDBRANCH   6  23
TORSDOF 4
ENDMDL
