MODEL 1
REMARK VINA RESULT:      -8.2      0.000      0.000
REMARK  6 active torsions:
REMARK  status: ('A' for Active; 'I' for Inactive)
REMARK    1  A    between atoms: O1_2  and  C2_3 
REMARK    2  A    between atoms: C5_8  and  N3_9 
REMARK    3  A    between atoms: C9_14  and  O2_15 
REMARK    4  A    between atoms: O2_15  and  C10_16 
REMARK    5  A    between atoms: C10_16  and  C11_17 
REMARK    6  A    between atoms: C14_20  and  O3_21 
ROOT
HETATM    1  C2  UNL     1      23.751  -0.167  53.687  1.00  0.00     0.117 C 
HETATM    2  C3  UNL     1      24.588  -0.724  54.556  1.00  0.00     0.129 C 
HETATM    3  N1  UNL     1      26.035  -0.699  54.693  1.00  0.00    -0.351 N 
HETATM    4  C4  UNL     1      27.022  -0.374  53.721  1.00  0.00     0.127 C 
HETATM    5  N2  UNL     1      28.037   0.163  54.327  1.00  0.00    -0.049 NA
HETATM    6  C5  UNL     1      28.562   1.469  53.819  1.00  0.00     0.721 C 
HETATM    7  N4  UNL     1      28.333   2.135  52.673  1.00  0.00    -0.075 NA
HETATM    8  C6  UNL     1      27.037   2.073  52.008  1.00  0.00     0.144 C 
HETATM    9  C7  UNL     1      26.341   0.914  52.000  1.00  0.00    -0.030 C 
HETATM   10  C8  UNL     1      24.923   1.353  51.915  1.00  0.00     0.048 C 
HETATM   11  C9  UNL     1      23.896   0.788  52.585  1.00  0.00     0.104 C 
HETATM   12  C18 UNL     1      27.012  -0.474  52.173  1.00  0.00     0.119 C 
HETATM   13  H5  UNL     1      26.561  -0.896  55.532  1.00  0.00     0.166 HD
ENDROOT
BRANCH  11  14
HETATM   14  O2  UNL     1      22.781   1.315  52.005  1.00  0.00    -0.344 OA
BRANCH  14  15
HETATM   15  C10 UNL     1      22.632   2.672  51.644  1.00  0.00     0.214 C 
BRANCH  15  16
HETATM   16  C11 UNL     1      22.457   2.864  50.182  1.00  0.00    -0.034 A 
HETATM   17  C12 UNL     1      22.563   4.105  49.567  1.00  0.00     0.012 A 
HETATM   18  C13 UNL     1      22.389   4.223  48.184  1.00  0.00     0.037 A 
HETATM   19  C14 UNL     1      22.111   3.079  47.435  1.00  0.00     0.068 A 
HETATM   20  C16 UNL     1      22.005   1.852  48.028  1.00  0.00     0.037 A 
HETATM   21  C17 UNL     1      22.181   1.752  49.412  1.00  0.00     0.012 A 
BRANCH  19  22
HETATM   22  O3  UNL     1      21.944   3.224  46.065  1.00  0.00    -0.356 OA
HETATM   23  C15 UNL     1      21.963   4.490  45.436  1.00  0.00     0.210 C 
ENDBRANCH  19  22
ENDBRANCH  15  16
ENDBRANCH  14  15
ENDBRANCH  11  14
BRANCH   1  24
HETATM   24  O1  UNL     1      22.457  -0.565  53.846  1.00  0.00    -0.352 OA
HETATM   25  C1  UNL     1      22.193  -1.436  54.957  1.00  0.00     0.210 C 
ENDBRANCH   1  24
BRANCH   6  26
HETATM   26  N3  UNL     1      29.468   2.133  54.724  1.00  0.00    -0.231 N 
HETATM   27  H6  UNL     1      29.134   2.533  55.640  1.00  0.00     0.174 HD
HETATM   28  H7  UNL     1      30.486   2.199  54.427  1.00  0.00     0.174 HD
ENDBRANCH   6  26
TORSDOF 6
ENDMDL
MODEL 2
REMARK VINA RESULT:      -8.2      2.717      3.664
REMARK  6 active torsions:
REMARK  status: ('A' for Active; 'I' for Inactive)
REMARK    1  A    between atoms: O1_2  and  C2_3 
REMARK    2  A    between atoms: C5_8  and  N3_9 
REMARK    3  A    between atoms: C9_14  and  O2_15 
REMARK    4  A    between atoms: O2_15  and  C10_16 
REMARK    5  A    between atoms: C10_16  and  C11_17 
REMARK    6  A    between atoms: C14_20  and  O3_21 
ROOT
HETATM    1  C2  UNL     1      23.721  -0.301  53.821  1.00  0.00     0.117 C 
HETATM    2  C3  UNL     1      24.657  -0.860  54.582  1.00  0.00     0.129 C 
HETATM    3  N1  UNL     1      26.108  -0.771  54.592  1.00  0.00    -0.351 N 
HETATM    4  C4  UNL     1      26.987  -0.350  53.556  1.00  0.00     0.127 C 
HETATM    5  N2  UNL     1      28.028   0.206  54.097  1.00  0.00    -0.049 NA
HETATM    6  C5  UNL     1      28.447   1.560  53.617  1.00  0.00     0.721 C 
HETATM    7  N4  UNL     1      28.086   2.270  52.534  1.00  0.00    -0.075 NA
HETATM    8  C6  UNL     1      26.739   2.177  51.983  1.00  0.00     0.144 C 
HETATM    9  C7  UNL     1      26.097   0.988  51.973  1.00  0.00    -0.030 C 
HETATM   10  C8  UNL     1      24.659   1.361  52.038  1.00  0.00     0.048 C 
HETATM   11  C9  UNL     1      23.723   0.714  52.764  1.00  0.00     0.104 C 
HETATM   12  C18 UNL     1      26.842  -0.373  52.011  1.00  0.00     0.119 C 
HETATM   13  H5  UNL     1      26.716  -0.984  55.369  1.00  0.00     0.166 HD
ENDROOT
BRANCH  11  14
HETATM   14  O2  UNL     1      22.538   1.213  52.314  1.00  0.00    -0.344 OA
BRANCH  14  15
HETATM   15  C10 UNL     1      22.001   0.966  51.031  1.00  0.00     0.214 C 
BRANCH  15  16
HETATM   16  C11 UNL     1      20.542   0.691  51.061  1.00  0.00    -0.034 A 
HETATM   17  C12 UNL     1      19.685   1.057  50.031  1.00  0.00     0.012 A 
HETATM   18  C13 UNL     1      18.319   0.769  50.116  1.00  0.00     0.037 A 
HETATM   19  C14 UNL     1      17.833   0.109  51.246  1.00  0.00     0.068 A 
HETATM   20  C16 UNL     1      18.665  -0.257  52.266  1.00  0.00     0.037 A 
HETATM   21  C17 UNL     1      20.029   0.039  52.165  1.00  0.00     0.012 A 
BRANCH  19  22
HETATM   22  O3  UNL     1      16.474  -0.164  51.304  1.00  0.00    -0.356 OA
HETATM   23  C15 UNL     1      15.813  -0.439  52.523  1.00  0.00     0.210 C 
ENDBRANCH  19  22
ENDBRANCH  15  16
ENDBRANCH  14  15
ENDBRANCH  11  14
BRANCH   1  24
HETATM   24  O1  UNL     1      22.465  -0.770  54.071  1.00  0.00    -0.352 OA
HETATM   25  C1  UNL     1      22.327  -1.639  55.206  1.00  0.00     0.210 C 
ENDBRANCH   1  24
BRANCH   6  26
HETATM   26  N3  UNL     1      29.401   2.220  54.473  1.00  0.00    -0.231 N 
HETATM   27  H6  UNL     1      30.381   1.851  54.590  1.00  0.00     0.174 HD
HETATM   28  H7  UNL     1      29.072   3.095  54.979  1.00  0.00     0.174 HD
ENDBRANCH   6  26
TORSDOF 6
ENDMDL
MODEL 3
REMARK VINA RESULT:      -8.0      1.863      2.436
REMARK  6 active torsions:
REMARK  status: ('A' for Active; 'I' for Inactive)
REMARK    1  A    between atoms: O1_2  and  C2_3 
REMARK    2  A    between atoms: C5_8  and  N3_9 
REMARK    3  A    between atoms: C9_14  and  O2_15 
REMARK    4  A    between atoms: O2_15  and  C10_16 
REMARK    5  A    between atoms: C10_16  and  C11_17 
REMARK    6  A    between atoms: C14_20  and  O3_21 
ROOT
HETATM    1  C2  UNL     1      23.749  -0.269  53.693  1.00  0.00     0.117 C 
HETATM    2  C3  UNL     1      24.592  -0.819  54.560  1.00  0.00     0.129 C 
HETATM    3  N1  UNL     1      26.038  -0.775  54.701  1.00  0.00    -0.351 N 
HETATM    4  C4  UNL     1      27.022  -0.428  53.734  1.00  0.00     0.127 C 
HETATM    5  N2  UNL     1      28.028   0.120  54.346  1.00  0.00    -0.049 NA
HETATM    6  C5  UNL     1      28.535   1.437  53.849  1.00  0.00     0.721 C 
HETATM    7  N4  UNL     1      28.299   2.108  52.708  1.00  0.00    -0.075 NA
HETATM    8  C6  UNL     1      27.005   2.031  52.039  1.00  0.00     0.144 C 
HETATM    9  C7  UNL     1      26.327   0.862  52.020  1.00  0.00    -0.030 C 
HETATM   10  C8  UNL     1      24.903   1.282  51.935  1.00  0.00     0.048 C 
HETATM   11  C9  UNL     1      23.883   0.697  52.599  1.00  0.00     0.104 C 
HETATM   12  C18 UNL     1      27.018  -0.517  52.185  1.00  0.00     0.119 C 
HETATM   13  H5  UNL     1      26.565  -0.970  55.540  1.00  0.00     0.166 HD
ENDROOT
BRANCH  11  14
HETATM   14  O2  UNL     1      22.762   1.211  52.019  1.00  0.00    -0.344 OA
BRANCH  14  15
HETATM   15  C10 UNL     1      22.712   1.757  50.717  1.00  0.00     0.214 C 
BRANCH  15  16
HETATM   16  C11 UNL     1      22.802   3.239  50.710  1.00  0.00    -0.034 A 
HETATM   17  C12 UNL     1      23.550   3.944  49.777  1.00  0.00     0.012 A 
HETATM   18  C13 UNL     1      23.595   5.342  49.821  1.00  0.00     0.037 A 
HETATM   19  C14 UNL     1      22.879   6.013  50.812  1.00  0.00     0.068 A 
HETATM   20  C16 UNL     1      22.139   5.331  51.737  1.00  0.00     0.037 A 
HETATM   21  C17 UNL     1      22.105   3.934  51.679  1.00  0.00     0.012 A 
BRANCH  19  22
HETATM   22  O3  UNL     1      22.941   7.399  50.833  1.00  0.00    -0.356 OA
HETATM   23  C15 UNL     1      24.078   8.107  50.381  1.00  0.00     0.210 C 
ENDBRANCH  19  22
ENDBRANCH  15  16
ENDBRANCH  14  15
ENDBRANCH  11  14
BRANCH   1  24
HETATM   24  O1  UNL     1      22.460  -0.687  53.846  1.00  0.00    -0.352 OA
HETATM   25  C1  UNL     1      22.204  -1.559  54.958  1.00  0.00     0.210 C 
ENDBRANCH   1  24
BRANCH   6  26
HETATM   26  N3  UNL     1      29.429   2.107  54.761  1.00  0.00    -0.231 N 
HETATM   27  H6  UNL     1      30.475   2.045  54.650  1.00  0.00     0.174 HD
HETATM   28  H7  UNL     1      28.986   2.667  55.549  1.00  0.00     0.174 HD
ENDBRANCH   6  26
TORSDOF 6
ENDMDL
MODEL 4
REMARK VINA RESULT:      -7.5      2.608      5.137
REMARK  6 active torsions:
REMARK  status: ('A' for Active; 'I' for Inactive)
REMARK    1  A    between atoms: O1_2  and  C2_3 
REMARK    2  A    between atoms: C5_8  and  N3_9 
REMARK    3  A    between atoms: C9_14  and  O2_15 
REMARK    4  A    between atoms: O2_15  and  C10_16 
REMARK    5  A    between atoms: C10_16  and  C11_17 
REMARK    6  A    between atoms: C14_20  and  O3_21 
ROOT
HETATM    1  C2  UNL     1      24.762   2.619  50.821  1.00  0.00     0.117 C 
HETATM    2  C3  UNL     1      26.002   3.092  50.866  1.00  0.00     0.129 C 
HETATM    3  N1  UNL     1      27.145   2.795  51.714  1.00  0.00    -0.351 N 
HETATM    4  C4  UNL     1      27.175   2.172  52.993  1.00  0.00     0.127 C 
HETATM    5  N2  UNL     1      28.289   1.515  53.107  1.00  0.00    -0.049 NA
HETATM    6  C5  UNL     1      28.232   0.082  53.533  1.00  0.00     0.721 C 
HETATM    7  N4  UNL     1      27.236  -0.650  54.063  1.00  0.00    -0.075 NA
HETATM    8  C6  UNL     1      25.844  -0.406  53.703  1.00  0.00     0.144 C 
HETATM    9  C7  UNL     1      25.414   0.860  53.505  1.00  0.00    -0.030 C 
HETATM   10  C8  UNL     1      24.295   0.705  52.537  1.00  0.00     0.048 C 
HETATM   11  C9  UNL     1      24.047   1.536  51.502  1.00  0.00     0.104 C 
HETATM   12  C18 UNL     1      26.115   2.097  54.124  1.00  0.00     0.119 C 
HETATM   13  H5  UNL     1      28.115   2.977  51.498  1.00  0.00     0.166 HD
ENDROOT
BRANCH  11  14
HETATM   14  O2  UNL     1      22.804   1.180  51.072  1.00  0.00    -0.344 OA
BRANCH  14  15
HETATM   15  C10 UNL     1      21.614   1.858  51.415  1.00  0.00     0.214 C 
BRANCH  15  16
HETATM   16  C11 UNL     1      20.560   0.948  51.930  1.00  0.00    -0.034 A 
HETATM   17  C12 UNL     1      20.678   0.260  53.131  1.00  0.00     0.012 A 
HETATM   18  C13 UNL     1      19.650  -0.583  53.565  1.00  0.00     0.037 A 
HETATM   19  C14 UNL     1      18.507  -0.720  52.776  1.00  0.00     0.068 A 
HETATM   20  C16 UNL     1      18.377  -0.049  51.593  1.00  0.00     0.037 A 
HETATM   21  C17 UNL     1      19.415   0.790  51.174  1.00  0.00     0.012 A 
BRANCH  19  22
HETATM   22  O3  UNL     1      17.502  -1.563  53.230  1.00  0.00    -0.356 OA
HETATM   23  C15 UNL     1      17.761  -2.892  53.634  1.00  0.00     0.210 C 
ENDBRANCH  19  22
ENDBRANCH  15  16
ENDBRANCH  14  15
ENDBRANCH  11  14
BRANCH   1  24
HETATM   24  O1  UNL     1      23.958   3.283  49.942  1.00  0.00    -0.352 OA
HETATM   25  C1  UNL     1      23.808   4.694  50.160  1.00  0.00     0.210 C 
ENDBRANCH   1  24
BRANCH   6  26
HETATM   26  N3  UNL     1      29.463  -0.643  53.332  1.00  0.00    -0.231 N 
HETATM   27  H6  UNL     1      29.867  -1.259  54.085  1.00  0.00     0.174 HD
HETATM   28  H7  UNL     1      29.944  -0.527  52.391  1.00  0.00     0.174 HD
ENDBRANCH   6  26
TORSDOF 6
ENDMDL
MODEL 5
REMARK VINA RESULT:      -7.4      2.698      3.751
REMARK  6 active torsions:
REMARK  status: ('A' for Active; 'I' for Inactive)
REMARK    1  A    between atoms: O1_2  and  C2_3 
REMARK    2  A    between atoms: C5_8  and  N3_9 
REMARK    3  A    between atoms: C9_14  and  O2_15 
REMARK    4  A    between atoms: O2_15  and  C10_16 
REMARK    5  A    between atoms: C10_16  and  C11_17 
REMARK    6  A    between atoms: C14_20  and  O3_21 
ROOT
HETATM    1  C2  UNL     1      24.242   2.200  52.975  1.00  0.00     0.117 C 
HETATM    2  C3  UNL     1      25.218   2.894  53.551  1.00  0.00     0.129 C 
HETATM    3  N1  UNL     1      26.494   2.512  54.133  1.00  0.00    -0.351 N 
HETATM    4  C4  UNL     1      26.921   1.237  54.598  1.00  0.00     0.127 C 
HETATM    5  N2  UNL     1      28.203   1.137  54.413  1.00  0.00    -0.049 NA
HETATM    6  C5  UNL     1      28.731  -0.070  53.704  1.00  0.00     0.721 C 
HETATM    7  N4  UNL     1      28.152  -1.243  53.393  1.00  0.00    -0.075 NA
HETATM    8  C6  UNL     1      26.732  -1.324  53.071  1.00  0.00     0.144 C 
HETATM    9  C7  UNL     1      25.847  -0.550  53.738  1.00  0.00    -0.030 C 
HETATM   10  C8  UNL     1      24.742  -0.355  52.762  1.00  0.00     0.048 C 
HETATM   11  C9  UNL     1      24.071   0.801  52.574  1.00  0.00     0.104 C 
HETATM   12  C18 UNL     1      26.126   0.025  55.152  1.00  0.00     0.119 C 
HETATM   13  H5  UNL     1      27.292   3.114  54.277  1.00  0.00     0.166 HD
ENDROOT
BRANCH  11  14
HETATM   14  O2  UNL     1      22.997   0.450  51.811  1.00  0.00    -0.344 OA
BRANCH  14  15
HETATM   15  C10 UNL     1      21.831  -0.172  52.309  1.00  0.00     0.214 C 
BRANCH  15  16
HETATM   16  C11 UNL     1      20.603   0.240  51.583  1.00  0.00    -0.034 A 
HETATM   17  C12 UNL     1      19.324  -0.042  52.046  1.00  0.00     0.012 A 
HETATM   18  C13 UNL     1      18.205   0.374  51.317  1.00  0.00     0.037 A 
HETATM   19  C14 UNL     1      18.392   1.074  50.125  1.00  0.00     0.068 A 
HETATM   20  C16 UNL     1      19.645   1.358  49.659  1.00  0.00     0.037 A 
HETATM   21  C17 UNL     1      20.754   0.935  50.400  1.00  0.00     0.012 A 
BRANCH  19  22
HETATM   22  O3  UNL     1      17.264   1.475  49.423  1.00  0.00    -0.356 OA
HETATM   23  C15 UNL     1      17.282   2.575  48.536  1.00  0.00     0.210 C 
ENDBRANCH  19  22
ENDBRANCH  15  16
ENDBRANCH  14  15
ENDBRANCH  11  14
BRANCH   1  24
HETATM   24  O1  UNL     1      23.140   2.950  52.684  1.00  0.00    -0.352 OA
HETATM   25  C1  UNL     1      23.364   4.124  51.890  1.00  0.00     0.210 C 
ENDBRANCH   1  24
BRANCH   6  26
HETATM   26  N3  UNL     1      30.102   0.052  53.274  1.00  0.00    -0.231 N 
HETATM   27  H6  UNL     1      30.776   0.698  53.763  1.00  0.00     0.174 HD
HETATM   28  H7  UNL     1      30.402  -0.538  52.443  1.00  0.00     0.174 HD
ENDBRANCH   6  26
TORSDOF 6
ENDMDL
MODEL 6
REMARK VINA RESULT:      -7.3      3.285      6.157
REMARK  6 active torsions:
REMARK  status: ('A' for Active; 'I' for Inactive)
REMARK    1  A    between atoms: O1_2  and  C2_3 
REMARK    2  A    between atoms: C5_8  and  N3_9 
REMARK    3  A    between atoms: C9_14  and  O2_15 
REMARK    4  A    between atoms: O2_15  and  C10_16 
REMARK    5  A    between atoms: C10_16  and  C11_17 
REMARK    6  A    between atoms: C14_20  and  O3_21 
ROOT
HETATM    1  C2  UNL     1      25.939   1.973  51.878  1.00  0.00     0.117 C 
HETATM    2  C3  UNL     1      26.785   2.693  51.148  1.00  0.00     0.129 C 
HETATM    3  N1  UNL     1      26.651   3.947  50.426  1.00  0.00    -0.351 N 
HETATM    4  C4  UNL     1      25.470   4.598  49.974  1.00  0.00     0.127 C 
HETATM    5  N2  UNL     1      25.671   5.881  49.996  1.00  0.00    -0.049 NA
HETATM    6  C5  UNL     1      24.668   6.749  50.690  1.00  0.00     0.721 C 
HETATM    7  N4  UNL     1      23.424   6.493  51.130  1.00  0.00    -0.075 NA
HETATM    8  C6  UNL     1      23.056   5.176  51.636  1.00  0.00     0.144 C 
HETATM    9  C7  UNL     1      23.562   4.067  51.051  1.00  0.00    -0.030 C 
HETATM   10  C8  UNL     1      23.582   3.066  52.151  1.00  0.00     0.048 C 
HETATM   11  C9  UNL     1      24.572   2.174  52.366  1.00  0.00     0.104 C 
HETATM   12  C18 UNL     1      24.073   4.043  49.587  1.00  0.00     0.119 C 
HETATM   13  H5  UNL     1      27.401   4.564  50.151  1.00  0.00     0.166 HD
ENDROOT
BRANCH  11  14
HETATM   14  O2  UNL     1      24.053   1.303  53.277  1.00  0.00    -0.344 OA
BRANCH  14  15
HETATM   15  C10 UNL     1      23.721  -0.042  53.000  1.00  0.00     0.214 C 
BRANCH  15  16
HETATM   16  C11 UNL     1      22.263  -0.307  53.094  1.00  0.00    -0.034 A 
HETATM   17  C12 UNL     1      21.346   0.188  52.176  1.00  0.00     0.012 A 
HETATM   18  C13 UNL     1      19.984  -0.098  52.318  1.00  0.00     0.037 A 
HETATM   19  C14 UNL     1      19.563  -0.885  53.390  1.00  0.00     0.068 A 
HETATM   20  C16 UNL     1      20.455  -1.379  54.300  1.00  0.00     0.037 A 
HETATM   21  C17 UNL     1      21.814  -1.083  54.144  1.00  0.00     0.012 A 
BRANCH  19  22
HETATM   22  O3  UNL     1      18.207  -1.153  53.506  1.00  0.00    -0.356 OA
HETATM   23  C15 UNL     1      17.696  -2.471  53.483  1.00  0.00     0.210 C 
ENDBRANCH  19  22
ENDBRANCH  15  16
ENDBRANCH  14  15
ENDBRANCH  11  14
BRANCH   1  24
HETATM   24  O1  UNL     1      26.447   0.770  52.271  1.00  0.00    -0.352 OA
HETATM   25  C1  UNL     1      27.524   0.815  53.219  1.00  0.00     0.210 C 
ENDBRANCH   1  24
BRANCH   6  26
HETATM   26  N3  UNL     1      25.123   8.096  50.934  1.00  0.00    -0.231 N 
HETATM   27  H6  UNL     1      26.150   8.330  50.973  1.00  0.00     0.174 HD
HETATM   28  H7  UNL     1      24.377   8.840  51.072  1.00  0.00     0.174 HD
ENDBRANCH   6  26
TORSDOF 6
ENDMDL
MODEL 7
REMARK VINA RESULT:      -7.2      2.954      4.449
REMARK  6 active torsions:
REMARK  status: ('A' for Active; 'I' for Inactive)
REMARK    1  A    between atoms: O1_2  and  C2_3 
REMARK    2  A    between atoms: C5_8  and  N3_9 
REMARK    3  A    between atoms: C9_14  and  O2_15 
REMARK    4  A    between atoms: O2_15  and  C10_16 
REMARK    5  A    between atoms: C10_16  and  C11_17 
REMARK    6  A    between atoms: C14_20  and  O3_21 
ROOT
HETATM    1  C2  UNL     1      20.903   1.573  53.138  1.00  0.00     0.117 C 
HETATM    2  C3  UNL     1      20.528   0.821  54.168  1.00  0.00     0.129 C 
HETATM    3  N1  UNL     1      21.182  -0.250  54.901  1.00  0.00    -0.351 N 
HETATM    4  C4  UNL     1      22.276  -1.070  54.506  1.00  0.00     0.127 C 
HETATM    5  N2  UNL     1      22.956  -1.391  55.564  1.00  0.00    -0.049 NA
HETATM    6  C5  UNL     1      24.436  -1.166  55.557  1.00  0.00     0.721 C 
HETATM    7  N4  UNL     1      25.289  -0.891  54.555  1.00  0.00    -0.075 NA
HETATM    8  C6  UNL     1      24.876  -0.091  53.408  1.00  0.00     0.144 C 
HETATM    9  C7  UNL     1      23.627  -0.228  52.908  1.00  0.00    -0.030 C 
HETATM   10  C8  UNL     1      23.336   1.103  52.314  1.00  0.00     0.048 C 
HETATM   11  C9  UNL     1      22.147   1.738  52.383  1.00  0.00     0.104 C 
HETATM   12  C18 UNL     1      22.776  -1.510  53.104  1.00  0.00     0.119 C 
HETATM   13  H5  UNL     1      20.958  -0.561  55.836  1.00  0.00     0.166 HD
ENDROOT
BRANCH  11  14
HETATM   14  O2  UNL     1      22.256   2.761  51.488  1.00  0.00    -0.344 OA
BRANCH  14  15
HETATM   15  C10 UNL     1      23.240   2.840  50.479  1.00  0.00     0.214 C 
BRANCH  15  16
HETATM   16  C11 UNL     1      23.757   4.218  50.284  1.00  0.00    -0.034 A 
HETATM   17  C12 UNL     1      24.338   4.645  49.096  1.00  0.00     0.012 A 
HETATM   18  C13 UNL     1      24.805   5.957  48.973  1.00  0.00     0.037 A 
HETATM   19  C14 UNL     1      24.679   6.828  50.056  1.00  0.00     0.068 A 
HETATM   20  C16 UNL     1      24.110   6.421  51.230  1.00  0.00     0.037 A 
HETATM   21  C17 UNL     1      23.647   5.105  51.336  1.00  0.00     0.012 A 
BRANCH  19  22
HETATM   22  O3  UNL     1      25.152   8.124  49.906  1.00  0.00    -0.356 OA
HETATM   23  C15 UNL     1      26.523   8.443  50.030  1.00  0.00     0.210 C 
ENDBRANCH  19  22
ENDBRANCH  15  16
ENDBRANCH  14  15
ENDBRANCH  11  14
BRANCH   1  24
HETATM   24  O1  UNL     1      19.912   2.383  52.668  1.00  0.00    -0.352 OA
HETATM   25  C1  UNL     1      18.986   1.785  51.748  1.00  0.00     0.210 C 
ENDBRANCH   1  24
BRANCH   6  26
HETATM   26  N3  UNL     1      25.051  -1.254  56.858  1.00  0.00    -0.231 N 
HETATM   27  H6  UNL     1      26.099  -1.284  56.970  1.00  0.00     0.174 HD
HETATM   28  H7  UNL     1      24.402  -1.286  57.699  1.00  0.00     0.174 HD
ENDBRANCH   6  26
TORSDOF 6
ENDMDL
MODEL 8
REMARK VINA RESULT:      -7.0      4.568      7.189
REMARK  6 active torsions:
REMARK  status: ('A' for Active; 'I' for Inactive)
REMARK    1  A    between atoms: O1_2  and  C2_3 
REMARK    2  A    between atoms: C5_8  and  N3_9 
REMARK    3  A    between atoms: C9_14  and  O2_15 
REMARK    4  A    between atoms: O2_15  and  C10_16 
REMARK    5  A    between atoms: C10_16  and  C11_17 
REMARK    6  A    between atoms: C14_20  and  O3_21 
ROOT
HETATM    1  C2  UNL     1      26.175   4.642  49.332  1.00  0.00     0.117 C 
HETATM    2  C3  UNL     1      27.429   4.741  48.905  1.00  0.00     0.129 C 
HETATM    3  N1  UNL     1      28.273   5.875  48.567  1.00  0.00    -0.351 N 
HETATM    4  C4  UNL     1      27.896   7.206  48.236  1.00  0.00     0.127 C 
HETATM    5  N2  UNL     1      28.828   8.014  48.642  1.00  0.00    -0.049 NA
HETATM    6  C5  UNL     1      28.438   9.190  49.480  1.00  0.00     0.721 C 
HETATM    7  N4  UNL     1      27.239   9.743  49.734  1.00  0.00    -0.075 NA
HETATM    8  C6  UNL     1      26.032   8.929  49.810  1.00  0.00     0.144 C 
HETATM    9  C7  UNL     1      25.874   7.882  48.970  1.00  0.00    -0.030 C 
HETATM   10  C8  UNL     1      25.008   6.945  49.733  1.00  0.00     0.048 C 
HETATM   11  C9  UNL     1      25.152   5.603  49.755  1.00  0.00     0.104 C 
HETATM   12  C18 UNL     1      26.600   7.780  47.603  1.00  0.00     0.119 C 
HETATM   13  H5  UNL     1      29.283   5.884  48.538  1.00  0.00     0.166 HD
ENDROOT
BRANCH  11  14
HETATM   14  O2  UNL     1      24.005   5.147  50.335  1.00  0.00    -0.344 OA
BRANCH  14  15
HETATM   15  C10 UNL     1      23.830   4.962  51.724  1.00  0.00     0.214 C 
BRANCH  15  16
HETATM   16  C11 UNL     1      23.716   3.531  52.104  1.00  0.00    -0.034 A 
HETATM   17  C12 UNL     1      24.461   2.962  53.129  1.00  0.00     0.012 A 
HETATM   18  C13 UNL     1      24.309   1.607  53.442  1.00  0.00     0.037 A 
HETATM   19  C14 UNL     1      23.400   0.840  52.713  1.00  0.00     0.068 A 
HETATM   20  C16 UNL     1      22.660   1.388  51.702  1.00  0.00     0.037 A 
HETATM   21  C17 UNL     1      22.825   2.744  51.402  1.00  0.00     0.012 A 
BRANCH  19  22
HETATM   22  O3  UNL     1      23.269  -0.501  53.044  1.00  0.00    -0.356 OA
HETATM   23  C15 UNL     1      22.306  -0.955  53.974  1.00  0.00     0.210 C 
ENDBRANCH  19  22
ENDBRANCH  15  16
ENDBRANCH  14  15
ENDBRANCH  11  14
BRANCH   1  24
HETATM   24  O1  UNL     1      25.722   3.357  49.398  1.00  0.00    -0.352 OA
HETATM   25  C1  UNL     1      26.493   2.454  50.206  1.00  0.00     0.210 C 
ENDBRANCH   1  24
BRANCH   6  26
HETATM   26  N3  UNL     1      29.547   9.841  50.135  1.00  0.00    -0.231 N 
HETATM   27  H6  UNL     1      30.057  10.644  49.682  1.00  0.00     0.174 HD
HETATM   28  H7  UNL     1      29.825   9.475  51.093  1.00  0.00     0.174 HD
ENDBRANCH   6  26
TORSDOF 6
ENDMDL
MODEL 9
REMARK VINA RESULT:      -6.9      5.723      7.384
REMARK  6 active torsions:
REMARK  status: ('A' for Active; 'I' for Inactive)
REMARK    1  A    between atoms: O1_2  and  C2_3 
REMARK    2  A    between atoms: C5_8  and  N3_9 
REMARK    3  A    between atoms: C9_14  and  O2_15 
REMARK    4  A    between atoms: O2_15  and  C10_16 
REMARK    5  A    between atoms: C10_16  and  C11_17 
REMARK    6  A    between atoms: C14_20  and  O3_21 
ROOT
HETATM    1  C2  UNL     1      24.743   6.265  50.439  1.00  0.00     0.117 C 
HETATM    2  C3  UNL     1      24.058   6.042  51.556  1.00  0.00     0.129 C 
HETATM    3  N1  UNL     1      23.915   4.877  52.413  1.00  0.00    -0.351 N 
HETATM    4  C4  UNL     1      24.170   3.509  52.116  1.00  0.00     0.127 C 
HETATM    5  N2  UNL     1      24.563   2.916  53.203  1.00  0.00    -0.049 NA
HETATM    6  C5  UNL     1      25.824   2.110  53.160  1.00  0.00     0.721 C 
HETATM    7  N4  UNL     1      26.560   1.665  52.127  1.00  0.00    -0.075 NA
HETATM    8  C6  UNL     1      26.672   2.431  50.892  1.00  0.00     0.144 C 
HETATM    9  C7  UNL     1      25.600   3.105  50.420  1.00  0.00    -0.030 C 
HETATM   10  C8  UNL     1      26.199   4.239  49.667  1.00  0.00     0.048 C 
HETATM   11  C9  UNL     1      25.723   5.502  49.662  1.00  0.00     0.104 C 
HETATM   12  C18 UNL     1      24.140   2.724  50.778  1.00  0.00     0.119 C 
HETATM   13  H5  UNL     1      23.624   4.876  53.380  1.00  0.00     0.166 HD
ENDROOT
BRANCH  11  14
HETATM   14  O2  UNL     1      26.396   6.115  48.647  1.00  0.00    -0.344 OA
BRANCH  14  15
HETATM   15  C10 UNL     1      27.713   5.792  48.250  1.00  0.00     0.214 C 
BRANCH  15  16
HETATM   16  C11 UNL     1      28.644   6.943  48.353  1.00  0.00    -0.034 A 
HETATM   17  C12 UNL     1      29.955   6.896  47.896  1.00  0.00     0.012 A 
HETATM   18  C13 UNL     1      30.785   8.015  48.019  1.00  0.00     0.037 A 
HETATM   19  C14 UNL     1      30.278   9.175  48.607  1.00  0.00     0.068 A 
HETATM   20  C16 UNL     1      28.990   9.235  49.060  1.00  0.00     0.037 A 
HETATM   21  C17 UNL     1      28.174   8.107  48.929  1.00  0.00     0.012 A 
BRANCH  19  22
HETATM   22  O3  UNL     1      31.123  10.270  48.717  1.00  0.00    -0.356 OA
HETATM   23  C15 UNL     1      30.643  11.563  49.026  1.00  0.00     0.210 C 
ENDBRANCH  19  22
ENDBRANCH  15  16
ENDBRANCH  14  15
ENDBRANCH  11  14
BRANCH   1  24
HETATM   24  O1  UNL     1      24.485   7.481  49.877  1.00  0.00    -0.352 OA
HETATM   25  C1  UNL     1      23.172   8.017  50.099  1.00  0.00     0.210 C 
ENDBRANCH   1  24
BRANCH   6  26
HETATM   26  N3  UNL     1      26.341   1.756  54.459  1.00  0.00    -0.231 N 
HETATM   27  H6  UNL     1      27.124   2.303  54.906  1.00  0.00     0.174 HD
HETATM   28  H7  UNL     1      25.898   0.922  54.945  1.00  0.00     0.174 HD
ENDBRANCH   6  26
TORSDOF 6
ENDMDL
