MODEL 1
REMARK VINA RESULT:      -8.6      0.000      0.000
REMARK  0 active torsions:
REMARK  status: ('A' for Active; 'I' for Inactive)
ROOT
HETATM    1  O1  UNL     1      21.629  -0.070  52.763  1.00  0.00    -0.260 OA
HETATM    2  C1  UNL     1      22.099   1.039  52.448  1.00  0.00     0.282 C 
HETATM    3  C2  UNL     1      22.104   2.417  51.908  1.00  0.00     0.083 C 
HETATM    4  C3  UNL     1      22.854   3.492  51.661  1.00  0.00     0.017 C 
HETATM    5  C4  UNL     1      24.095   2.927  52.168  1.00  0.00    -0.036 A 
HETATM    6  C5  UNL     1      24.542   3.074  53.457  1.00  0.00     0.012 A 
HETATM    7  C6  UNL     1      25.714   2.461  53.829  1.00  0.00     0.013 A 
HETATM    8  C7  UNL     1      26.390   1.724  52.892  1.00  0.00    -0.024 A 
HETATM    9  C8  UNL     1      25.992   1.544  51.583  1.00  0.00     0.013 A 
HETATM   10  C9  UNL     1      24.807   2.170  51.227  1.00  0.00     0.012 A 
HETATM   11  C10 UNL     1      27.606   0.922  53.155  1.00  0.00     0.001 A 
HETATM   12  C11 UNL     1      28.926   1.241  53.371  1.00  0.00     0.014 A 
HETATM   13  C12 UNL     1      29.819   0.227  53.587  1.00  0.00     0.001 A 
HETATM   14  C13 UNL     1      29.426  -1.088  53.592  1.00  0.00     0.002 A 
HETATM   15  C14 UNL     1      28.116  -1.447  53.380  1.00  0.00     0.030 A 
HETATM   16  C15 UNL     1      27.208  -0.445  53.162  1.00  0.00     0.039 A 
HETATM   17  N1  UNL     1      25.802  -0.727  52.928  1.00  0.00    -0.387 N 
HETATM   18  C16 UNL     1      24.846  -0.892  53.997  1.00  0.00     0.146 C 
HETATM   19  C17 UNL     1      23.392  -0.755  53.490  1.00  0.00     0.198 C 
HETATM   20  O2  UNL     1      23.265   0.540  52.947  1.00  0.00    -0.317 OA
HETATM   21  H11 UNL     1      25.408  -0.825  51.963  1.00  0.00     0.159 HD
ENDROOT
TORSDOF 0
ENDMDL
MODEL 2
REMARK VINA RESULT:      -8.4      1.974      5.559
REMARK  0 active torsions:
REMARK  status: ('A' for Active; 'I' for Inactive)
ROOT
HETATM    1  O1  UNL     1      27.543   2.841  51.806  1.00  0.00    -0.260 OA
HETATM    2  C1  UNL     1      27.863   1.844  52.480  1.00  0.00     0.282 C 
HETATM    3  C2  UNL     1      28.762   0.838  53.090  1.00  0.00     0.083 C 
HETATM    4  C3  UNL     1      28.822  -0.257  53.848  1.00  0.00     0.017 C 
HETATM    5  C4  UNL     1      27.389  -0.366  54.067  1.00  0.00    -0.036 A 
HETATM    6  C5  UNL     1      26.726   0.180  55.139  1.00  0.00     0.012 A 
HETATM    7  C6  UNL     1      25.361   0.042  55.217  1.00  0.00     0.013 A 
HETATM    8  C7  UNL     1      24.715  -0.636  54.218  1.00  0.00    -0.024 A 
HETATM    9  C8  UNL     1      25.327  -1.208  53.120  1.00  0.00     0.013 A 
HETATM   10  C9  UNL     1      26.704  -1.059  53.059  1.00  0.00     0.012 A 
HETATM   11  C10 UNL     1      23.247  -0.785  54.099  1.00  0.00     0.001 A 
HETATM   12  C11 UNL     1      22.313  -1.545  54.764  1.00  0.00     0.014 A 
HETATM   13  C12 UNL     1      21.000  -1.441  54.392  1.00  0.00     0.001 A 
HETATM   14  C13 UNL     1      20.603  -0.602  53.382  1.00  0.00     0.002 A 
HETATM   15  C14 UNL     1      21.506   0.172  52.695  1.00  0.00     0.030 A 
HETATM   16  C15 UNL     1      22.826   0.082  53.052  1.00  0.00     0.039 A 
HETATM   17  N1  UNL     1      23.853   0.862  52.383  1.00  0.00    -0.387 N 
HETATM   18  C16 UNL     1      24.195   2.209  52.773  1.00  0.00     0.146 C 
HETATM   19  C17 UNL     1      25.567   2.637  52.205  1.00  0.00     0.198 C 
HETATM   20  O2  UNL     1      26.527   1.743  52.724  1.00  0.00    -0.317 OA
HETATM   21  H11 UNL     1      24.401   0.482  51.576  1.00  0.00     0.159 HD
ENDROOT
TORSDOF 0
ENDMDL
MODEL 3
REMARK VINA RESULT:      -8.3      2.595      4.768
REMARK  0 active torsions:
REMARK  status: ('A' for Active; 'I' for Inactive)
ROOT
HETATM    1  O1  UNL     1      25.820  -0.672  53.185  1.00  0.00    -0.260 OA
HETATM    2  C1  UNL     1      24.680  -0.187  53.065  1.00  0.00     0.282 C 
HETATM    3  C2  UNL     1      23.205  -0.120  53.173  1.00  0.00     0.083 C 
HETATM    4  C3  UNL     1      22.123   0.615  52.915  1.00  0.00     0.017 C 
HETATM    5  C4  UNL     1      22.837   1.722  52.298  1.00  0.00    -0.036 A 
HETATM    6  C5  UNL     1      23.270   2.836  52.974  1.00  0.00     0.012 A 
HETATM    7  C6  UNL     1      23.969   3.800  52.287  1.00  0.00     0.013 A 
HETATM    8  C7  UNL     1      24.206   3.607  50.952  1.00  0.00    -0.024 A 
HETATM    9  C8  UNL     1      23.794   2.512  50.220  1.00  0.00     0.013 A 
HETATM   10  C9  UNL     1      23.090   1.550  50.930  1.00  0.00     0.012 A 
HETATM   11  C10 UNL     1      25.026   4.494  50.095  1.00  0.00     0.001 A 
HETATM   12  C11 UNL     1      24.818   5.735  49.540  1.00  0.00     0.014 A 
HETATM   13  C12 UNL     1      25.811   6.285  48.777  1.00  0.00     0.001 A 
HETATM   14  C13 UNL     1      26.998   5.630  48.559  1.00  0.00     0.002 A 
HETATM   15  C14 UNL     1      27.242   4.390  49.097  1.00  0.00     0.030 A 
HETATM   16  C15 UNL     1      26.259   3.822  49.864  1.00  0.00     0.039 A 
HETATM   17  N1  UNL     1      26.427   2.515  50.475  1.00  0.00    -0.387 N 
HETATM   18  C16 UNL     1      27.061   2.322  51.757  1.00  0.00     0.146 C 
HETATM   19  C17 UNL     1      26.733   0.935  52.354  1.00  0.00     0.198 C 
HETATM   20  O2  UNL     1      25.333   0.875  52.513  1.00  0.00    -0.317 OA
HETATM   21  H11 UNL     1      26.093   1.638  50.010  1.00  0.00     0.159 HD
ENDROOT
TORSDOF 0
ENDMDL
MODEL 4
REMARK VINA RESULT:      -8.2      2.237      3.457
REMARK  0 active torsions:
REMARK  status: ('A' for Active; 'I' for Inactive)
ROOT
HETATM    1  O1  UNL     1      24.218   4.575  48.919  1.00  0.00    -0.260 OA
HETATM    2  C1  UNL     1      23.413   4.167  49.778  1.00  0.00     0.282 C 
HETATM    3  C2  UNL     1      22.115   4.025  50.476  1.00  0.00     0.083 C 
HETATM    4  C3  UNL     1      21.484   3.457  51.504  1.00  0.00     0.017 C 
HETATM    5  C4  UNL     1      22.647   2.758  52.026  1.00  0.00    -0.036 A 
HETATM    6  C5  UNL     1      22.988   1.470  51.695  1.00  0.00     0.012 A 
HETATM    7  C6  UNL     1      24.134   0.928  52.225  1.00  0.00     0.013 A 
HETATM    8  C7  UNL     1      24.892   1.700  53.065  1.00  0.00    -0.024 A 
HETATM    9  C8  UNL     1      24.599   2.997  53.436  1.00  0.00     0.013 A 
HETATM   10  C9  UNL     1      23.439   3.526  52.891  1.00  0.00     0.012 A 
HETATM   11  C10 UNL     1      26.200   1.306  53.637  1.00  0.00     0.001 A 
HETATM   12  C11 UNL     1      26.577   0.438  54.634  1.00  0.00     0.014 A 
HETATM   13  C12 UNL     1      27.909   0.308  54.920  1.00  0.00     0.001 A 
HETATM   14  C13 UNL     1      28.864   1.018  54.236  1.00  0.00     0.002 A 
HETATM   15  C14 UNL     1      28.526   1.894  53.233  1.00  0.00     0.030 A 
HETATM   16  C15 UNL     1      27.197   2.039  52.933  1.00  0.00     0.039 A 
HETATM   17  N1  UNL     1      26.745   2.941  51.889  1.00  0.00    -0.387 N 
HETATM   18  C16 UNL     1      26.663   2.558  50.500  1.00  0.00     0.146 C 
HETATM   19  C17 UNL     1      25.771   3.526  49.690  1.00  0.00     0.198 C 
HETATM   20  O2  UNL     1      24.483   3.478  50.264  1.00  0.00    -0.317 OA
HETATM   21  H11 UNL     1      26.452   3.926  52.094  1.00  0.00     0.159 HD
ENDROOT
TORSDOF 0
ENDMDL
MODEL 5
REMARK VINA RESULT:      -8.0      2.685      4.251
REMARK  0 active torsions:
REMARK  status: ('A' for Active; 'I' for Inactive)
ROOT
HETATM    1  O1  UNL     1      25.234   6.349  49.498  1.00  0.00    -0.260 OA
HETATM    2  C1  UNL     1      24.203   6.044  50.127  1.00  0.00     0.282 C 
HETATM    3  C2  UNL     1      22.857   6.227  50.714  1.00  0.00     0.083 C 
HETATM    4  C3  UNL     1      21.892   5.654  51.434  1.00  0.00     0.017 C 
HETATM    5  C4  UNL     1      22.584   4.391  51.634  1.00  0.00    -0.036 A 
HETATM    6  C5  UNL     1      22.444   3.295  50.819  1.00  0.00     0.012 A 
HETATM    7  C6  UNL     1      23.180   2.167  51.089  1.00  0.00     0.013 A 
HETATM    8  C7  UNL     1      24.029   2.184  52.164  1.00  0.00    -0.024 A 
HETATM    9  C8  UNL     1      24.209   3.252  53.019  1.00  0.00     0.013 A 
HETATM   10  C9  UNL     1      23.457   4.381  52.731  1.00  0.00     0.012 A 
HETATM   11  C10 UNL     1      24.963   1.095  52.530  1.00  0.00     0.001 A 
HETATM   12  C11 UNL     1      24.798  -0.145  53.101  1.00  0.00     0.014 A 
HETATM   13  C12 UNL     1      25.905  -0.923  53.308  1.00  0.00     0.001 A 
HETATM   14  C13 UNL     1      27.162  -0.493  52.960  1.00  0.00     0.002 A 
HETATM   15  C14 UNL     1      27.366   0.738  52.387  1.00  0.00     0.030 A 
HETATM   16  C15 UNL     1      26.270   1.532  52.172  1.00  0.00     0.039 A 
HETATM   17  N1  UNL     1      26.387   2.850  51.572  1.00  0.00    -0.387 N 
HETATM   18  C16 UNL     1      26.395   3.065  50.145  1.00  0.00     0.146 C 
HETATM   19  C17 UNL     1      26.101   4.540  49.788  1.00  0.00     0.198 C 
HETATM   20  O2  UNL     1      24.821   4.841  50.298  1.00  0.00    -0.317 OA
HETATM   21  H11 UNL     1      26.473   3.718  52.151  1.00  0.00     0.159 HD
ENDROOT
TORSDOF 0
ENDMDL
MODEL 6
REMARK VINA RESULT:      -8.0      2.051      5.233
REMARK  0 active torsions:
REMARK  status: ('A' for Active; 'I' for Inactive)
ROOT
HETATM    1  O1  UNL     1      29.077  -1.450  53.706  1.00  0.00    -0.260 OA
HETATM    2  C1  UNL     1      28.981  -0.208  53.679  1.00  0.00     0.282 C 
HETATM    3  C2  UNL     1      29.417   1.199  53.823  1.00  0.00     0.083 C 
HETATM    4  C3  UNL     1      29.043   2.475  53.721  1.00  0.00     0.017 C 
HETATM    5  C4  UNL     1      27.676   2.197  53.311  1.00  0.00    -0.036 A 
HETATM    6  C5  UNL     1      27.263   2.110  52.004  1.00  0.00     0.012 A 
HETATM    7  C6  UNL     1      25.949   1.805  51.741  1.00  0.00     0.013 A 
HETATM    8  C7  UNL     1      25.103   1.598  52.798  1.00  0.00    -0.024 A 
HETATM    9  C8  UNL     1      25.459   1.675  54.129  1.00  0.00     0.013 A 
HETATM   10  C9  UNL     1      26.788   1.985  54.375  1.00  0.00     0.012 A 
HETATM   11  C10 UNL     1      23.692   1.164  52.688  1.00  0.00     0.001 A 
HETATM   12  C11 UNL     1      22.531   1.797  52.311  1.00  0.00     0.014 A 
HETATM   13  C12 UNL     1      21.363   1.083  52.323  1.00  0.00     0.001 A 
HETATM   14  C13 UNL     1      21.329  -0.236  52.700  1.00  0.00     0.002 A 
HETATM   15  C14 UNL     1      22.468  -0.902  53.082  1.00  0.00     0.030 A 
HETATM   16  C15 UNL     1      23.648  -0.205  53.077  1.00  0.00     0.039 A 
HETATM   17  N1  UNL     1      24.903  -0.825  53.465  1.00  0.00    -0.387 N 
HETATM   18  C16 UNL     1      25.733  -1.563  52.543  1.00  0.00     0.146 C 
HETATM   19  C17 UNL     1      27.170  -1.739  53.084  1.00  0.00     0.198 C 
HETATM   20  O2  UNL     1      27.706  -0.446  53.262  1.00  0.00    -0.317 OA
HETATM   21  H11 UNL     1      25.272  -0.766  54.444  1.00  0.00     0.159 HD
ENDROOT
TORSDOF 0
ENDMDL
MODEL 7
REMARK VINA RESULT:      -8.0      4.085      5.634
REMARK  0 active torsions:
REMARK  status: ('A' for Active; 'I' for Inactive)
ROOT
HETATM    1  O1  UNL     1      19.469   4.780  49.353  1.00  0.00    -0.260 OA
HETATM    2  C1  UNL     1      20.346   4.093  48.796  1.00  0.00     0.282 C 
HETATM    3  C2  UNL     1      21.179   3.580  47.685  1.00  0.00     0.083 C 
HETATM    4  C3  UNL     1      22.150   2.730  47.350  1.00  0.00     0.017 C 
HETATM    5  C4  UNL     1      22.341   2.187  48.685  1.00  0.00    -0.036 A 
HETATM    6  C5  UNL     1      23.254   2.665  49.592  1.00  0.00     0.012 A 
HETATM    7  C6  UNL     1      23.316   2.092  50.839  1.00  0.00     0.013 A 
HETATM    8  C7  UNL     1      22.459   1.063  51.128  1.00  0.00    -0.024 A 
HETATM    9  C8  UNL     1      21.524   0.539  50.258  1.00  0.00     0.013 A 
HETATM   10  C9  UNL     1      21.477   1.130  49.005  1.00  0.00     0.012 A 
HETATM   11  C10 UNL     1      22.326   0.409  52.450  1.00  0.00     0.001 A 
HETATM   12  C11 UNL     1      23.105  -0.484  53.149  1.00  0.00     0.014 A 
HETATM   13  C12 UNL     1      22.677  -0.900  54.380  1.00  0.00     0.001 A 
HETATM   14  C13 UNL     1      21.502  -0.447  54.925  1.00  0.00     0.002 A 
HETATM   15  C14 UNL     1      20.699   0.446  54.258  1.00  0.00     0.030 A 
HETATM   16  C15 UNL     1      21.109   0.873  53.022  1.00  0.00     0.039 A 
HETATM   17  N1  UNL     1      20.326   1.816  52.242  1.00  0.00    -0.387 N 
HETATM   18  C16 UNL     1      20.438   3.247  52.394  1.00  0.00     0.146 C 
HETATM   19  C17 UNL     1      19.838   4.000  51.186  1.00  0.00     0.198 C 
HETATM   20  O2  UNL     1      20.562   3.594  50.045  1.00  0.00    -0.317 OA
HETATM   21  H11 UNL     1      19.634   1.501  51.522  1.00  0.00     0.159 HD
ENDROOT
TORSDOF 0
ENDMDL
MODEL 8
REMARK VINA RESULT:      -7.8      2.419      4.033
REMARK  0 active torsions:
REMARK  status: ('A' for Active; 'I' for Inactive)
ROOT
HETATM    1  O1  UNL     1      18.548  -1.702  53.476  1.00  0.00    -0.260 OA
HETATM    2  C1  UNL     1      18.591  -0.778  52.642  1.00  0.00     0.282 C 
HETATM    3  C2  UNL     1      18.115   0.097  51.547  1.00  0.00     0.083 C 
HETATM    4  C3  UNL     1      18.427   1.123  50.754  1.00  0.00     0.017 C 
HETATM    5  C4  UNL     1      19.757   1.336  51.301  1.00  0.00    -0.036 A 
HETATM    6  C5  UNL     1      20.044   2.208  52.322  1.00  0.00     0.012 A 
HETATM    7  C6  UNL     1      21.337   2.295  52.779  1.00  0.00     0.013 A 
HETATM    8  C7  UNL     1      22.290   1.502  52.196  1.00  0.00    -0.024 A 
HETATM    9  C8  UNL     1      22.062   0.611  51.166  1.00  0.00     0.013 A 
HETATM   10  C9  UNL     1      20.752   0.538  50.718  1.00  0.00     0.012 A 
HETATM   11  C10 UNL     1      23.699   1.400  52.636  1.00  0.00     0.001 A 
HETATM   12  C11 UNL     1      24.792   2.227  52.521  1.00  0.00     0.014 A 
HETATM   13  C12 UNL     1      25.983   1.816  53.054  1.00  0.00     0.001 A 
HETATM   14  C13 UNL     1      26.106   0.609  53.696  1.00  0.00     0.002 A 
HETATM   15  C14 UNL     1      25.037  -0.244  53.831  1.00  0.00     0.030 A 
HETATM   16  C15 UNL     1      23.836   0.150  53.303  1.00  0.00     0.039 A 
HETATM   17  N1  UNL     1      22.650  -0.685  53.397  1.00  0.00    -0.387 N 
HETATM   18  C16 UNL     1      21.764  -0.665  54.536  1.00  0.00     0.146 C 
HETATM   19  C17 UNL     1      20.395  -1.301  54.207  1.00  0.00     0.198 C 
HETATM   20  O2  UNL     1      19.828  -0.542  53.162  1.00  0.00    -0.317 OA
HETATM   21  H11 UNL     1      22.377  -1.349  52.635  1.00  0.00     0.159 HD
ENDROOT
TORSDOF 0
ENDMDL
MODEL 9
REMARK VINA RESULT:      -7.8      2.587      4.220
REMARK  0 active torsions:
REMARK  status: ('A' for Active; 'I' for Inactive)
ROOT
HETATM    1  O1  UNL     1      22.297  -1.465  54.560  1.00  0.00    -0.260 OA
HETATM    2  C1  UNL     1      21.433  -0.898  53.866  1.00  0.00     0.282 C 
HETATM    3  C2  UNL     1      20.093  -0.644  53.291  1.00  0.00     0.083 C 
HETATM    4  C3  UNL     1      19.388   0.125  52.460  1.00  0.00     0.017 C 
HETATM    5  C4  UNL     1      20.501   0.967  52.055  1.00  0.00    -0.036 A 
HETATM    6  C5  UNL     1      20.833   2.155  52.660  1.00  0.00     0.012 A 
HETATM    7  C6  UNL     1      21.932   2.845  52.210  1.00  0.00     0.013 A 
HETATM    8  C7  UNL     1      22.655   2.318  51.173  1.00  0.00    -0.024 A 
HETATM    9  C8  UNL     1      22.369   1.133  50.525  1.00  0.00     0.013 A 
HETATM   10  C9  UNL     1      21.256   0.451  50.993  1.00  0.00     0.012 A 
HETATM   11  C10 UNL     1      23.917   2.880  50.641  1.00  0.00     0.001 A 
HETATM   12  C11 UNL     1      24.213   3.970  49.856  1.00  0.00     0.014 A 
HETATM   13  C12 UNL     1      25.522   4.211  49.538  1.00  0.00     0.001 A 
HETATM   14  C13 UNL     1      26.533   3.396  49.984  1.00  0.00     0.002 A 
HETATM   15  C14 UNL     1      26.276   2.299  50.770  1.00  0.00     0.030 A 
HETATM   16  C15 UNL     1      24.971   2.041  51.098  1.00  0.00     0.039 A 
HETATM   17  N1  UNL     1      24.603   0.904  51.925  1.00  0.00    -0.387 N 
HETATM   18  C16 UNL     1      24.597   0.951  53.367  1.00  0.00     0.146 C 
HETATM   19  C17 UNL     1      23.777  -0.211  53.974  1.00  0.00     0.198 C 
HETATM   20  O2  UNL     1      22.456  -0.076  53.498  1.00  0.00    -0.317 OA
HETATM   21  H11 UNL     1      24.320  -0.015  51.511  1.00  0.00     0.159 HD
ENDROOT
TORSDOF 0
ENDMDL
