MODEL 1
REMARK VINA RESULT:      -9.7      0.000      0.000
REMARK  3 active torsions:
REMARK  status: ('A' for Active; 'I' for Inactive)
REMARK    1  A    between atoms: C9_11  and  N2_12 
REMARK    2  A    between atoms: N2_12  and  C10_13 
REMARK    3  A    between atoms: C14_17  and  C15_18 
ROOT
HETATM    1  F1  UNL     1      30.616  -0.264  53.538  1.00  0.00    -0.206 F 
HETATM    2  C1  UNL     1      29.262  -0.348  53.460  1.00  0.00     0.117 A 
HETATM    3  C2  UNL     1      28.636  -1.554  53.131  1.00  0.00     0.045 A 
HETATM    4  C3  UNL     1      27.265  -1.536  53.073  1.00  0.00     0.041 A 
HETATM    5  C4  UNL     1      26.567  -0.362  53.333  1.00  0.00     0.086 A 
HETATM    6  C5  UNL     1      27.213   0.806  53.655  1.00  0.00    -0.004 A 
HETATM    7  C6  UNL     1      28.615   0.844  53.728  1.00  0.00     0.054 A 
HETATM    8  C7  UNL     1      26.680   2.154  53.972  1.00  0.00     0.161 C 
HETATM    9  N1  UNL     1      25.596   2.554  53.068  1.00  0.00    -0.379 N 
HETATM   10  C8  UNL     1      24.433   1.765  52.840  1.00  0.00     0.129 A 
HETATM   11  C9  UNL     1      23.353   2.567  52.514  1.00  0.00     0.160 A 
HETATM   12  N4  UNL     1      22.156   1.973  52.270  1.00  0.00    -0.222 NA
HETATM   13  C21 UNL     1      21.980   0.636  52.335  1.00  0.00     0.238 A 
HETATM   14  N5  UNL     1      23.026  -0.148  52.651  1.00  0.00    -0.215 NA
HETATM   15  C22 UNL     1      24.253   0.379  52.907  1.00  0.00     0.202 A 
HETATM   16  O1  UNL     1      25.195  -0.596  53.213  1.00  0.00    -0.289 OA
HETATM   17  H6  UNL     1      25.514   3.438  52.486  1.00  0.00     0.160 HD
ENDROOT
BRANCH  11  18
HETATM   18  N2  UNL     1      23.412   4.003  52.397  1.00  0.00    -0.339 N 
HETATM   19  H7  UNL     1      23.280   4.737  53.146  1.00  0.00     0.167 HD
BRANCH  18  20
HETATM   20  C10 UNL     1      23.689   4.498  51.077  1.00  0.00     0.034 A 
HETATM   21  C11 UNL     1      22.638   4.543  50.157  1.00  0.00     0.029 A 
HETATM   22  C12 UNL     1      22.892   5.032  48.866  1.00  0.00     0.003 A 
HETATM   23  C13 UNL     1      24.164   5.458  48.530  1.00  0.00     0.012 A 
HETATM   24  C14 UNL     1      25.219   5.425  49.424  1.00  0.00    -0.028 A 
HETATM   25  C20 UNL     1      24.917   4.938  50.670  1.00  0.00     0.041 A 
BRANCH  24  26
HETATM   26  C15 UNL     1      26.535   5.891  49.019  1.00  0.00    -0.045 C 
HETATM   27  C16 UNL     1      27.469   5.043  48.630  1.00  0.00     0.003 C 
HETATM   28  C17 UNL     1      28.842   5.506  48.205  1.00  0.00     0.176 C 
HETATM   29  N3  UNL     1      28.706   6.736  47.464  1.00  0.00    -0.302 NA
HETATM   30  C18 UNL     1      27.801   7.572  47.860  1.00  0.00     0.088 C 
HETATM   31  C19 UNL     1      26.908   7.323  49.028  1.00  0.00     0.085 C 
ENDBRANCH  24  26
ENDBRANCH  18  20
ENDBRANCH  11  18
TORSDOF 3
ENDMDL
MODEL 2
REMARK VINA RESULT:      -9.7      3.087      7.281
REMARK  3 active torsions:
REMARK  status: ('A' for Active; 'I' for Inactive)
REMARK    1  A    between atoms: C9_11  and  N2_12 
REMARK    2  A    between atoms: N2_12  and  C10_13 
REMARK    3  A    between atoms: C14_17  and  C15_18 
ROOT
HETATM    1  F1  UNL     1      28.992   7.596  46.899  1.00  0.00    -0.206 F 
HETATM    2  C1  UNL     1      27.718   7.354  47.304  1.00  0.00     0.117 A 
HETATM    3  C2  UNL     1      26.650   8.096  46.792  1.00  0.00     0.045 A 
HETATM    4  C3  UNL     1      25.402   7.780  47.266  1.00  0.00     0.041 A 
HETATM    5  C4  UNL     1      25.244   6.768  48.207  1.00  0.00     0.086 A 
HETATM    6  C5  UNL     1      26.315   6.058  48.690  1.00  0.00    -0.004 A 
HETATM    7  C6  UNL     1      27.615   6.341  48.238  1.00  0.00     0.054 A 
HETATM    8  C7  UNL     1      26.381   4.951  49.676  1.00  0.00     0.161 C 
HETATM    9  N1  UNL     1      25.525   5.191  50.843  1.00  0.00    -0.379 N 
HETATM   10  C8  UNL     1      24.137   5.492  50.750  1.00  0.00     0.129 A 
HETATM   11  C9  UNL     1      23.463   5.053  51.877  1.00  0.00     0.160 A 
HETATM   12  N4  UNL     1      22.122   5.254  51.949  1.00  0.00    -0.222 NA
HETATM   13  C21 UNL     1      21.423   5.864  50.967  1.00  0.00     0.238 A 
HETATM   14  N5  UNL     1      22.073   6.293  49.870  1.00  0.00    -0.215 NA
HETATM   15  C22 UNL     1      23.414   6.124  49.732  1.00  0.00     0.202 A 
HETATM   16  O1  UNL     1      23.891   6.635  48.531  1.00  0.00    -0.289 OA
HETATM   17  H6  UNL     1      25.790   5.173  51.870  1.00  0.00     0.160 HD
ENDROOT
BRANCH  11  18
HETATM   18  N2  UNL     1      24.093   4.403  52.999  1.00  0.00    -0.339 N 
HETATM   19  H7  UNL     1      24.505   4.835  53.871  1.00  0.00     0.167 HD
BRANCH  18  20
HETATM   20  C10 UNL     1      24.170   2.971  52.913  1.00  0.00     0.034 A 
HETATM   21  C11 UNL     1      23.055   2.280  52.432  1.00  0.00     0.029 A 
HETATM   22  C12 UNL     1      23.118   0.882  52.334  1.00  0.00     0.003 A 
HETATM   23  C13 UNL     1      24.271   0.218  52.710  1.00  0.00     0.012 A 
HETATM   24  C14 UNL     1      25.387   0.879  53.188  1.00  0.00    -0.028 A 
HETATM   25  C20 UNL     1      25.272   2.244  53.264  1.00  0.00     0.041 A 
BRANCH  24  26
HETATM   26  C15 UNL     1      26.575   0.131  53.565  1.00  0.00    -0.045 C 
HETATM   27  C16 UNL     1      27.163  -0.689  52.713  1.00  0.00     0.003 C 
HETATM   28  C17 UNL     1      28.398  -1.475  53.083  1.00  0.00     0.176 C 
HETATM   29  N3  UNL     1      29.245  -0.645  53.904  1.00  0.00    -0.302 NA
HETATM   30  C18 UNL     1      28.665   0.144  54.750  1.00  0.00     0.088 C 
HETATM   31  C19 UNL     1      27.185   0.232  54.910  1.00  0.00     0.085 C 
ENDBRANCH  24  26
ENDBRANCH  18  20
ENDBRANCH  11  18
TORSDOF 3
ENDMDL
MODEL 3
REMARK VINA RESULT:      -9.7      3.475      7.284
REMARK  3 active torsions:
REMARK  status: ('A' for Active; 'I' for Inactive)
REMARK    1  A    between atoms: C9_11  and  N2_12 
REMARK    2  A    between atoms: N2_12  and  C10_13 
REMARK    3  A    between atoms: C14_17  and  C15_18 
ROOT
HETATM    1  F1  UNL     1      24.981   9.022  50.377  1.00  0.00    -0.206 F 
HETATM    2  C1  UNL     1      24.605   7.794  49.934  1.00  0.00     0.117 A 
HETATM    3  C2  UNL     1      24.420   7.549  48.571  1.00  0.00     0.045 A 
HETATM    4  C3  UNL     1      24.037   6.278  48.223  1.00  0.00     0.041 A 
HETATM    5  C4  UNL     1      23.850   5.309  49.203  1.00  0.00     0.086 A 
HETATM    6  C5  UNL     1      24.041   5.582  50.535  1.00  0.00    -0.004 A 
HETATM    7  C6  UNL     1      24.434   6.867  50.945  1.00  0.00     0.054 A 
HETATM    8  C7  UNL     1      23.908   4.716  51.732  1.00  0.00     0.161 C 
HETATM    9  N1  UNL     1      22.706   3.876  51.683  1.00  0.00    -0.379 N 
HETATM   10  C8  UNL     1      22.395   3.014  50.594  1.00  0.00     0.129 A 
HETATM   11  C9  UNL     1      21.648   1.930  51.024  1.00  0.00     0.160 A 
HETATM   12  N4  UNL     1      21.270   1.000  50.109  1.00  0.00    -0.222 NA
HETATM   13  C21 UNL     1      21.593   1.093  48.801  1.00  0.00     0.238 A 
HETATM   14  N5  UNL     1      22.318   2.143  48.377  1.00  0.00    -0.215 NA
HETATM   15  C22 UNL     1      22.730   3.111  49.239  1.00  0.00     0.202 A 
HETATM   16  O1  UNL     1      23.464   4.106  48.605  1.00  0.00    -0.289 OA
HETATM   17  H6  UNL     1      21.936   3.783  52.407  1.00  0.00     0.160 HD
ENDROOT
BRANCH  11  18
HETATM   18  N2  UNL     1      21.225   1.724  52.387  1.00  0.00    -0.339 N 
HETATM   19  H7  UNL     1      20.419   2.166  52.906  1.00  0.00     0.167 HD
BRANCH  18  20
HETATM   20  C10 UNL     1      22.015   0.787  53.137  1.00  0.00     0.034 A 
HETATM   21  C11 UNL     1      21.350  -0.145  53.936  1.00  0.00     0.029 A 
HETATM   22  C12 UNL     1      22.109  -1.071  54.668  1.00  0.00     0.003 A 
HETATM   23  C13 UNL     1      23.489  -1.047  54.585  1.00  0.00     0.012 A 
HETATM   24  C14 UNL     1      24.170  -0.135  53.800  1.00  0.00    -0.028 A 
HETATM   25  C20 UNL     1      23.381   0.747  53.108  1.00  0.00     0.041 A 
BRANCH  24  26
HETATM   26  C15 UNL     1      25.623  -0.158  53.746  1.00  0.00    -0.045 C 
HETATM   27  C16 UNL     1      26.350   0.144  54.807  1.00  0.00     0.003 C 
HETATM   28  C17 UNL     1      27.859   0.125  54.773  1.00  0.00     0.176 C 
HETATM   29  N3  UNL     1      28.289  -0.988  53.963  1.00  0.00    -0.302 NA
HETATM   30  C18 UNL     1      27.584  -1.269  52.915  1.00  0.00     0.088 C 
HETATM   31  C19 UNL     1      26.366  -0.506  52.515  1.00  0.00     0.085 C 
ENDBRANCH  24  26
ENDBRANCH  18  20
ENDBRANCH  11  18
TORSDOF 3
ENDMDL
MODEL 4
REMARK VINA RESULT:      -9.3      3.212      7.306
REMARK  3 active torsions:
REMARK  status: ('A' for Active; 'I' for Inactive)
REMARK    1  A    between atoms: C9_11  and  N2_12 
REMARK    2  A    between atoms: N2_12  and  C10_13 
REMARK    3  A    between atoms: C14_17  and  C15_18 
ROOT
HETATM    1  F1  UNL     1      30.755   6.084  47.358  1.00  0.00    -0.206 F 
HETATM    2  C1  UNL     1      29.464   6.489  47.484  1.00  0.00     0.117 A 
HETATM    3  C2  UNL     1      29.008   7.642  46.837  1.00  0.00     0.045 A 
HETATM    4  C3  UNL     1      27.690   7.971  47.029  1.00  0.00     0.041 A 
HETATM    5  C4  UNL     1      26.879   7.177  47.833  1.00  0.00     0.086 A 
HETATM    6  C5  UNL     1      27.359   6.051  48.455  1.00  0.00    -0.004 A 
HETATM    7  C6  UNL     1      28.700   5.669  48.292  1.00  0.00     0.054 A 
HETATM    8  C7  UNL     1      26.684   5.068  49.338  1.00  0.00     0.161 C 
HETATM    9  N1  UNL     1      25.817   5.712  50.331  1.00  0.00    -0.379 N 
HETATM   10  C8  UNL     1      24.790   6.639  49.994  1.00  0.00     0.129 A 
HETATM   11  C9  UNL     1      23.767   6.599  50.926  1.00  0.00     0.160 A 
HETATM   12  N4  UNL     1      22.699   7.419  50.751  1.00  0.00    -0.222 NA
HETATM   13  C21 UNL     1      22.597   8.268  49.706  1.00  0.00     0.238 A 
HETATM   14  N5  UNL     1      23.587   8.311  48.797  1.00  0.00    -0.215 NA
HETATM   15  C22 UNL     1      24.686   7.518  48.911  1.00  0.00     0.202 A 
HETATM   16  O1  UNL     1      25.589   7.714  47.873  1.00  0.00    -0.289 OA
HETATM   17  H6  UNL     1      25.818   5.591  51.385  1.00  0.00     0.160 HD
ENDROOT
BRANCH  11  18
HETATM   18  N2  UNL     1      23.763   5.749  52.092  1.00  0.00    -0.339 N 
HETATM   19  H7  UNL     1      23.876   6.016  53.108  1.00  0.00     0.167 HD
BRANCH  18  20
HETATM   20  C10 UNL     1      23.580   4.350  51.828  1.00  0.00     0.034 A 
HETATM   21  C11 UNL     1      22.536   3.970  50.981  1.00  0.00     0.029 A 
HETATM   22  C12 UNL     1      22.351   2.606  50.707  1.00  0.00     0.003 A 
HETATM   23  C13 UNL     1      23.197   1.670  51.272  1.00  0.00     0.012 A 
HETATM   24  C14 UNL     1      24.238   2.021  52.113  1.00  0.00    -0.028 A 
HETATM   25  C20 UNL     1      24.374   3.366  52.347  1.00  0.00     0.041 A 
BRANCH  24  26
HETATM   26  C15 UNL     1      25.101   0.996  52.676  1.00  0.00    -0.045 C 
HETATM   27  C16 UNL     1      24.673   0.198  53.637  1.00  0.00     0.003 C 
HETATM   28  C17 UNL     1      25.553  -0.874  54.235  1.00  0.00     0.176 C 
HETATM   29  N3  UNL     1      26.347  -1.460  53.184  1.00  0.00    -0.302 NA
HETATM   30  C18 UNL     1      26.779  -0.670  52.254  1.00  0.00     0.088 C 
HETATM   31  C19 UNL     1      26.494   0.793  52.222  1.00  0.00     0.085 C 
ENDBRANCH  24  26
ENDBRANCH  18  20
ENDBRANCH  11  18
TORSDOF 3
ENDMDL
MODEL 5
REMARK VINA RESULT:      -9.2      3.410      7.708
REMARK  3 active torsions:
REMARK  status: ('A' for Active; 'I' for Inactive)
REMARK    1  A    between atoms: C9_11  and  N2_12 
REMARK    2  A    between atoms: N2_12  and  C10_13 
REMARK    3  A    between atoms: C14_17  and  C15_18 
ROOT
HETATM    1  F1  UNL     1      32.744   8.102  49.246  1.00  0.00    -0.206 F 
HETATM    2  C1  UNL     1      31.395   8.167  49.099  1.00  0.00     0.117 A 
HETATM    3  C2  UNL     1      30.711   9.371  49.284  1.00  0.00     0.045 A 
HETATM    4  C3  UNL     1      29.350   9.335  49.117  1.00  0.00     0.041 A 
HETATM    5  C4  UNL     1      28.716   8.143  48.780  1.00  0.00     0.086 A 
HETATM    6  C5  UNL     1      29.419   6.977  48.605  1.00  0.00    -0.004 A 
HETATM    7  C6  UNL     1      30.814   6.959  48.764  1.00  0.00     0.054 A 
HETATM    8  C7  UNL     1      28.960   5.613  48.245  1.00  0.00     0.161 C 
HETATM    9  N1  UNL     1      27.745   5.222  48.970  1.00  0.00    -0.379 N 
HETATM   10  C8  UNL     1      26.553   5.998  48.980  1.00  0.00     0.129 A 
HETATM   11  C9  UNL     1      25.442   5.189  49.148  1.00  0.00     0.160 A 
HETATM   12  N4  UNL     1      24.215   5.771  49.173  1.00  0.00    -0.222 NA
HETATM   13  C21 UNL     1      24.038   7.104  49.041  1.00  0.00     0.238 A 
HETATM   14  N5  UNL     1      25.114   7.894  48.877  1.00  0.00    -0.215 NA
HETATM   15  C22 UNL     1      26.371   7.379  48.843  1.00  0.00     0.202 A 
HETATM   16  O1  UNL     1      27.340   8.359  48.667  1.00  0.00    -0.289 OA
HETATM   17  H6  UNL     1      27.578   4.353  49.556  1.00  0.00     0.160 HD
ENDROOT
BRANCH  11  18
HETATM   18  N2  UNL     1      25.496   3.758  49.316  1.00  0.00    -0.339 N 
HETATM   19  H7  UNL     1      25.685   3.011  48.593  1.00  0.00     0.167 HD
BRANCH  18  20
HETATM   20  C10 UNL     1      25.260   3.290  50.653  1.00  0.00     0.034 A 
HETATM   21  C11 UNL     1      24.249   3.904  51.396  1.00  0.00     0.029 A 
HETATM   22  C12 UNL     1      24.002   3.451  52.702  1.00  0.00     0.003 A 
HETATM   23  C13 UNL     1      24.753   2.415  53.224  1.00  0.00     0.012 A 
HETATM   24  C14 UNL     1      25.759   1.791  52.508  1.00  0.00    -0.028 A 
HETATM   25  C20 UNL     1      25.959   2.272  51.239  1.00  0.00     0.041 A 
BRANCH  24  26
HETATM   26  C15 UNL     1      26.515   0.703  53.105  1.00  0.00    -0.045 C 
HETATM   27  C16 UNL     1      26.937  -0.314  52.375  1.00  0.00     0.003 C 
HETATM   28  C17 UNL     1      27.725  -1.454  52.975  1.00  0.00     0.176 C 
HETATM   29  N3  UNL     1      28.627  -0.922  53.966  1.00  0.00    -0.302 NA
HETATM   30  C18 UNL     1      28.201   0.062  54.691  1.00  0.00     0.088 C 
HETATM   31  C19 UNL     1      26.843   0.661  54.547  1.00  0.00     0.085 C 
ENDBRANCH  24  26
ENDBRANCH  18  20
ENDBRANCH  11  18
TORSDOF 3
ENDMDL
MODEL 6
REMARK VINA RESULT:      -9.1      3.007      4.742
REMARK  3 active torsions:
REMARK  status: ('A' for Active; 'I' for Inactive)
REMARK    1  A    between atoms: C9_11  and  N2_12 
REMARK    2  A    between atoms: N2_12  and  C10_13 
REMARK    3  A    between atoms: C14_17  and  C15_18 
ROOT
HETATM    1  F1  UNL     1      18.853  -0.530  53.525  1.00  0.00    -0.206 F 
HETATM    2  C1  UNL     1      20.192  -0.337  53.402  1.00  0.00     0.117 A 
HETATM    3  C2  UNL     1      21.061  -0.644  54.453  1.00  0.00     0.045 A 
HETATM    4  C3  UNL     1      22.395  -0.411  54.233  1.00  0.00     0.041 A 
HETATM    5  C4  UNL     1      22.826   0.106  53.016  1.00  0.00     0.086 A 
HETATM    6  C5  UNL     1      21.945   0.396  52.003  1.00  0.00    -0.004 A 
HETATM    7  C6  UNL     1      20.569   0.176  52.175  1.00  0.00     0.054 A 
HETATM    8  C7  UNL     1      22.178   0.939  50.642  1.00  0.00     0.161 C 
HETATM    9  N1  UNL     1      23.142   2.045  50.638  1.00  0.00    -0.379 N 
HETATM   10  C8  UNL     1      24.446   1.951  51.202  1.00  0.00     0.129 A 
HETATM   11  C9  UNL     1      25.325   2.798  50.548  1.00  0.00     0.160 A 
HETATM   12  N4  UNL     1      26.620   2.828  50.957  1.00  0.00    -0.222 NA
HETATM   13  C21 UNL     1      27.080   2.066  51.973  1.00  0.00     0.238 A 
HETATM   14  N5  UNL     1      26.231   1.241  52.611  1.00  0.00    -0.215 NA
HETATM   15  C22 UNL     1      24.922   1.161  52.254  1.00  0.00     0.202 A 
HETATM   16  O1  UNL     1      24.215   0.254  53.034  1.00  0.00    -0.289 OA
HETATM   17  H6  UNL     1      23.026   3.020  50.236  1.00  0.00     0.160 HD
ENDROOT
BRANCH  11  18
HETATM   18  N2  UNL     1      24.956   3.673  49.462  1.00  0.00    -0.339 N 
HETATM   19  H7  UNL     1      24.424   3.446  48.578  1.00  0.00     0.167 HD
BRANCH  18  20
HETATM   20  C10 UNL     1      25.372   5.039  49.610  1.00  0.00     0.034 A 
HETATM   21  C11 UNL     1      24.653   5.856  50.486  1.00  0.00     0.029 A 
HETATM   22  C12 UNL     1      25.054   7.192  50.646  1.00  0.00     0.003 A 
HETATM   23  C13 UNL     1      26.143   7.672  49.944  1.00  0.00     0.012 A 
HETATM   24  C14 UNL     1      26.871   6.883  49.072  1.00  0.00    -0.028 A 
HETATM   25  C20 UNL     1      26.437   5.587  48.951  1.00  0.00     0.041 A 
BRANCH  24  26
HETATM   26  C15 UNL     1      28.012   7.438  48.362  1.00  0.00    -0.045 C 
HETATM   27  C16 UNL     1      28.212   8.743  48.307  1.00  0.00     0.003 C 
HETATM   28  C17 UNL     1      29.390   9.340  47.576  1.00  0.00     0.176 C 
HETATM   29  N3  UNL     1      30.540   8.496  47.786  1.00  0.00    -0.302 NA
HETATM   30  C18 UNL     1      30.342   7.217  47.821  1.00  0.00     0.088 C 
HETATM   31  C19 UNL     1      28.999   6.590  47.658  1.00  0.00     0.085 C 
ENDBRANCH  24  26
ENDBRANCH  18  20
ENDBRANCH  11  18
TORSDOF 3
ENDMDL
MODEL 7
REMARK VINA RESULT:      -8.9      2.571      3.663
REMARK  3 active torsions:
REMARK  status: ('A' for Active; 'I' for Inactive)
REMARK    1  A    between atoms: C9_11  and  N2_12 
REMARK    2  A    between atoms: N2_12  and  C10_13 
REMARK    3  A    between atoms: C14_17  and  C15_18 
ROOT
HETATM    1  F1  UNL     1      29.863  -1.290  53.252  1.00  0.00    -0.206 F 
HETATM    2  C1  UNL     1      28.537  -0.999  53.192  1.00  0.00     0.117 A 
HETATM    3  C2  UNL     1      27.606  -1.972  52.816  1.00  0.00     0.045 A 
HETATM    4  C3  UNL     1      26.292  -1.580  52.781  1.00  0.00     0.041 A 
HETATM    5  C4  UNL     1      25.939  -0.275  53.108  1.00  0.00     0.086 A 
HETATM    6  C5  UNL     1      26.879   0.656  53.474  1.00  0.00    -0.004 A 
HETATM    7  C6  UNL     1      28.239   0.308  53.526  1.00  0.00     0.054 A 
HETATM    8  C7  UNL     1      26.734   2.080  53.864  1.00  0.00     0.161 C 
HETATM    9  N1  UNL     1      25.796   2.804  52.998  1.00  0.00    -0.379 N 
HETATM   10  C8  UNL     1      24.462   2.373  52.752  1.00  0.00     0.129 A 
HETATM   11  C9  UNL     1      23.639   3.453  52.482  1.00  0.00     0.160 A 
HETATM   12  N4  UNL     1      22.325   3.219  52.230  1.00  0.00    -0.222 NA
HETATM   13  C21 UNL     1      21.793   1.978  52.233  1.00  0.00     0.238 A 
HETATM   14  N5  UNL     1      22.588   0.925  52.495  1.00  0.00    -0.215 NA
HETATM   15  C22 UNL     1      23.912   1.086  52.755  1.00  0.00     0.202 A 
HETATM   16  O1  UNL     1      24.555  -0.122  52.999  1.00  0.00    -0.289 OA
HETATM   17  H6  UNL     1      25.956   3.705  52.461  1.00  0.00     0.160 HD
ENDROOT
BRANCH  11  18
HETATM   18  N2  UNL     1      24.087   4.824  52.433  1.00  0.00    -0.339 N 
HETATM   19  H7  UNL     1      24.506   5.413  53.203  1.00  0.00     0.167 HD
BRANCH  18  20
HETATM   20  C10 UNL     1      23.937   5.470  51.159  1.00  0.00     0.034 A 
HETATM   21  C11 UNL     1      24.719   5.015  50.094  1.00  0.00     0.029 A 
HETATM   22  C12 UNL     1      24.577   5.631  48.841  1.00  0.00     0.003 A 
HETATM   23  C13 UNL     1      23.675   6.667  48.683  1.00  0.00     0.012 A 
HETATM   24  C14 UNL     1      22.890   7.135  49.721  1.00  0.00    -0.028 A 
HETATM   25  C20 UNL     1      23.069   6.498  50.923  1.00  0.00     0.041 A 
BRANCH  24  26
HETATM   26  C15 UNL     1      21.954   8.224  49.498  1.00  0.00    -0.045 C 
HETATM   27  C16 UNL     1      22.287   9.269  48.761  1.00  0.00     0.003 C 
HETATM   28  C17 UNL     1      21.330  10.410  48.515  1.00  0.00     0.176 C 
HETATM   29  N3  UNL     1      20.001   9.873  48.351  1.00  0.00    -0.302 NA
HETATM   30  C18 UNL     1      19.674   8.860  49.089  1.00  0.00     0.088 C 
HETATM   31  C19 UNL     1      20.595   8.236  50.082  1.00  0.00     0.085 C 
ENDBRANCH  24  26
ENDBRANCH  18  20
ENDBRANCH  11  18
TORSDOF 3
ENDMDL
MODEL 8
REMARK VINA RESULT:      -8.7      4.013      8.188
REMARK  3 active torsions:
REMARK  status: ('A' for Active; 'I' for Inactive)
REMARK    1  A    between atoms: C9_11  and  N2_12 
REMARK    2  A    between atoms: N2_12  and  C10_13 
REMARK    3  A    between atoms: C14_17  and  C15_18 
ROOT
HETATM    1  F1  UNL     1      30.829   9.157  48.341  1.00  0.00    -0.206 F 
HETATM    2  C1  UNL     1      29.534   8.972  48.707  1.00  0.00     0.117 A 
HETATM    3  C2  UNL     1      28.809   9.996  49.325  1.00  0.00     0.045 A 
HETATM    4  C3  UNL     1      27.510   9.711  49.660  1.00  0.00     0.041 A 
HETATM    5  C4  UNL     1      26.974   8.457  49.387  1.00  0.00     0.086 A 
HETATM    6  C5  UNL     1      27.713   7.472  48.779  1.00  0.00    -0.004 A 
HETATM    7  C6  UNL     1      29.048   7.712  48.414  1.00  0.00     0.054 A 
HETATM    8  C7  UNL     1      27.351   6.087  48.392  1.00  0.00     0.161 C 
HETATM    9  N1  UNL     1      26.582   5.398  49.435  1.00  0.00    -0.379 N 
HETATM   10  C8  UNL     1      25.388   5.922  50.006  1.00  0.00     0.129 A 
HETATM   11  C9  UNL     1      24.558   4.899  50.431  1.00  0.00     0.160 A 
HETATM   12  N4  UNL     1      23.367   5.226  50.997  1.00  0.00    -0.222 NA
HETATM   13  C21 UNL     1      22.964   6.505  51.159  1.00  0.00     0.238 A 
HETATM   14  N5  UNL     1      23.766   7.502  50.747  1.00  0.00    -0.215 NA
HETATM   15  C22 UNL     1      24.972   7.247  50.173  1.00  0.00     0.202 A 
HETATM   16  O1  UNL     1      25.646   8.410  49.819  1.00  0.00    -0.289 OA
HETATM   17  H6  UNL     1      26.782   4.460  49.891  1.00  0.00     0.160 HD
ENDROOT
BRANCH  11  18
HETATM   18  N2  UNL     1      24.878   3.497  50.330  1.00  0.00    -0.339 N 
HETATM   19  H7  UNL     1      25.823   3.037  50.229  1.00  0.00     0.167 HD
BRANCH  18  20
HETATM   20  C10 UNL     1      23.750   2.608  50.373  1.00  0.00     0.034 A 
HETATM   21  C11 UNL     1      22.992   2.450  49.210  1.00  0.00     0.029 A 
HETATM   22  C12 UNL     1      21.893   1.578  49.235  1.00  0.00     0.003 A 
HETATM   23  C13 UNL     1      21.581   0.897  50.396  1.00  0.00     0.012 A 
HETATM   24  C14 UNL     1      22.316   1.036  51.560  1.00  0.00    -0.028 A 
HETATM   25  C20 UNL     1      23.379   1.900  51.481  1.00  0.00     0.041 A 
BRANCH  24  26
HETATM   26  C15 UNL     1      21.947   0.291  52.752  1.00  0.00    -0.045 C 
HETATM   27  C16 UNL     1      20.744  -0.239  52.879  1.00  0.00     0.003 C 
HETATM   28  C17 UNL     1      20.341  -1.017  54.109  1.00  0.00     0.176 C 
HETATM   29  N3  UNL     1      21.468  -1.802  54.550  1.00  0.00    -0.302 NA
HETATM   30  C18 UNL     1      22.643  -1.271  54.439  1.00  0.00     0.088 C 
HETATM   31  C19 UNL     1      22.878   0.094  53.885  1.00  0.00     0.085 C 
ENDBRANCH  24  26
ENDBRANCH  18  20
ENDBRANCH  11  18
TORSDOF 3
ENDMDL
MODEL 9
REMARK VINA RESULT:      -8.7      4.559      7.525
REMARK  3 active torsions:
REMARK  status: ('A' for Active; 'I' for Inactive)
REMARK    1  A    between atoms: C9_11  and  N2_12 
REMARK    2  A    between atoms: N2_12  and  C10_13 
REMARK    3  A    between atoms: C14_17  and  C15_18 
ROOT
HETATM    1  F1  UNL     1      17.595  -3.177  54.101  1.00  0.00    -0.206 F 
HETATM    2  C1  UNL     1      17.694  -2.017  53.402  1.00  0.00     0.117 A 
HETATM    3  C2  UNL     1      16.569  -1.441  52.804  1.00  0.00     0.045 A 
HETATM    4  C3  UNL     1      16.772  -0.272  52.117  1.00  0.00     0.041 A 
HETATM    5  C4  UNL     1      18.044   0.285  52.038  1.00  0.00     0.086 A 
HETATM    6  C5  UNL     1      19.128  -0.307  52.637  1.00  0.00    -0.004 A 
HETATM    7  C6  UNL     1      18.977  -1.505  53.353  1.00  0.00     0.054 A 
HETATM    8  C7  UNL     1      20.553   0.105  52.688  1.00  0.00     0.161 C 
HETATM    9  N1  UNL     1      21.045   0.578  51.389  1.00  0.00    -0.379 N 
HETATM   10  C8  UNL     1      20.412   1.607  50.637  1.00  0.00     0.129 A 
HETATM   11  C9  UNL     1      21.335   2.283  49.857  1.00  0.00     0.160 A 
HETATM   12  N4  UNL     1      20.899   3.306  49.078  1.00  0.00    -0.222 NA
HETATM   13  C21 UNL     1      19.604   3.689  49.036  1.00  0.00     0.238 A 
HETATM   14  N5  UNL     1      18.703   3.036  49.792  1.00  0.00    -0.215 NA
HETATM   15  C22 UNL     1      19.071   2.002  50.595  1.00  0.00     0.202 A 
HETATM   16  O1  UNL     1      17.995   1.464  51.291  1.00  0.00    -0.289 OA
HETATM   17  H6  UNL     1      21.897   0.249  50.847  1.00  0.00     0.160 HD
ENDROOT
BRANCH  11  18
HETATM   18  N2  UNL     1      22.740   1.963  49.799  1.00  0.00    -0.339 N 
HETATM   19  H7  UNL     1      23.301   1.577  48.992  1.00  0.00     0.167 HD
BRANCH  18  20
HETATM   20  C10 UNL     1      23.472   2.205  51.011  1.00  0.00     0.034 A 
HETATM   21  C11 UNL     1      23.244   3.405  51.690  1.00  0.00     0.029 A 
HETATM   22  C12 UNL     1      23.946   3.650  52.880  1.00  0.00     0.003 A 
HETATM   23  C13 UNL     1      24.840   2.711  53.358  1.00  0.00     0.012 A 
HETATM   24  C14 UNL     1      25.082   1.516  52.705  1.00  0.00    -0.028 A 
HETATM   25  C20 UNL     1      24.371   1.326  51.547  1.00  0.00     0.041 A 
BRANCH  24  26
HETATM   26  C15 UNL     1      26.029   0.560  53.255  1.00  0.00    -0.045 C 
HETATM   27  C16 UNL     1      26.587  -0.363  52.493  1.00  0.00     0.003 C 
HETATM   28  C17 UNL     1      27.574  -1.364  53.043  1.00  0.00     0.176 C 
HETATM   29  N3  UNL     1      28.412  -0.702  54.012  1.00  0.00    -0.302 NA
HETATM   30  C18 UNL     1      27.857   0.189  54.769  1.00  0.00     0.088 C 
HETATM   31  C19 UNL     1      26.414   0.556  54.684  1.00  0.00     0.085 C 
ENDBRANCH  24  26
ENDBRANCH  18  20
ENDBRANCH  11  18
TORSDOF 3
ENDMDL
