MODEL 1
REMARK VINA RESULT:      -8.4      0.000      0.000
REMARK  4 active torsions:
REMARK  status: ('A' for Active; 'I' for Inactive)
REMARK    1  A    between atoms: C12_17  and  N4_18 
REMARK    2  A    between atoms: N4_18  and  C13_19 
REMARK    3  A    between atoms: C14_20  and  C15_21 
REMARK    4  A    between atoms: C16_22  and  C17_23 
ROOT
HETATM    1  O1  UNL     1      25.150   4.821  49.872  1.00  0.00     0.000 OA
HETATM    2  C1  UNL     1      25.890   3.896  49.997  1.00  0.00     0.005 A 
HETATM    3  C2  UNL     1      25.463   5.638  50.115  1.00  0.00     0.061 A 
HETATM    4  C3  UNL     1      25.165   6.756  50.188  1.00  0.00    -0.167 C 
HETATM    5  C4  UNL     1      24.785   8.079  50.273  1.00  0.00     0.111 C 
HETATM    6  C5  UNL     1      23.411   8.150  49.496  1.00  0.00     0.284 C 
HETATM    7  N1  UNL     1      22.544   7.118  49.938  1.00  0.00     0.097 N 
HETATM    8  C6  UNL     1      21.233   7.520  50.414  1.00  0.00     0.299 C 
HETATM    9  C7  UNL     1      20.200   6.695  49.671  1.00  0.00     0.205 C 
HETATM   10  O2  UNL     1      20.484   5.312  49.731  1.00  0.00    -0.352 OA
HETATM   11  C8  UNL     1      21.816   4.878  49.881  1.00  0.00     0.073 C 
HETATM   12  C9  UNL     1      22.252   3.835  50.536  1.00  0.00     0.039 C 
HETATM   13  C10 UNL     1      22.649   2.685  51.268  1.00  0.00     0.171 C 
HETATM   14  N2  UNL     1      21.720   1.596  51.339  1.00  0.00    -0.269 NA
HETATM   15  C11 UNL     1      21.970   0.536  51.975  1.00  0.00     0.230 C 
HETATM   16  N3  UNL     1      23.184   0.372  52.603  1.00  0.00    -0.224 NA
HETATM   17  C12 UNL     1      24.207   1.235  52.589  1.00  0.00     0.137 C 
HETATM   18  C18 UNL     1      24.048   2.331  51.493  1.00  0.00     0.013 C 
HETATM   19  C19 UNL     1      25.313   2.509  50.980  1.00  0.00    -0.012 C 
HETATM   20  C20 UNL     1      25.556   3.284  49.781  1.00  0.00     0.041 A 
HETATM   21  N5  UNL     1      26.296   4.644  50.260  1.00  0.00     0.000 N 
HETATM   22  C21 UNL     1      22.406   5.968  49.073  1.00  0.00     0.336 C 
HETATM   23  H22 UNL     1      27.280   4.255  50.619  1.00  0.00     0.000 HD
ENDROOT
BRANCH  17  24
HETATM   24  N4  UNL     1      25.527   0.930  53.391  1.00  0.00    -0.354 N 
HETATM   25  H12 UNL     1      25.402   1.886  53.699  1.00  0.00     0.166 HD
BRANCH  24  26
HETATM   26  C13 UNL     1      25.713  -0.499  52.928  1.00  0.00     0.063 C 
HETATM   27  C14 UNL     1      27.012  -1.033  52.803  1.00  0.00     0.015 C 
BRANCH  27  28
HETATM   28  C15 UNL     1      27.641   0.160  53.249  1.00  0.00     0.036 C 
HETATM   29  C16 UNL     1      28.843   0.188  53.876  1.00  0.00     0.026 C 
BRANCH  29  30
HETATM   30  C17 UNL     1      29.301   1.525  54.260  1.00  0.00     0.227 C 
HETATM   31  F1  UNL     1      28.370   2.507  53.872  1.00  0.00    -0.255 F 
ENDBRANCH  29  30
ENDBRANCH  27  28
ENDBRANCH  24  26
ENDBRANCH  17  24
TORSDOF 4
ENDMDL
MODEL 2
REMARK VINA RESULT:      -8.3      3.801      5.454
REMARK  4 active torsions:
REMARK  status: ('A' for Active; 'I' for Inactive)
REMARK    1  A    between atoms: C12_17  and  N4_18 
REMARK    2  A    between atoms: N4_18  and  C13_19 
REMARK    3  A    between atoms: C14_20  and  C15_21 
REMARK    4  A    between atoms: C16_22  and  C17_23 
ROOT
HETATM    1  O1  UNL     1      29.316   7.156  48.276  1.00  0.00     0.000 OA
HETATM    2  C1  UNL     1      29.368   5.970  48.371  1.00  0.00     0.005 A 
HETATM    3  C2  UNL     1      29.911   7.637  48.764  1.00  0.00     0.061 A 
HETATM    4  C3  UNL     1      30.242   8.722  49.008  1.00  0.00    -0.167 C 
HETATM    5  C4  UNL     1      30.612  10.020  49.289  1.00  0.00     0.111 C 
HETATM    6  C5  UNL     1      29.830  10.895  48.230  1.00  0.00     0.284 C 
HETATM    7  N1  UNL     1      28.462  10.523  48.202  1.00  0.00     0.097 N 
HETATM    8  C6  UNL     1      27.489  11.579  48.414  1.00  0.00     0.299 C 
HETATM    9  C7  UNL     1      26.491  11.523  47.273  1.00  0.00     0.205 C 
HETATM   10  O2  UNL     1      25.966  10.223  47.092  1.00  0.00    -0.352 OA
HETATM   11  C8  UNL     1      26.732   9.102  47.468  1.00  0.00     0.073 C 
HETATM   12  C9  UNL     1      26.308   7.968  47.962  1.00  0.00     0.039 C 
HETATM   13  C10 UNL     1      25.771   6.767  48.493  1.00  0.00     0.171 C 
HETATM   14  N2  UNL     1      24.447   6.399  48.086  1.00  0.00    -0.269 NA
HETATM   15  C11 UNL     1      23.875   5.359  48.512  1.00  0.00     0.230 C 
HETATM   16  N3  UNL     1      24.532   4.505  49.370  1.00  0.00    -0.224 NA
HETATM   17  C12 UNL     1      25.792   4.632  49.803  1.00  0.00     0.137 C 
HETATM   18  C18 UNL     1      26.607   5.669  48.974  1.00  0.00     0.013 C 
HETATM   19  C19 UNL     1      27.861   5.117  48.845  1.00  0.00    -0.012 C 
HETATM   20  C20 UNL     1      28.856   5.668  47.948  1.00  0.00     0.041 A 
HETATM   21  N5  UNL     1      29.993   6.341  48.886  1.00  0.00     0.000 N 
HETATM   22  C21 UNL     1      28.035   9.695  47.095  1.00  0.00     0.336 C 
HETATM   23  H22 UNL     1      30.440   5.446  49.383  1.00  0.00     0.000 HD
ENDROOT
BRANCH  17  24
HETATM   24  N4  UNL     1      26.401   3.594  50.819  1.00  0.00    -0.354 N 
HETATM   25  H12 UNL     1      27.223   4.174  50.713  1.00  0.00     0.166 HD
BRANCH  24  26
HETATM   26  C13 UNL     1      25.170   2.727  50.976  1.00  0.00     0.063 C 
HETATM   27  C14 UNL     1      25.214   1.591  51.809  1.00  0.00     0.015 C 
BRANCH  27  28
HETATM   28  C15 UNL     1      26.562   1.815  52.194  1.00  0.00     0.036 C 
HETATM   29  C16 UNL     1      27.203   1.092  53.145  1.00  0.00     0.026 C 
BRANCH  29  30
HETATM   30  C17 UNL     1      28.588   1.499  53.392  1.00  0.00     0.227 C 
HETATM   31  F1  UNL     1      28.656   2.856  53.765  1.00  0.00    -0.255 F 
ENDBRANCH  29  30
ENDBRANCH  27  28
ENDBRANCH  24  26
ENDBRANCH  17  24
TORSDOF 4
ENDMDL
MODEL 3
REMARK VINA RESULT:      -8.2      1.649      1.881
REMARK  4 active torsions:
REMARK  status: ('A' for Active; 'I' for Inactive)
REMARK    1  A    between atoms: C12_17  and  N4_18 
REMARK    2  A    between atoms: N4_18  and  C13_19 
REMARK    3  A    between atoms: C14_20  and  C15_21 
REMARK    4  A    between atoms: C16_22  and  C17_23 
ROOT
HETATM    1  O1  UNL     1      26.289   4.919  48.952  1.00  0.00     0.000 OA
HETATM    2  C1  UNL     1      26.732   3.900  49.380  1.00  0.00     0.005 A 
HETATM    3  C2  UNL     1      26.841   5.640  48.943  1.00  0.00     0.061 A 
HETATM    4  C3  UNL     1      26.888   6.763  48.659  1.00  0.00    -0.167 C 
HETATM    5  C4  UNL     1      26.918   8.100  48.321  1.00  0.00     0.111 C 
HETATM    6  C5  UNL     1      25.579   8.336  47.513  1.00  0.00     0.284 C 
HETATM    7  N1  UNL     1      24.478   7.792  48.222  1.00  0.00     0.097 N 
HETATM    8  C6  UNL     1      23.373   8.690  48.506  1.00  0.00     0.299 C 
HETATM    9  C7  UNL     1      22.100   8.024  48.018  1.00  0.00     0.205 C 
HETATM   10  O2  UNL     1      21.970   6.705  48.510  1.00  0.00    -0.352 OA
HETATM   11  C8  UNL     1      23.124   5.963  48.831  1.00  0.00     0.073 C 
HETATM   12  C9  UNL     1      23.276   5.087  49.789  1.00  0.00     0.039 C 
HETATM   13  C10 UNL     1      23.362   4.149  50.851  1.00  0.00     0.171 C 
HETATM   14  N2  UNL     1      22.162   3.460  51.222  1.00  0.00    -0.269 NA
HETATM   15  C11 UNL     1      22.129   2.619  52.161  1.00  0.00     0.230 C 
HETATM   16  N3  UNL     1      23.278   2.301  52.850  1.00  0.00    -0.224 NA
HETATM   17  C12 UNL     1      24.506   2.775  52.605  1.00  0.00     0.137 C 
HETATM   18  C18 UNL     1      24.608   3.481  51.221  1.00  0.00     0.013 C 
HETATM   19  C19 UNL     1      25.836   3.112  50.721  1.00  0.00    -0.012 C 
HETATM   20  C20 UNL     1      26.222   3.379  49.351  1.00  0.00     0.041 A 
HETATM   21  N5  UNL     1      27.355   4.536  49.414  1.00  0.00     0.000 N 
HETATM   22  C21 UNL     1      23.957   6.529  47.747  1.00  0.00     0.336 C 
HETATM   23  H22 UNL     1      28.202   4.001  49.908  1.00  0.00     0.000 HD
ENDROOT
BRANCH  17  24
HETATM   24  N4  UNL     1      25.726   2.349  53.506  1.00  0.00    -0.354 N 
HETATM   25  H12 UNL     1      25.977   3.324  53.393  1.00  0.00     0.166 HD
BRANCH  24  26
HETATM   26  C13 UNL     1      25.349   0.893  53.674  1.00  0.00     0.063 C 
HETATM   27  C14 UNL     1      26.355  -0.072  53.883  1.00  0.00     0.015 C 
BRANCH  27  28
HETATM   28  C15 UNL     1      27.403   0.886  53.863  1.00  0.00     0.036 C 
HETATM   29  C16 UNL     1      28.580   0.727  54.516  1.00  0.00     0.026 C 
BRANCH  29  30
HETATM   30  C17 UNL     1      29.516   1.844  54.369  1.00  0.00     0.227 C 
HETATM   31  F1  UNL     1      28.912   2.922  53.694  1.00  0.00    -0.255 F 
ENDBRANCH  29  30
ENDBRANCH  27  28
ENDBRANCH  24  26
ENDBRANCH  17  24
TORSDOF 4
ENDMDL
MODEL 4
REMARK VINA RESULT:      -7.9      3.746      5.789
REMARK  4 active torsions:
REMARK  status: ('A' for Active; 'I' for Inactive)
REMARK    1  A    between atoms: C12_17  and  N4_18 
REMARK    2  A    between atoms: N4_18  and  C13_19 
REMARK    3  A    between atoms: C14_20  and  C15_21 
REMARK    4  A    between atoms: C16_22  and  C17_23 
ROOT
HETATM    1  O1  UNL     1      19.812   1.315  49.780  1.00  0.00     0.000 OA
HETATM    2  C1  UNL     1      20.979   1.131  49.630  1.00  0.00     0.005 A 
HETATM    3  C2  UNL     1      19.483   2.121  49.525  1.00  0.00     0.061 A 
HETATM    4  C3  UNL     1      18.506   2.745  49.471  1.00  0.00    -0.167 C 
HETATM    5  C4  UNL     1      17.334   3.470  49.425  1.00  0.00     0.111 C 
HETATM    6  C5  UNL     1      16.203   2.420  49.764  1.00  0.00     0.284 C 
HETATM    7  N1  UNL     1      16.552   1.681  50.923  1.00  0.00     0.097 N 
HETATM    8  C6  UNL     1      15.592   1.675  52.012  1.00  0.00     0.299 C 
HETATM    9  C7  UNL     1      15.333   0.230  52.392  1.00  0.00     0.205 C 
HETATM   10  O2  UNL     1      16.534  -0.481  52.620  1.00  0.00    -0.352 OA
HETATM   11  C8  UNL     1      17.716  -0.082  51.965  1.00  0.00     0.073 C 
HETATM   12  C9  UNL     1      18.941  -0.129  52.419  1.00  0.00     0.039 C 
HETATM   13  C10 UNL     1      20.241  -0.210  52.983  1.00  0.00     0.171 C 
HETATM   14  N2  UNL     1      20.483  -1.252  53.937  1.00  0.00    -0.269 NA
HETATM   15  C11 UNL     1      21.598  -1.401  54.505  1.00  0.00     0.230 C 
HETATM   16  N3  UNL     1      22.655  -0.575  54.192  1.00  0.00    -0.224 NA
HETATM   17  C12 UNL     1      22.653   0.401  53.276  1.00  0.00     0.137 C 
HETATM   18  C18 UNL     1      21.430   0.315  52.315  1.00  0.00     0.013 C 
HETATM   19  C19 UNL     1      21.927   0.642  51.074  1.00  0.00    -0.012 C 
HETATM   20  C20 UNL     1      21.154   0.462  49.863  1.00  0.00     0.041 A 
HETATM   21  N5  UNL     1      20.764   1.948  49.346  1.00  0.00     0.000 N 
HETATM   22  C21 UNL     1      17.046   0.338  50.715  1.00  0.00     0.336 C 
HETATM   23  H22 UNL     1      21.761   2.359  49.055  1.00  0.00     0.000 HD
ENDROOT
BRANCH  17  24
HETATM   24  N4  UNL     1      23.929   1.296  53.053  1.00  0.00    -0.354 N 
HETATM   25  H12 UNL     1      23.234   1.990  52.807  1.00  0.00     0.166 HD
BRANCH  24  26
HETATM   26  C13 UNL     1      24.965   0.256  53.420  1.00  0.00     0.063 C 
HETATM   27  C14 UNL     1      26.170   0.178  52.691  1.00  0.00     0.015 C 
BRANCH  27  28
HETATM   28  C15 UNL     1      25.833   1.268  51.846  1.00  0.00     0.036 C 
HETATM   29  C16 UNL     1      26.738   2.154  51.362  1.00  0.00     0.026 C 
BRANCH  29  30
HETATM   30  C17 UNL     1      26.172   3.208  50.518  1.00  0.00     0.227 C 
HETATM   31  F1  UNL     1      26.631   3.092  49.191  1.00  0.00    -0.255 F 
ENDBRANCH  29  30
ENDBRANCH  27  28
ENDBRANCH  24  26
ENDBRANCH  17  24
TORSDOF 4
ENDMDL
MODEL 5
REMARK VINA RESULT:      -7.5      6.981      9.497
REMARK  4 active torsions:
REMARK  status: ('A' for Active; 'I' for Inactive)
REMARK    1  A    between atoms: C12_17  and  N4_18 
REMARK    2  A    between atoms: N4_18  and  C13_19 
REMARK    3  A    between atoms: C14_20  and  C15_21 
REMARK    4  A    between atoms: C16_22  and  C17_23 
ROOT
HETATM    1  O1  UNL     1      29.259   6.524  48.462  1.00  0.00     0.000 OA
HETATM    2  C1  UNL     1      30.006   5.615  48.279  1.00  0.00     0.005 A 
HETATM    3  C2  UNL     1      28.383   6.387  48.266  1.00  0.00     0.061 A 
HETATM    4  C3  UNL     1      27.346   6.906  48.260  1.00  0.00    -0.167 C 
HETATM    5  C4  UNL     1      26.125   7.547  48.255  1.00  0.00     0.111 C 
HETATM    6  C5  UNL     1      26.378   8.892  49.045  1.00  0.00     0.284 C 
HETATM    7  N1  UNL     1      27.537   9.540  48.550  1.00  0.00     0.097 N 
HETATM    8  C6  UNL     1      27.383  10.914  48.108  1.00  0.00     0.299 C 
HETATM    9  C7  UNL     1      28.441  11.746  48.809  1.00  0.00     0.205 C 
HETATM   10  O2  UNL     1      29.733  11.190  48.666  1.00  0.00    -0.352 OA
HETATM   11  C8  UNL     1      29.878   9.800  48.481  1.00  0.00     0.073 C 
HETATM   12  C9  UNL     1      30.773   9.175  47.763  1.00  0.00     0.039 C 
HETATM   13  C10 UNL     1      31.776   8.568  46.963  1.00  0.00     0.171 C 
HETATM   14  N2  UNL     1      33.025   9.259  46.835  1.00  0.00    -0.269 NA
HETATM   15  C11 UNL     1      33.975   8.813  46.136  1.00  0.00     0.230 C 
HETATM   16  N3  UNL     1      33.854   7.602  45.490  1.00  0.00    -0.224 NA
HETATM   17  C12 UNL     1      32.804   6.775  45.548  1.00  0.00     0.137 C 
HETATM   18  C18 UNL     1      31.826   7.131  46.707  1.00  0.00     0.013 C 
HETATM   19  C19 UNL     1      31.424   5.918  47.221  1.00  0.00    -0.012 C 
HETATM   20  C20 UNL     1      30.684   5.814  48.461  1.00  0.00     0.041 A 
HETATM   21  N5  UNL     1      29.178   5.373  48.057  1.00  0.00     0.000 N 
HETATM   22  C21 UNL     1      28.738   9.427  49.348  1.00  0.00     0.336 C 
HETATM   23  H22 UNL     1      29.338   4.338  47.669  1.00  0.00     0.000 HD
ENDROOT
BRANCH  17  24
HETATM   24  N4  UNL     1      32.790   5.435  44.720  1.00  0.00    -0.354 N 
HETATM   25  H12 UNL     1      31.793   5.502  44.882  1.00  0.00     0.166 HD
BRANCH  24  26
HETATM   26  C13 UNL     1      34.281   5.337  44.480  1.00  0.00     0.063 C 
HETATM   27  C14 UNL     1      35.019   4.291  45.069  1.00  0.00     0.015 C 
BRANCH  27  28
HETATM   28  C15 UNL     1      33.877   3.712  45.684  1.00  0.00     0.036 C 
HETATM   29  C16 UNL     1      33.938   2.885  46.757  1.00  0.00     0.026 C 
BRANCH  29  30
HETATM   30  C17 UNL     1      32.639   2.393  47.224  1.00  0.00     0.227 C 
HETATM   31  F1  UNL     1      31.617   2.729  46.315  1.00  0.00    -0.255 F 
ENDBRANCH  29  30
ENDBRANCH  27  28
ENDBRANCH  24  26
ENDBRANCH  17  24
TORSDOF 4
ENDMDL
MODEL 6
REMARK VINA RESULT:      -7.5      2.927      6.643
REMARK  4 active torsions:
REMARK  status: ('A' for Active; 'I' for Inactive)
REMARK    1  A    between atoms: C12_17  and  N4_18 
REMARK    2  A    between atoms: N4_18  and  C13_19 
REMARK    3  A    between atoms: C14_20  and  C15_21 
REMARK    4  A    between atoms: C16_22  and  C17_23 
ROOT
HETATM    1  O1  UNL     1      23.675   2.948  52.972  1.00  0.00     0.000 OA
HETATM    2  C1  UNL     1      23.653   4.105  52.690  1.00  0.00     0.005 A 
HETATM    3  C2  UNL     1      24.407   2.474  52.719  1.00  0.00     0.061 A 
HETATM    4  C3  UNL     1      24.873   1.412  52.743  1.00  0.00    -0.167 C 
HETATM    5  C4  UNL     1      25.403   0.139  52.778  1.00  0.00     0.111 C 
HETATM    6  C5  UNL     1      24.462  -0.657  53.768  1.00  0.00     0.284 C 
HETATM    7  N1  UNL     1      23.102  -0.448  53.425  1.00  0.00     0.097 N 
HETATM    8  C6  UNL     1      22.297  -1.632  53.185  1.00  0.00     0.299 C 
HETATM    9  C7  UNL     1      21.053  -1.527  54.047  1.00  0.00     0.205 C 
HETATM   10  O2  UNL     1      20.397  -0.286  53.881  1.00  0.00    -0.352 OA
HETATM   11  C8  UNL     1      21.138   0.850  53.500  1.00  0.00     0.073 C 
HETATM   12  C9  UNL     1      20.755   1.841  52.739  1.00  0.00     0.039 C 
HETATM   13  C10 UNL     1      20.267   2.879  51.903  1.00  0.00     0.171 C 
HETATM   14  N2  UNL     1      18.859   3.144  51.935  1.00  0.00    -0.269 NA
HETATM   15  C11 UNL     1      18.324   4.035  51.221  1.00  0.00     0.230 C 
HETATM   16  N3  UNL     1      19.096   4.825  50.399  1.00  0.00    -0.224 NA
HETATM   17  C12 UNL     1      20.429   4.786  50.288  1.00  0.00     0.137 C 
HETATM   18  C18 UNL     1      21.102   3.986  51.442  1.00  0.00     0.013 C 
HETATM   19  C19 UNL     1      22.240   4.695  51.753  1.00  0.00    -0.012 C 
HETATM   20  C20 UNL     1      23.032   4.403  52.930  1.00  0.00     0.041 A 
HETATM   21  N5  UNL     1      24.411   3.739  52.399  1.00  0.00     0.000 N 
HETATM   22  C21 UNL     1      22.357   0.476  54.251  1.00  0.00     0.336 C 
HETATM   23  H22 UNL     1      24.891   4.598  51.870  1.00  0.00     0.000 HD
ENDROOT
BRANCH  17  24
HETATM   24  N4  UNL     1      21.178   5.728  49.271  1.00  0.00    -0.354 N 
HETATM   25  H12 UNL     1      21.072   6.399  50.022  1.00  0.00     0.166 HD
BRANCH  24  26
HETATM   26  C13 UNL     1      21.334   4.724  48.150  1.00  0.00     0.063 C 
HETATM   27  C14 UNL     1      22.607   4.490  47.590  1.00  0.00     0.015 C 
BRANCH  27  28
HETATM   28  C15 UNL     1      23.257   5.405  48.460  1.00  0.00     0.036 C 
HETATM   29  C16 UNL     1      24.548   5.281  48.854  1.00  0.00     0.026 C 
BRANCH  29  30
HETATM   30  C17 UNL     1      25.013   6.332  49.763  1.00  0.00     0.227 C 
HETATM   31  F1  UNL     1      24.736   7.610  49.239  1.00  0.00    -0.255 F 
ENDBRANCH  29  30
ENDBRANCH  27  28
ENDBRANCH  24  26
ENDBRANCH  17  24
TORSDOF 4
ENDMDL
MODEL 7
REMARK VINA RESULT:      -7.3      2.111      2.949
REMARK  4 active torsions:
REMARK  status: ('A' for Active; 'I' for Inactive)
REMARK    1  A    between atoms: C12_17  and  N4_18 
REMARK    2  A    between atoms: N4_18  and  C13_19 
REMARK    3  A    between atoms: C14_20  and  C15_21 
REMARK    4  A    between atoms: C16_22  and  C17_23 
ROOT
HETATM    1  O1  UNL     1      25.709   6.030  49.042  1.00  0.00     0.000 OA
HETATM    2  C1  UNL     1      26.217   5.040  49.467  1.00  0.00     0.005 A 
HETATM    3  C2  UNL     1      25.855   6.800  49.499  1.00  0.00     0.061 A 
HETATM    4  C3  UNL     1      25.605   7.933  49.504  1.00  0.00    -0.167 C 
HETATM    5  C4  UNL     1      25.287   9.275  49.494  1.00  0.00     0.111 C 
HETATM    6  C5  UNL     1      24.599   9.510  48.090  1.00  0.00     0.284 C 
HETATM    7  N1  UNL     1      23.602   8.527  47.862  1.00  0.00     0.097 N 
HETATM    8  C6  UNL     1      22.267   9.006  47.555  1.00  0.00     0.299 C 
HETATM    9  C7  UNL     1      21.812   8.320  46.281  1.00  0.00     0.205 C 
HETATM   10  O2  UNL     1      21.966   6.917  46.351  1.00  0.00    -0.352 OA
HETATM   11  C8  UNL     1      22.963   6.365  47.180  1.00  0.00     0.073 C 
HETATM   12  C9  UNL     1      22.917   5.249  47.859  1.00  0.00     0.039 C 
HETATM   13  C10 UNL     1      22.790   4.025  48.566  1.00  0.00     0.171 C 
HETATM   14  N2  UNL     1      21.951   3.015  47.992  1.00  0.00    -0.269 NA
HETATM   15  C11 UNL     1      21.761   1.899  48.549  1.00  0.00     0.230 C 
HETATM   16  N3  UNL     1      22.398   1.594  49.731  1.00  0.00    -0.224 NA
HETATM   17  C12 UNL     1      23.276   2.368  50.381  1.00  0.00     0.137 C 
HETATM   18  C18 UNL     1      23.803   3.541  49.502  1.00  0.00     0.013 C 
HETATM   19  C19 UNL     1      25.140   3.646  49.810  1.00  0.00    -0.012 C 
HETATM   20  C20 UNL     1      26.045   4.474  49.041  1.00  0.00     0.041 A 
HETATM   21  N5  UNL     1      26.427   5.733  49.987  1.00  0.00     0.000 N 
HETATM   22  C21 UNL     1      23.943   7.451  46.958  1.00  0.00     0.336 C 
HETATM   23  H22 UNL     1      27.020   5.241  50.796  1.00  0.00     0.000 HD
ENDROOT
BRANCH  17  24
HETATM   24  N4  UNL     1      23.897   1.902  51.751  1.00  0.00    -0.354 N 
HETATM   25  H12 UNL     1      24.709   2.392  51.396  1.00  0.00     0.166 HD
BRANCH  24  26
HETATM   26  C13 UNL     1      22.683   1.169  52.279  1.00  0.00     0.063 C 
HETATM   27  C14 UNL     1      22.847   0.093  53.174  1.00  0.00     0.015 C 
BRANCH  27  28
HETATM   28  C15 UNL     1      24.262   0.213  53.199  1.00  0.00     0.036 C 
HETATM   29  C16 UNL     1      25.094  -0.769  53.626  1.00  0.00     0.026 C 
BRANCH  29  30
HETATM   30  C17 UNL     1      26.518  -0.429  53.576  1.00  0.00     0.227 C 
HETATM   31  F1  UNL     1      27.051  -0.679  52.297  1.00  0.00    -0.255 F 
ENDBRANCH  29  30
ENDBRANCH  27  28
ENDBRANCH  24  26
ENDBRANCH  17  24
TORSDOF 4
ENDMDL
MODEL 8
REMARK VINA RESULT:      -7.3      7.380      9.916
REMARK  4 active torsions:
REMARK  status: ('A' for Active; 'I' for Inactive)
REMARK    1  A    between atoms: C12_17  and  N4_18 
REMARK    2  A    between atoms: N4_18  and  C13_19 
REMARK    3  A    between atoms: C14_20  and  C15_21 
REMARK    4  A    between atoms: C16_22  and  C17_23 
ROOT
HETATM    1  O1  UNL     1      30.641   6.515  48.499  1.00  0.00     0.000 OA
HETATM    2  C1  UNL     1      31.816   6.321  48.527  1.00  0.00     0.005 A 
HETATM    3  C2  UNL     1      30.100   5.787  48.507  1.00  0.00     0.061 A 
HETATM    4  C3  UNL     1      28.986   5.463  48.487  1.00  0.00    -0.167 C 
HETATM    5  C4  UNL     1      27.655   5.102  48.455  1.00  0.00     0.111 C 
HETATM    6  C5  UNL     1      26.870   6.457  48.673  1.00  0.00     0.284 C 
HETATM    7  N1  UNL     1      27.370   7.458  47.803  1.00  0.00     0.097 N 
HETATM    8  C6  UNL     1      26.408   8.118  46.940  1.00  0.00     0.299 C 
HETATM    9  C7  UNL     1      26.571   9.615  47.127  1.00  0.00     0.205 C 
HETATM   10  O2  UNL     1      27.916  10.024  46.981  1.00  0.00    -0.352 OA
HETATM   11  C8  UNL     1      28.956   9.118  47.273  1.00  0.00     0.073 C 
HETATM   12  C9  UNL     1      30.118   9.014  46.685  1.00  0.00     0.039 C 
HETATM   13  C10 UNL     1      31.359   8.962  45.996  1.00  0.00     0.171 C 
HETATM   14  N2  UNL     1      31.854  10.184  45.437  1.00  0.00    -0.269 NA
HETATM   15  C11 UNL     1      32.938  10.242  44.795  1.00  0.00     0.230 C 
HETATM   16  N3  UNL     1      33.716   9.116  44.641  1.00  0.00    -0.224 NA
HETATM   17  C12 UNL     1      33.467   7.905  45.152  1.00  0.00     0.137 C 
HETATM   18  C18 UNL     1      32.367   7.937  46.255  1.00  0.00     0.013 C 
HETATM   19  C19 UNL     1      32.800   7.052  47.217  1.00  0.00    -0.012 C 
HETATM   20  C20 UNL     1      32.169   6.959  48.517  1.00  0.00     0.041 A 
HETATM   21  N5  UNL     1      31.381   5.543  48.540  1.00  0.00     0.000 N 
HETATM   22  C21 UNL     1      28.247   8.449  48.386  1.00  0.00     0.336 C 
HETATM   23  H22 UNL     1      32.225   4.811  48.518  1.00  0.00     0.000 HD
ENDROOT
BRANCH  17  24
HETATM   24  N4  UNL     1      34.431   6.695  44.858  1.00  0.00    -0.354 N 
HETATM   25  H12 UNL     1      35.017   7.172  45.531  1.00  0.00     0.166 HD
BRANCH  24  26
HETATM   26  C13 UNL     1      33.553   5.984  43.851  1.00  0.00     0.063 C 
HETATM   27  C14 UNL     1      33.375   4.588  43.936  1.00  0.00     0.015 C 
BRANCH  27  28
HETATM   28  C15 UNL     1      34.188   4.466  45.095  1.00  0.00     0.036 C 
HETATM   29  C16 UNL     1      33.897   3.648  46.136  1.00  0.00     0.026 C 
BRANCH  29  30
HETATM   30  C17 UNL     1      34.867   3.686  47.233  1.00  0.00     0.227 C 
HETATM   31  F1  UNL     1      34.555   2.726  48.215  1.00  0.00    -0.255 F 
ENDBRANCH  29  30
ENDBRANCH  27  28
ENDBRANCH  24  26
ENDBRANCH  17  24
TORSDOF 4
ENDMDL
MODEL 9
REMARK VINA RESULT:      -7.1      6.208      9.673
REMARK  4 active torsions:
REMARK  status: ('A' for Active; 'I' for Inactive)
REMARK    1  A    between atoms: C12_17  and  N4_18 
REMARK    2  A    between atoms: N4_18  and  C13_19 
REMARK    3  A    between atoms: C14_20  and  C15_21 
REMARK    4  A    between atoms: C16_22  and  C17_23 
ROOT
HETATM    1  O1  UNL     1      30.845   8.487  47.969  1.00  0.00     0.000 OA
HETATM    2  C1  UNL     1      30.011   9.088  48.572  1.00  0.00     0.005 A 
HETATM    3  C2  UNL     1      31.231   8.909  47.265  1.00  0.00     0.061 A 
HETATM    4  C3  UNL     1      32.020   8.770  46.425  1.00  0.00    -0.167 C 
HETATM    5  C4  UNL     1      32.956   8.579  45.431  1.00  0.00     0.111 C 
HETATM    6  C5  UNL     1      33.693   7.239  45.830  1.00  0.00     0.284 C 
HETATM    7  N1  UNL     1      32.744   6.230  46.135  1.00  0.00     0.097 N 
HETATM    8  C6  UNL     1      32.854   4.982  45.401  1.00  0.00     0.299 C 
HETATM    9  C7  UNL     1      32.885   3.853  46.414  1.00  0.00     0.205 C 
HETATM   10  O2  UNL     1      31.816   3.939  47.335  1.00  0.00    -0.352 OA
HETATM   11  C8  UNL     1      31.252   5.195  47.636  1.00  0.00     0.073 C 
HETATM   12  C9  UNL     1      30.004   5.471  47.905  1.00  0.00     0.039 C 
HETATM   13  C10 UNL     1      28.630   5.692  48.189  1.00  0.00     0.171 C 
HETATM   14  N2  UNL     1      27.902   4.618  48.797  1.00  0.00    -0.269 NA
HETATM   15  C11 UNL     1      26.675   4.708  49.075  1.00  0.00     0.230 C 
HETATM   16  N3  UNL     1      25.991   5.878  48.834  1.00  0.00    -0.224 NA
HETATM   17  C12 UNL     1      26.508   7.012  48.347  1.00  0.00     0.137 C 
HETATM   18  C18 UNL     1      28.065   7.024  48.387  1.00  0.00     0.013 C 
HETATM   19  C19 UNL     1      28.403   8.309  48.749  1.00  0.00    -0.012 C 
HETATM   20  C20 UNL     1      29.756   8.674  49.116  1.00  0.00     0.041 A 
HETATM   21  N5  UNL     1      30.324   9.592  47.907  1.00  0.00     0.000 N 
HETATM   22  C21 UNL     1      32.524   5.944  47.535  1.00  0.00     0.336 C 
HETATM   23  H22 UNL     1      29.688  10.506  47.994  1.00  0.00     0.000 HD
ENDROOT
BRANCH  17  24
HETATM   24  N4  UNL     1      25.591   8.266  48.084  1.00  0.00    -0.354 N 
HETATM   25  H12 UNL     1      25.647   8.350  49.092  1.00  0.00     0.166 HD
BRANCH  24  26
HETATM   26  C13 UNL     1      25.509   8.138  46.578  1.00  0.00     0.063 C 
HETATM   27  C14 UNL     1      25.794   9.252  45.763  1.00  0.00     0.015 C 
BRANCH  27  28
HETATM   28  C15 UNL     1      26.091  10.096  46.866  1.00  0.00     0.036 C 
HETATM   29  C16 UNL     1      26.863  11.207  46.777  1.00  0.00     0.026 C 
BRANCH  29  30
HETATM   30  C17 UNL     1      27.048  11.924  48.041  1.00  0.00     0.227 C 
HETATM   31  F1  UNL     1      25.963  12.785  48.295  1.00  0.00    -0.255 F 
ENDBRANCH  29  30
ENDBRANCH  27  28
ENDBRANCH  24  26
ENDBRANCH  17  24
TORSDOF 4
ENDMDL
