MODEL 1
REMARK VINA RESULT:      -8.9      0.000      0.000
REMARK  2 active torsions:
REMARK  status: ('A' for Active; 'I' for Inactive)
REMARK    1  A    between atoms: C10_11  and  C11_12 
REMARK    2  A    between atoms: C11_12  and  C12_13 
ROOT
HETATM    1  C1  UNL     1      20.870   8.124  50.098  1.00  0.00     0.017 C 
HETATM    2  C2  UNL     1      21.405   7.076  50.355  1.00  0.00    -0.081 C 
HETATM    3  C3  UNL     1      22.028   5.831  50.682  1.00  0.00     0.014 A 
HETATM    4  C4  UNL     1      23.227   5.503  50.296  1.00  0.00     0.115 A 
HETATM    5  N1  UNL     1      23.934   4.277  50.576  1.00  0.00    -0.310 N 
HETATM    6  C5  UNL     1      23.222   3.332  51.366  1.00  0.00     0.018 A 
HETATM    7  C6  UNL     1      21.985   3.633  51.783  1.00  0.00     0.004 A 
HETATM    8  C7  UNL     1      21.266   4.875  51.499  1.00  0.00     0.078 A 
HETATM    9  C8  UNL     1      23.517   1.991  51.891  1.00  0.00     0.086 C 
HETATM   10  C9  UNL     1      24.901   1.709  52.253  1.00  0.00     0.004 C 
HETATM   11  C10 UNL     1      26.131   1.887  51.779  1.00  0.00     0.004 C 
HETATM   12  N2  UNL     1      26.673   2.486  50.612  1.00  0.00    -0.365 N 
HETATM   13  C18 UNL     1      26.228   3.393  49.619  1.00  0.00     0.278 A 
HETATM   14  N3  UNL     1      27.260   4.189  49.018  1.00  0.00    -0.249 NA
HETATM   15  C19 UNL     1      26.857   5.405  49.035  1.00  0.00     0.232 A 
HETATM   16  N4  UNL     1      25.565   5.545  49.625  1.00  0.00    -0.224 NA
HETATM   17  C20 UNL     1      25.198   4.334  49.971  1.00  0.00     0.156 A 
HETATM   18  H16 UNL     1      27.670   2.213  50.378  1.00  0.00     0.162 HD
ENDROOT
BRANCH  11  19
HETATM   19  C11 UNL     1      27.237   1.347  52.649  1.00  0.00     0.069 C 
BRANCH  19  20
HETATM   20  C12 UNL     1      26.749   0.108  53.382  1.00  0.00     0.037 C 
HETATM   21  C13 UNL     1      27.338   0.208  54.760  1.00  0.00    -0.006 C 
HETATM   22  C14 UNL     1      28.639   0.181  54.867  1.00  0.00    -0.029 C 
HETATM   23  C15 UNL     1      29.358  -0.610  54.088  1.00  0.00     0.011 C 
HETATM   24  C16 UNL     1      28.635  -1.423  53.088  1.00  0.00    -0.002 C 
HETATM   25  C17 UNL     1      27.393  -1.079  52.752  1.00  0.00    -0.018 C 
ENDBRANCH  19  20
ENDBRANCH  11  19
TORSDOF 2
ENDMDL
MODEL 2
REMARK VINA RESULT:      -8.7      3.342      4.936
REMARK  2 active torsions:
REMARK  status: ('A' for Active; 'I' for Inactive)
REMARK    1  A    between atoms: C10_11  and  C11_12 
REMARK    2  A    between atoms: C11_12  and  C12_13 
ROOT
HETATM    1  C1  UNL     1      17.445   0.211  50.037  1.00  0.00     0.017 C 
HETATM    2  C2  UNL     1      18.579   0.527  50.290  1.00  0.00    -0.081 C 
HETATM    3  C3  UNL     1      19.931   0.904  50.566  1.00  0.00     0.014 A 
HETATM    4  C4  UNL     1      20.624   0.425  51.559  1.00  0.00     0.115 A 
HETATM    5  N1  UNL     1      21.985   0.745  51.913  1.00  0.00    -0.310 N 
HETATM    6  C5  UNL     1      22.625   1.694  51.069  1.00  0.00     0.018 A 
HETATM    7  C6  UNL     1      21.946   2.210  50.037  1.00  0.00     0.004 A 
HETATM    8  C7  UNL     1      20.565   1.887  49.676  1.00  0.00     0.078 A 
HETATM    9  C8  UNL     1      23.960   2.310  51.031  1.00  0.00     0.086 C 
HETATM   10  C9  UNL     1      25.082   1.495  51.479  1.00  0.00     0.004 C 
HETATM   11  C10 UNL     1      25.402   0.661  52.464  1.00  0.00     0.004 C 
HETATM   12  N2  UNL     1      24.724   0.160  53.606  1.00  0.00    -0.365 N 
HETATM   13  C18 UNL     1      23.381   0.062  54.045  1.00  0.00     0.278 A 
HETATM   14  N3  UNL     1      23.108  -1.043  54.921  1.00  0.00    -0.249 NA
HETATM   15  C19 UNL     1      22.062  -1.631  54.471  1.00  0.00     0.232 A 
HETATM   16  N4  UNL     1      21.546  -1.007  53.295  1.00  0.00    -0.224 NA
HETATM   17  C20 UNL     1      22.343   0.005  53.050  1.00  0.00     0.156 A 
HETATM   18  H16 UNL     1      25.342  -0.260  54.359  1.00  0.00     0.162 HD
ENDROOT
BRANCH  11  19
HETATM   19  C11 UNL     1      26.794   0.088  52.392  1.00  0.00     0.069 C 
BRANCH  19  20
HETATM   20  C12 UNL     1      27.056  -0.767  53.622  1.00  0.00     0.037 C 
HETATM   21  C13 UNL     1      27.819   0.120  54.563  1.00  0.00    -0.006 C 
HETATM   22  C14 UNL     1      28.994   0.542  54.181  1.00  0.00    -0.029 C 
HETATM   23  C15 UNL     1      29.803  -0.255  53.503  1.00  0.00     0.011 C 
HETATM   24  C16 UNL     1      29.310  -1.609  53.175  1.00  0.00    -0.002 C 
HETATM   25  C17 UNL     1      28.001  -1.851  53.232  1.00  0.00    -0.018 C 
ENDBRANCH  19  20
ENDBRANCH  11  19
TORSDOF 2
ENDMDL
MODEL 3
REMARK VINA RESULT:      -8.5      2.458      3.786
REMARK  2 active torsions:
REMARK  status: ('A' for Active; 'I' for Inactive)
REMARK    1  A    between atoms: C10_11  and  C11_12 
REMARK    2  A    between atoms: C11_12  and  C12_13 
ROOT
HETATM    1  C1  UNL     1      19.338   3.146  47.349  1.00  0.00     0.017 C 
HETATM    2  C2  UNL     1      20.376   3.141  47.960  1.00  0.00    -0.081 C 
HETATM    3  C3  UNL     1      21.620   3.138  48.665  1.00  0.00     0.014 A 
HETATM    4  C4  UNL     1      21.857   2.392  49.706  1.00  0.00     0.115 A 
HETATM    5  N1  UNL     1      23.073   2.323  50.477  1.00  0.00    -0.310 N 
HETATM    6  C5  UNL     1      24.123   3.174  50.033  1.00  0.00     0.018 A 
HETATM    7  C6  UNL     1      23.919   3.957  48.966  1.00  0.00     0.004 A 
HETATM    8  C7  UNL     1      22.685   4.029  48.183  1.00  0.00     0.078 A 
HETATM    9  C8  UNL     1      25.497   3.442  50.482  1.00  0.00     0.086 C 
HETATM   10  C9  UNL     1      26.235   2.328  51.066  1.00  0.00     0.004 C 
HETATM   11  C10 UNL     1      26.056   1.334  51.930  1.00  0.00     0.004 C 
HETATM   12  N2  UNL     1      24.969   0.889  52.728  1.00  0.00    -0.365 N 
HETATM   13  C18 UNL     1      23.565   1.077  52.750  1.00  0.00     0.278 A 
HETATM   14  N3  UNL     1      22.815  -0.019  53.297  1.00  0.00    -0.249 NA
HETATM   15  C19 UNL     1      21.866  -0.275  52.474  1.00  0.00     0.232 A 
HETATM   16  N4  UNL     1      21.881   0.588  51.337  1.00  0.00    -0.224 NA
HETATM   17  C20 UNL     1      22.901   1.392  51.513  1.00  0.00     0.156 A 
HETATM   18  H16 UNL     1      25.223   0.246  53.532  1.00  0.00     0.162 HD
ENDROOT
BRANCH  11  19
HETATM   19  C11 UNL     1      27.256   0.447  52.145  1.00  0.00     0.069 C 
BRANCH  19  20
HETATM   20  C12 UNL     1      26.996  -0.485  53.318  1.00  0.00     0.037 C 
HETATM   21  C13 UNL     1      27.923  -0.019  54.403  1.00  0.00    -0.006 C 
HETATM   22  C14 UNL     1      29.208  -0.097  54.179  1.00  0.00    -0.029 C 
HETATM   23  C15 UNL     1      29.710  -1.129  53.522  1.00  0.00     0.011 C 
HETATM   24  C16 UNL     1      28.763  -2.153  53.033  1.00  0.00    -0.002 C 
HETATM   25  C17 UNL     1      27.471  -1.844  52.936  1.00  0.00    -0.018 C 
ENDBRANCH  19  20
ENDBRANCH  11  19
TORSDOF 2
ENDMDL
MODEL 4
REMARK VINA RESULT:      -8.3      1.954      2.976
REMARK  2 active torsions:
REMARK  status: ('A' for Active; 'I' for Inactive)
REMARK    1  A    between atoms: C10_11  and  C11_12 
REMARK    2  A    between atoms: C11_12  and  C12_13 
ROOT
HETATM    1  C1  UNL     1      17.174   4.273  51.244  1.00  0.00     0.017 C 
HETATM    2  C2  UNL     1      18.233   3.722  51.403  1.00  0.00    -0.081 C 
HETATM    3  C3  UNL     1      19.481   3.055  51.612  1.00  0.00     0.014 A 
HETATM    4  C4  UNL     1      20.639   3.607  51.388  1.00  0.00     0.115 A 
HETATM    5  N1  UNL     1      21.942   3.016  51.569  1.00  0.00    -0.310 N 
HETATM    6  C5  UNL     1      21.940   1.676  52.047  1.00  0.00     0.018 A 
HETATM    7  C6  UNL     1      20.769   1.073  52.290  1.00  0.00     0.004 A 
HETATM    8  C7  UNL     1      19.446   1.671  52.106  1.00  0.00     0.078 A 
HETATM    9  C8  UNL     1      22.984   0.694  52.375  1.00  0.00     0.086 C 
HETATM   10  C9  UNL     1      24.236   1.208  52.915  1.00  0.00     0.004 C 
HETATM   11  C10 UNL     1      25.108   2.189  52.700  1.00  0.00     0.004 C 
HETATM   12  N2  UNL     1      25.201   3.254  51.766  1.00  0.00    -0.365 N 
HETATM   13  C18 UNL     1      24.321   3.929  50.884  1.00  0.00     0.278 A 
HETATM   14  N3  UNL     1      24.661   5.298  50.618  1.00  0.00    -0.249 NA
HETATM   15  C19 UNL     1      23.593   5.989  50.777  1.00  0.00     0.232 A 
HETATM   16  N4  UNL     1      22.473   5.187  51.150  1.00  0.00    -0.224 NA
HETATM   17  C20 UNL     1      22.920   3.956  51.211  1.00  0.00     0.156 A 
HETATM   18  H16 UNL     1      26.161   3.692  51.665  1.00  0.00     0.162 HD
ENDROOT
BRANCH  11  19
HETATM   19  C11 UNL     1      26.285   2.218  53.641  1.00  0.00     0.069 C 
BRANCH  19  20
HETATM   20  C12 UNL     1      27.570   2.013  52.854  1.00  0.00     0.037 C 
HETATM   21  C13 UNL     1      27.674   0.530  52.648  1.00  0.00    -0.006 C 
HETATM   22  C14 UNL     1      27.796  -0.223  53.708  1.00  0.00    -0.029 C 
HETATM   23  C15 UNL     1      28.533   0.177  54.731  1.00  0.00     0.011 C 
HETATM   24  C16 UNL     1      29.171   1.506  54.633  1.00  0.00    -0.002 C 
HETATM   25  C17 UNL     1      28.711   2.380  53.739  1.00  0.00    -0.018 C 
ENDBRANCH  19  20
ENDBRANCH  11  19
TORSDOF 2
ENDMDL
MODEL 5
REMARK VINA RESULT:      -8.1      2.554      6.641
REMARK  2 active torsions:
REMARK  status: ('A' for Active; 'I' for Inactive)
REMARK    1  A    between atoms: C10_11  and  C11_12 
REMARK    2  A    between atoms: C11_12  and  C12_13 
ROOT
HETATM    1  C1  UNL     1      21.540  -0.896  54.948  1.00  0.00     0.017 C 
HETATM    2  C2  UNL     1      22.342  -0.389  54.207  1.00  0.00    -0.081 C 
HETATM    3  C3  UNL     1      23.309   0.217  53.346  1.00  0.00     0.014 A 
HETATM    4  C4  UNL     1      22.999   0.955  52.319  1.00  0.00     0.115 A 
HETATM    5  N1  UNL     1      23.900   1.604  51.400  1.00  0.00    -0.310 N 
HETATM    6  C5  UNL     1      25.284   1.401  51.661  1.00  0.00     0.018 A 
HETATM    7  C6  UNL     1      25.645   0.647  52.708  1.00  0.00     0.004 A 
HETATM    8  C7  UNL     1      24.731  -0.012  53.641  1.00  0.00     0.078 A 
HETATM    9  C8  UNL     1      26.533   1.843  51.024  1.00  0.00     0.086 C 
HETATM   10  C9  UNL     1      26.531   3.162  50.402  1.00  0.00     0.004 C 
HETATM   11  C10 UNL     1      25.765   3.913  49.617  1.00  0.00     0.004 C 
HETATM   12  N2  UNL     1      24.503   3.737  48.991  1.00  0.00    -0.365 N 
HETATM   13  C18 UNL     1      23.390   2.873  49.144  1.00  0.00     0.278 A 
HETATM   14  N3  UNL     1      22.128   3.436  48.753  1.00  0.00    -0.249 NA
HETATM   15  C19 UNL     1      21.301   3.204  49.705  1.00  0.00     0.232 A 
HETATM   16  N4  UNL     1      21.899   2.491  50.788  1.00  0.00    -0.224 NA
HETATM   17  C20 UNL     1      23.148   2.299  50.441  1.00  0.00     0.156 A 
HETATM   18  H16 UNL     1      24.291   4.401  48.193  1.00  0.00     0.162 HD
ENDROOT
BRANCH  11  19
HETATM   19  C11 UNL     1      26.323   5.274  49.290  1.00  0.00     0.069 C 
BRANCH  19  20
HETATM   20  C12 UNL     1      25.211   6.310  49.362  1.00  0.00     0.037 C 
HETATM   21  C13 UNL     1      25.251   7.022  48.041  1.00  0.00    -0.006 C 
HETATM   22  C14 UNL     1      26.331   7.696  47.747  1.00  0.00    -0.029 C 
HETATM   23  C15 UNL     1      26.971   8.375  48.684  1.00  0.00     0.011 C 
HETATM   24  C16 UNL     1      26.436   8.310  50.060  1.00  0.00    -0.002 C 
HETATM   25  C17 UNL     1      25.598   7.325  50.381  1.00  0.00    -0.018 C 
ENDBRANCH  19  20
ENDBRANCH  11  19
TORSDOF 2
ENDMDL
MODEL 6
REMARK VINA RESULT:      -8.0      2.609      5.510
REMARK  2 active torsions:
REMARK  status: ('A' for Active; 'I' for Inactive)
REMARK    1  A    between atoms: C10_11  and  C11_12 
REMARK    2  A    between atoms: C11_12  and  C12_13 
ROOT
HETATM    1  C1  UNL     1      27.349   7.003  47.675  1.00  0.00     0.017 C 
HETATM    2  C2  UNL     1      26.885   6.158  48.398  1.00  0.00    -0.081 C 
HETATM    3  C3  UNL     1      26.347   5.138  49.243  1.00  0.00     0.014 A 
HETATM    4  C4  UNL     1      25.160   5.194  49.775  1.00  0.00     0.115 A 
HETATM    5  N1  UNL     1      24.537   4.219  50.634  1.00  0.00    -0.310 N 
HETATM    6  C5  UNL     1      25.325   3.070  50.922  1.00  0.00     0.018 A 
HETATM    7  C6  UNL     1      26.553   2.975  50.395  1.00  0.00     0.004 A 
HETATM    8  C7  UNL     1      27.187   3.964  49.523  1.00  0.00     0.078 A 
HETATM    9  C8  UNL     1      25.126   1.852  51.720  1.00  0.00     0.086 C 
HETATM   10  C9  UNL     1      23.771   1.315  51.787  1.00  0.00     0.004 C 
HETATM   11  C10 UNL     1      22.521   1.734  51.957  1.00  0.00     0.004 C 
HETATM   12  N2  UNL     1      21.912   2.999  52.164  1.00  0.00    -0.365 N 
HETATM   13  C18 UNL     1      22.275   4.358  51.986  1.00  0.00     0.278 A 
HETATM   14  N3  UNL     1      21.180   5.248  51.720  1.00  0.00    -0.249 NA
HETATM   15  C19 UNL     1      21.510   5.958  50.706  1.00  0.00     0.232 A 
HETATM   16  N4  UNL     1      22.807   5.632  50.207  1.00  0.00    -0.224 NA
HETATM   17  C20 UNL     1      23.255   4.673  50.980  1.00  0.00     0.156 A 
HETATM   18  H16 UNL     1      20.927   2.976  52.555  1.00  0.00     0.162 HD
ENDROOT
BRANCH  11  19
HETATM   19  C11 UNL     1      21.473   0.651  51.930  1.00  0.00     0.069 C 
BRANCH  19  20
HETATM   20  C12 UNL     1      20.408   0.948  52.974  1.00  0.00     0.037 C 
HETATM   21  C13 UNL     1      21.048   0.625  54.293  1.00  0.00    -0.006 C 
HETATM   22  C14 UNL     1      21.404  -0.613  54.508  1.00  0.00    -0.029 C 
HETATM   23  C15 UNL     1      20.649  -1.611  54.077  1.00  0.00     0.011 C 
HETATM   24  C16 UNL     1      19.424  -1.264  53.327  1.00  0.00    -0.002 C 
HETATM   25  C17 UNL     1      19.311  -0.046  52.802  1.00  0.00    -0.018 C 
ENDBRANCH  19  20
ENDBRANCH  11  19
TORSDOF 2
ENDMDL
MODEL 7
REMARK VINA RESULT:      -7.9      2.780      6.459
REMARK  2 active torsions:
REMARK  status: ('A' for Active; 'I' for Inactive)
REMARK    1  A    between atoms: C10_11  and  C11_12 
REMARK    2  A    between atoms: C11_12  and  C12_13 
ROOT
HETATM    1  C1  UNL     1      28.230   5.182  48.208  1.00  0.00     0.017 C 
HETATM    2  C2  UNL     1      27.404   4.727  48.957  1.00  0.00    -0.081 C 
HETATM    3  C3  UNL     1      26.431   4.165  49.841  1.00  0.00     0.014 A 
HETATM    4  C4  UNL     1      25.250   4.679  50.035  1.00  0.00     0.115 A 
HETATM    5  N1  UNL     1      24.210   4.184  50.901  1.00  0.00    -0.310 N 
HETATM    6  C5  UNL     1      24.529   2.998  51.619  1.00  0.00     0.018 A 
HETATM    7  C6  UNL     1      25.734   2.439  51.448  1.00  0.00     0.004 A 
HETATM    8  C7  UNL     1      26.791   2.939  50.569  1.00  0.00     0.078 A 
HETATM    9  C8  UNL     1      23.817   2.150  52.586  1.00  0.00     0.086 C 
HETATM   10  C9  UNL     1      22.372   2.030  52.428  1.00  0.00     0.004 C 
HETATM   11  C10 UNL     1      21.311   2.793  52.186  1.00  0.00     0.004 C 
HETATM   12  N2  UNL     1      21.110   4.180  51.955  1.00  0.00    -0.365 N 
HETATM   13  C18 UNL     1      21.912   5.287  51.583  1.00  0.00     0.278 A 
HETATM   14  N3  UNL     1      21.221   6.322  50.866  1.00  0.00    -0.249 NA
HETATM   15  C19 UNL     1      21.931   6.606  49.837  1.00  0.00     0.232 A 
HETATM   16  N4  UNL     1      23.122   5.823  49.761  1.00  0.00    -0.224 NA
HETATM   17  C20 UNL     1      23.100   5.038  50.810  1.00  0.00     0.156 A 
HETATM   18  H16 UNL     1      20.117   4.527  52.084  1.00  0.00     0.162 HD
ENDROOT
BRANCH  11  19
HETATM   19  C11 UNL     1      19.994   2.062  52.134  1.00  0.00     0.069 C 
BRANCH  19  20
HETATM   20  C12 UNL     1      20.216   0.653  51.607  1.00  0.00     0.037 C 
HETATM   21  C13 UNL     1      19.498   0.607  50.289  1.00  0.00    -0.006 C 
HETATM   22  C14 UNL     1      18.202   0.771  50.299  1.00  0.00    -0.029 C 
HETATM   23  C15 UNL     1      17.469   0.251  51.269  1.00  0.00     0.011 C 
HETATM   24  C16 UNL     1      18.175  -0.482  52.340  1.00  0.00    -0.002 C 
HETATM   25  C17 UNL     1      19.483  -0.289  52.500  1.00  0.00    -0.018 C 
ENDBRANCH  19  20
ENDBRANCH  11  19
TORSDOF 2
ENDMDL
MODEL 8
REMARK VINA RESULT:      -7.9      2.108      7.250
REMARK  2 active torsions:
REMARK  status: ('A' for Active; 'I' for Inactive)
REMARK    1  A    between atoms: C10_11  and  C11_12 
REMARK    2  A    between atoms: C11_12  and  C12_13 
ROOT
HETATM    1  C1  UNL     1      30.254  -0.525  53.515  1.00  0.00     0.017 C 
HETATM    2  C2  UNL     1      29.078  -0.279  53.427  1.00  0.00    -0.081 C 
HETATM    3  C3  UNL     1      27.677  -0.011  53.325  1.00  0.00     0.014 A 
HETATM    4  C4  UNL     1      27.175   0.925  52.573  1.00  0.00     0.115 A 
HETATM    5  N1  UNL     1      25.784   1.266  52.408  1.00  0.00    -0.310 N 
HETATM    6  C5  UNL     1      24.871   0.478  53.163  1.00  0.00     0.018 A 
HETATM    7  C6  UNL     1      25.348  -0.495  53.950  1.00  0.00     0.004 A 
HETATM    8  C7  UNL     1      26.760  -0.843  54.119  1.00  0.00     0.078 A 
HETATM    9  C8  UNL     1      23.410   0.451  53.317  1.00  0.00     0.086 C 
HETATM   10  C9  UNL     1      22.611   0.807  52.150  1.00  0.00     0.004 C 
HETATM   11  C10 UNL     1      22.577   1.719  51.183  1.00  0.00     0.004 C 
HETATM   12  N2  UNL     1      23.379   2.839  50.840  1.00  0.00    -0.365 N 
HETATM   13  C18 UNL     1      24.682   3.304  51.146  1.00  0.00     0.278 A 
HETATM   14  N3  UNL     1      25.297   4.102  50.123  1.00  0.00    -0.249 NA
HETATM   15  C19 UNL     1      26.477   3.638  49.941  1.00  0.00     0.232 A 
HETATM   16  N4  UNL     1      26.764   2.525  50.788  1.00  0.00    -0.224 NA
HETATM   17  C20 UNL     1      25.683   2.335  51.505  1.00  0.00     0.156 A 
HETATM   18  H16 UNL     1      22.930   3.541  50.186  1.00  0.00     0.162 HD
ENDROOT
BRANCH  11  19
HETATM   19  C11 UNL     1      21.445   1.569  50.200  1.00  0.00     0.069 C 
BRANCH  19  20
HETATM   20  C12 UNL     1      20.154   1.285  50.951  1.00  0.00     0.037 C 
HETATM   21  C13 UNL     1      19.097   1.173  49.889  1.00  0.00    -0.006 C 
HETATM   22  C14 UNL     1      18.849   2.232  49.167  1.00  0.00    -0.029 C 
HETATM   23  C15 UNL     1      18.859   3.435  49.718  1.00  0.00     0.011 C 
HETATM   24  C16 UNL     1      19.190   3.524  51.155  1.00  0.00    -0.002 C 
HETATM   25  C17 UNL     1      19.807   2.500  51.740  1.00  0.00    -0.018 C 
ENDBRANCH  19  20
ENDBRANCH  11  19
TORSDOF 2
ENDMDL
MODEL 9
REMARK VINA RESULT:      -7.7      3.323      5.852
REMARK  2 active torsions:
REMARK  status: ('A' for Active; 'I' for Inactive)
REMARK    1  A    between atoms: C10_11  and  C11_12 
REMARK    2  A    between atoms: C11_12  and  C12_13 
ROOT
HETATM    1  C1  UNL     1      28.884   8.588  46.835  1.00  0.00     0.017 C 
HETATM    2  C2  UNL     1      28.321   7.725  47.458  1.00  0.00    -0.081 C 
HETATM    3  C3  UNL     1      27.659   6.684  48.182  1.00  0.00     0.014 A 
HETATM    4  C4  UNL     1      26.534   6.849  48.816  1.00  0.00     0.115 A 
HETATM    5  N1  UNL     1      25.798   5.864  49.568  1.00  0.00    -0.310 N 
HETATM    6  C5  UNL     1      26.385   4.568  49.610  1.00  0.00     0.018 A 
HETATM    7  C6  UNL     1      27.542   4.357  48.971  1.00  0.00     0.004 A 
HETATM    8  C7  UNL     1      28.291   5.356  48.207  1.00  0.00     0.078 A 
HETATM    9  C8  UNL     1      26.018   3.286  50.228  1.00  0.00     0.086 C 
HETATM   10  C9  UNL     1      24.596   2.979  50.329  1.00  0.00     0.004 C 
HETATM   11  C10 UNL     1      23.452   3.567  50.667  1.00  0.00     0.004 C 
HETATM   12  N2  UNL     1      23.092   4.864  51.115  1.00  0.00    -0.365 N 
HETATM   13  C18 UNL     1      23.680   6.154  51.114  1.00  0.00     0.278 A 
HETATM   14  N3  UNL     1      22.748   7.245  51.082  1.00  0.00    -0.249 NA
HETATM   15  C19 UNL     1      23.139   8.048  50.162  1.00  0.00     0.232 A 
HETATM   16  N4  UNL     1      24.326   7.596  49.510  1.00  0.00    -0.224 NA
HETATM   17  C20 UNL     1      24.640   6.462  50.088  1.00  0.00     0.156 A 
HETATM   18  H16 UNL     1      22.143   4.942  51.581  1.00  0.00     0.162 HD
ENDROOT
BRANCH  11  19
HETATM   19  C11 UNL     1      22.228   2.693  50.567  1.00  0.00     0.069 C 
BRANCH  19  20
HETATM   20  C12 UNL     1      22.535   1.320  51.143  1.00  0.00     0.037 C 
HETATM   21  C13 UNL     1      21.479   0.412  50.582  1.00  0.00    -0.006 C 
HETATM   22  C14 UNL     1      20.236   0.653  50.907  1.00  0.00    -0.029 C 
HETATM   23  C15 UNL     1      19.931   1.055  52.130  1.00  0.00     0.011 C 
HETATM   24  C16 UNL     1      21.044   1.247  53.082  1.00  0.00    -0.002 C 
HETATM   25  C17 UNL     1      22.283   1.374  52.611  1.00  0.00    -0.018 C 
ENDBRANCH  19  20
ENDBRANCH  11  19
TORSDOF 2
ENDMDL
