MODEL 1
REMARK VINA RESULT:      -6.9      0.000      0.000
REMARK  6 active torsions:
REMARK  status: ('A' for Active; 'I' for Inactive)
REMARK    1  A    between atoms: O1_2  and  C2_3 
REMARK    2  A    between atoms: C3_4  and  O2_5 
REMARK    3  A    between atoms: C9_12  and  N2_13 
REMARK    4  A    between atoms: N2_13  and  C10_14 
REMARK    5  A    between atoms: C13_17  and  C14_18 
REMARK    6  A    between atoms: C15_20  and  O3_21 
ROOT
HETATM    1  N2  UNL     1      24.616   2.737  50.058  1.00  0.00    -0.380 N 
HETATM    2  H11 UNL     1      23.900   2.425  49.327  1.00  0.00     0.160 HD
ENDROOT
BRANCH   1   3
HETATM    3  C9  UNL     1      24.448   1.897  51.285  1.00  0.00     0.138 C 
HETATM    4  C5  UNL     1      25.177   2.577  52.340  1.00  0.00     0.118 A 
HETATM    5  C3  UNL     1      25.968   1.846  53.478  1.00  0.00     0.089 C 
HETATM    6  C6  UNL     1      24.216   3.178  53.248  1.00  0.00     0.003 A 
HETATM    7  C7  UNL     1      24.122   1.828  53.245  1.00  0.00     0.133 A 
HETATM    8  C2  UNL     1      25.158   0.723  53.423  1.00  0.00     0.110 C 
HETATM    9  N1  UNL     1      23.362   0.849  52.301  1.00  0.00    -0.281 NA
HETATM   10  C8  UNL     1      22.867   1.796  51.437  1.00  0.00     0.111 C 
BRANCH   5  11
HETATM   11  O2  UNL     1      27.125   2.438  54.153  1.00  0.00    -0.357 OA
HETATM   12  C4  UNL     1      28.315   2.277  53.433  1.00  0.00     0.209 C 
ENDBRANCH   5  11
BRANCH   8  13
HETATM   13  O1  UNL     1      26.012  -0.348  53.575  1.00  0.00    -0.355 OA
HETATM   14  C1  UNL     1      26.496  -0.884  52.327  1.00  0.00     0.209 C 
ENDBRANCH   8  13
ENDBRANCH   1   3
BRANCH   1  15
HETATM   15  C10 UNL     1      25.464   3.792  49.655  1.00  0.00     0.031 A 
HETATM   16  C11 UNL     1      26.750   3.684  49.186  1.00  0.00     0.030 A 
HETATM   17  C12 UNL     1      27.575   4.706  48.776  1.00  0.00     0.018 A 
HETATM   18  C13 UNL     1      27.003   5.953  48.863  1.00  0.00     0.014 A 
HETATM   19  C15 UNL     1      25.723   6.145  49.322  1.00  0.00     0.082 A 
HETATM   20  C17 UNL     1      24.962   5.071  49.714  1.00  0.00     0.066 A 
BRANCH  18  21
HETATM   21  C14 UNL     1      27.756   7.133  48.463  1.00  0.00     0.121 C 
HETATM   22  N3  UNL     1      28.343   7.995  49.218  1.00  0.00    -0.311 NA
HETATM   23  H15 UNL     1      28.287   7.853  50.250  1.00  0.00     0.186 HD
ENDBRANCH  18  21
BRANCH  19  24
HETATM   24  O3  UNL     1      25.194   7.414  49.392  1.00  0.00    -0.355 OA
HETATM   25  C16 UNL     1      24.402   7.954  50.402  1.00  0.00     0.210 C 
ENDBRANCH  19  24
ENDBRANCH   1  15
TORSDOF 6
ENDMDL
MODEL 2
REMARK VINA RESULT:      -6.8      4.155      6.936
REMARK  6 active torsions:
REMARK  status: ('A' for Active; 'I' for Inactive)
REMARK    1  A    between atoms: O1_2  and  C2_3 
REMARK    2  A    between atoms: C3_4  and  O2_5 
REMARK    3  A    between atoms: C9_12  and  N2_13 
REMARK    4  A    between atoms: N2_13  and  C10_14 
REMARK    5  A    between atoms: C13_17  and  C14_18 
REMARK    6  A    between atoms: C15_20  and  O3_21 
ROOT
HETATM    1  N2  UNL     1      23.350   0.767  52.114  1.00  0.00    -0.380 N 
HETATM    2  H11 UNL     1      23.596   0.986  51.095  1.00  0.00     0.160 HD
ENDROOT
BRANCH   1   3
HETATM    3  C9  UNL     1      24.560   1.003  52.962  1.00  0.00     0.138 C 
HETATM    4  C5  UNL     1      25.583   0.102  52.461  1.00  0.00     0.118 A 
HETATM    5  C3  UNL     1      26.641  -0.618  53.364  1.00  0.00     0.089 C 
HETATM    6  C6  UNL     1      26.571   0.886  51.742  1.00  0.00     0.003 A 
HETATM    7  C7  UNL     1      26.535   1.214  53.054  1.00  0.00     0.133 A 
HETATM    8  C2  UNL     1      26.608   0.378  54.328  1.00  0.00     0.110 C 
HETATM    9  N1  UNL     1      25.616   2.190  53.848  1.00  0.00    -0.281 NA
HETATM   10  C8  UNL     1      24.817   2.564  52.795  1.00  0.00     0.111 C 
BRANCH   5  11
HETATM   11  O2  UNL     1      27.253  -1.900  53.009  1.00  0.00    -0.357 OA
HETATM   12  C4  UNL     1      28.646  -1.897  53.156  1.00  0.00     0.209 C 
ENDBRANCH   5  11
BRANCH   8  13
HETATM   13  O1  UNL     1      26.670  -0.285  55.535  1.00  0.00    -0.355 OA
HETATM   14  C1  UNL     1      25.404  -0.827  55.962  1.00  0.00     0.209 C 
ENDBRANCH   8  13
ENDBRANCH   1   3
BRANCH   1  15
HETATM   15  C10 UNL     1      22.019   0.346  52.332  1.00  0.00     0.031 A 
HETATM   16  C11 UNL     1      21.534  -0.315  53.433  1.00  0.00     0.030 A 
HETATM   17  C12 UNL     1      20.236  -0.712  53.659  1.00  0.00     0.018 A 
HETATM   18  C13 UNL     1      19.369  -0.390  52.642  1.00  0.00     0.014 A 
HETATM   19  C15 UNL     1      19.776   0.268  51.508  1.00  0.00     0.082 A 
HETATM   20  C17 UNL     1      21.092   0.632  51.357  1.00  0.00     0.066 A 
BRANCH  18  21
HETATM   21  C14 UNL     1      17.961  -0.747  52.740  1.00  0.00     0.121 C 
HETATM   22  N3  UNL     1      17.329  -1.214  53.760  1.00  0.00    -0.311 NA
HETATM   23  H15 UNL     1      17.870  -1.366  54.638  1.00  0.00     0.186 HD
ENDBRANCH  18  21
BRANCH  19  24
HETATM   24  O3  UNL     1      18.871   0.569  50.516  1.00  0.00    -0.355 OA
HETATM   25  C16 UNL     1      18.773   1.745  49.778  1.00  0.00     0.210 C 
ENDBRANCH  19  24
ENDBRANCH   1  15
TORSDOF 6
ENDMDL
MODEL 3
REMARK VINA RESULT:      -6.6      3.326      5.912
REMARK  6 active torsions:
REMARK  status: ('A' for Active; 'I' for Inactive)
REMARK    1  A    between atoms: O1_2  and  C2_3 
REMARK    2  A    between atoms: C3_4  and  O2_5 
REMARK    3  A    between atoms: C9_12  and  N2_13 
REMARK    4  A    between atoms: N2_13  and  C10_14 
REMARK    5  A    between atoms: C13_17  and  C14_18 
REMARK    6  A    between atoms: C15_20  and  O3_21 
ROOT
HETATM    1  N2  UNL     1      23.546  -0.287  53.545  1.00  0.00    -0.380 N 
HETATM    2  H11 UNL     1      23.398  -1.347  53.518  1.00  0.00     0.160 HD
ENDROOT
BRANCH   1   3
HETATM    3  C9  UNL     1      22.210   0.386  53.507  1.00  0.00     0.138 C 
HETATM    4  C5  UNL     1      21.823   0.431  52.108  1.00  0.00     0.118 A 
HETATM    5  C3  UNL     1      21.032   1.612  51.451  1.00  0.00     0.089 C 
HETATM    6  C6  UNL     1      20.764  -0.539  51.895  1.00  0.00     0.003 A 
HETATM    7  C7  UNL     1      20.376   0.443  52.741  1.00  0.00     0.133 A 
HETATM    8  C2  UNL     1      20.418   1.964  52.642  1.00  0.00     0.110 C 
HETATM    9  N1  UNL     1      20.578   0.620  54.276  1.00  0.00    -0.281 NA
HETATM   10  C8  UNL     1      21.328  -0.512  54.480  1.00  0.00     0.111 C 
BRANCH   5  11
HETATM   11  O2  UNL     1      21.142   1.954  50.031  1.00  0.00    -0.357 OA
HETATM   12  C4  UNL     1      22.470   2.055  49.597  1.00  0.00     0.209 C 
ENDBRANCH   5  11
BRANCH   8  13
HETATM   13  O1  UNL     1      20.406   3.343  52.651  1.00  0.00    -0.355 OA
HETATM   14  C1  UNL     1      19.550   3.920  51.644  1.00  0.00     0.209 C 
ENDBRANCH   8  13
ENDBRANCH   1   3
BRANCH   1  15
HETATM   15  C10 UNL     1      24.895   0.129  53.610  1.00  0.00     0.031 A 
HETATM   16  C11 UNL     1      25.801  -0.165  54.599  1.00  0.00     0.030 A 
HETATM   17  C12 UNL     1      27.120   0.222  54.660  1.00  0.00     0.018 A 
HETATM   18  C13 UNL     1      27.527   0.985  53.591  1.00  0.00     0.014 A 
HETATM   19  C15 UNL     1      26.681   1.322  52.563  1.00  0.00     0.082 A 
HETATM   20  C17 UNL     1      25.376   0.896  52.575  1.00  0.00     0.066 A 
BRANCH  18  21
HETATM   21  C14 UNL     1      28.898   1.468  53.517  1.00  0.00     0.121 C 
HETATM   22  N3  UNL     1      29.307   2.681  53.378  1.00  0.00    -0.311 NA
HETATM   23  H15 UNL     1      28.585   3.431  53.308  1.00  0.00     0.186 HD
ENDBRANCH  18  21
BRANCH  19  24
HETATM   24  O3  UNL     1      27.135   2.089  51.514  1.00  0.00    -0.355 OA
HETATM   25  C16 UNL     1      26.401   2.955  50.709  1.00  0.00     0.210 C 
ENDBRANCH  19  24
ENDBRANCH   1  15
TORSDOF 6
ENDMDL
MODEL 4
REMARK VINA RESULT:      -6.6      1.263      2.083
REMARK  6 active torsions:
REMARK  status: ('A' for Active; 'I' for Inactive)
REMARK    1  A    between atoms: O1_2  and  C2_3 
REMARK    2  A    between atoms: C3_4  and  O2_5 
REMARK    3  A    between atoms: C9_12  and  N2_13 
REMARK    4  A    between atoms: N2_13  and  C10_14 
REMARK    5  A    between atoms: C13_17  and  C14_18 
REMARK    6  A    between atoms: C15_20  and  O3_21 
ROOT
HETATM    1  N2  UNL     1      24.799   3.633  49.845  1.00  0.00    -0.380 N 
HETATM    2  H11 UNL     1      24.807   3.212  48.860  1.00  0.00     0.160 HD
ENDROOT
BRANCH   1   3
HETATM    3  C9  UNL     1      24.439   2.560  50.823  1.00  0.00     0.138 C 
HETATM    4  C5  UNL     1      25.051   2.944  52.083  1.00  0.00     0.118 A 
HETATM    5  C3  UNL     1      25.657   1.932  53.113  1.00  0.00     0.089 C 
HETATM    6  C6  UNL     1      24.003   3.396  52.981  1.00  0.00     0.003 A 
HETATM    7  C7  UNL     1      23.858   2.089  52.665  1.00  0.00     0.133 A 
HETATM    8  C2  UNL     1      24.818   0.904  52.712  1.00  0.00     0.110 C 
HETATM    9  N1  UNL     1      23.190   1.391  51.442  1.00  0.00    -0.281 NA
HETATM   10  C8  UNL     1      22.849   2.535  50.761  1.00  0.00     0.111 C 
BRANCH   5  11
HETATM   11  O2  UNL     1      26.738   2.284  54.035  1.00  0.00    -0.357 OA
HETATM   12  C4  UNL     1      28.000   2.261  53.428  1.00  0.00     0.209 C 
ENDBRANCH   5  11
BRANCH   8  13
HETATM   13  O1  UNL     1      25.603  -0.229  52.720  1.00  0.00    -0.355 OA
HETATM   14  C1  UNL     1      25.625  -0.907  53.993  1.00  0.00     0.209 C 
ENDBRANCH   8  13
ENDBRANCH   1   3
BRANCH   1  15
HETATM   15  C10 UNL     1      25.120   5.007  49.912  1.00  0.00     0.031 A 
HETATM   16  C11 UNL     1      24.424   5.985  50.580  1.00  0.00     0.030 A 
HETATM   17  C12 UNL     1      24.740   7.322  50.664  1.00  0.00     0.018 A 
HETATM   18  C13 UNL     1      25.886   7.666  49.987  1.00  0.00     0.014 A 
HETATM   19  C15 UNL     1      26.637   6.749  49.294  1.00  0.00     0.082 A 
HETATM   20  C17 UNL     1      26.254   5.430  49.259  1.00  0.00     0.066 A 
BRANCH  18  21
HETATM   21  C14 UNL     1      26.347   9.047  49.986  1.00  0.00     0.121 C 
HETATM   22  N3  UNL     1      27.255   9.582  50.725  1.00  0.00    -0.311 NA
HETATM   23  H15 UNL     1      27.737   8.972  51.420  1.00  0.00     0.186 HD
ENDBRANCH  18  21
BRANCH  19  24
HETATM   24  O3  UNL     1      27.777   7.142  48.632  1.00  0.00    -0.355 OA
HETATM   25  C16 UNL     1      28.707   6.336  47.980  1.00  0.00     0.210 C 
ENDBRANCH  19  24
ENDBRANCH   1  15
TORSDOF 6
ENDMDL
MODEL 5
REMARK VINA RESULT:      -6.5      2.028      6.482
REMARK  6 active torsions:
REMARK  status: ('A' for Active; 'I' for Inactive)
REMARK    1  A    between atoms: O1_2  and  C2_3 
REMARK    2  A    between atoms: C3_4  and  O2_5 
REMARK    3  A    between atoms: C9_12  and  N2_13 
REMARK    4  A    between atoms: N2_13  and  C10_14 
REMARK    5  A    between atoms: C13_17  and  C14_18 
REMARK    6  A    between atoms: C15_20  and  O3_21 
ROOT
HETATM    1  N2  UNL     1      22.926   4.162  52.182  1.00  0.00    -0.380 N 
HETATM    2  H11 UNL     1      21.915   4.289  52.510  1.00  0.00     0.160 HD
ENDROOT
BRANCH   1   3
HETATM    3  C9  UNL     1      23.331   5.369  51.396  1.00  0.00     0.138 C 
HETATM    4  C5  UNL     1      24.081   4.872  50.256  1.00  0.00     0.118 A 
HETATM    5  C3  UNL     1      25.316   5.602  49.628  1.00  0.00     0.089 C 
HETATM    6  C6  UNL     1      23.257   5.014  49.069  1.00  0.00     0.003 A 
HETATM    7  C7  UNL     1      23.559   6.216  49.612  1.00  0.00     0.133 A 
HETATM    8  C2  UNL     1      24.879   6.853  50.035  1.00  0.00     0.110 C 
HETATM    9  N1  UNL     1      22.896   7.020  50.770  1.00  0.00    -0.281 NA
HETATM   10  C8  UNL     1      21.943   6.088  51.100  1.00  0.00     0.111 C 
BRANCH   5  11
HETATM   11  O2  UNL     1      26.387   4.896  48.922  1.00  0.00    -0.357 OA
HETATM   12  C4  UNL     1      26.706   3.665  49.509  1.00  0.00     0.209 C 
ENDBRANCH   5  11
BRANCH   8  13
HETATM   13  O1  UNL     1      26.015   7.518  50.444  1.00  0.00    -0.355 OA
HETATM   14  C1  UNL     1      26.097   8.874  49.958  1.00  0.00     0.209 C 
ENDBRANCH   8  13
ENDBRANCH   1   3
BRANCH   1  15
HETATM   15  C10 UNL     1      23.537   2.951  52.578  1.00  0.00     0.031 A 
HETATM   16  C11 UNL     1      23.032   1.683  52.423  1.00  0.00     0.030 A 
HETATM   17  C12 UNL     1      23.629   0.500  52.792  1.00  0.00     0.018 A 
HETATM   18  C13 UNL     1      24.864   0.656  53.375  1.00  0.00     0.014 A 
HETATM   19  C15 UNL     1      25.437   1.889  53.567  1.00  0.00     0.082 A 
HETATM   20  C17 UNL     1      24.775   3.026  53.171  1.00  0.00     0.066 A 
BRANCH  18  21
HETATM   21  C14 UNL     1      25.617  -0.509  53.817  1.00  0.00     0.121 C 
HETATM   22  N3  UNL     1      25.961  -0.824  55.017  1.00  0.00    -0.311 NA
HETATM   23  H15 UNL     1      25.676  -0.182  55.788  1.00  0.00     0.186 HD
ENDBRANCH  18  21
BRANCH  19  24
HETATM   24  O3  UNL     1      26.676   1.995  54.156  1.00  0.00    -0.355 OA
HETATM   25  C16 UNL     1      27.893   2.271  53.539  1.00  0.00     0.210 C 
ENDBRANCH  19  24
ENDBRANCH   1  15
TORSDOF 6
ENDMDL
MODEL 6
REMARK VINA RESULT:      -6.4      2.633      6.547
REMARK  6 active torsions:
REMARK  status: ('A' for Active; 'I' for Inactive)
REMARK    1  A    between atoms: O1_2  and  C2_3 
REMARK    2  A    between atoms: C3_4  and  O2_5 
REMARK    3  A    between atoms: C9_12  and  N2_13 
REMARK    4  A    between atoms: N2_13  and  C10_14 
REMARK    5  A    between atoms: C13_17  and  C14_18 
REMARK    6  A    between atoms: C15_20  and  O3_21 
ROOT
HETATM    1  N2  UNL     1      24.639   2.078  53.059  1.00  0.00    -0.380 N 
HETATM    2  H11 UNL     1      24.000   2.093  53.918  1.00  0.00     0.160 HD
ENDROOT
BRANCH   1   3
HETATM    3  C9  UNL     1      24.252   3.203  52.152  1.00  0.00     0.138 C 
HETATM    4  C5  UNL     1      23.362   2.628  51.158  1.00  0.00     0.118 A 
HETATM    5  C3  UNL     1      23.317   3.068  49.656  1.00  0.00     0.089 C 
HETATM    6  C6  UNL     1      22.010   3.077  51.441  1.00  0.00     0.003 A 
HETATM    7  C7  UNL     1      22.819   4.111  51.115  1.00  0.00     0.133 A 
HETATM    8  C2  UNL     1      23.761   4.351  49.939  1.00  0.00     0.110 C 
HETATM    9  N1  UNL     1      23.807   4.958  51.972  1.00  0.00    -0.281 NA
HETATM   10  C8  UNL     1      23.635   4.276  53.152  1.00  0.00     0.111 C 
BRANCH   5  11
HETATM   11  O2  UNL     1      22.901   2.174  48.574  1.00  0.00    -0.357 OA
HETATM   12  C4  UNL     1      21.950   2.752  47.725  1.00  0.00     0.209 C 
ENDBRANCH   5  11
BRANCH   8  13
HETATM   13  O1  UNL     1      24.633   4.666  48.920  1.00  0.00    -0.355 OA
HETATM   14  C1  UNL     1      26.016   4.690  49.329  1.00  0.00     0.209 C 
ENDBRANCH   8  13
ENDBRANCH   1   3
BRANCH   1  15
HETATM   15  C10 UNL     1      25.609   1.051  53.052  1.00  0.00     0.031 A 
HETATM   16  C11 UNL     1      25.519  -0.163  52.416  1.00  0.00     0.030 A 
HETATM   17  C12 UNL     1      26.466  -1.161  52.390  1.00  0.00     0.018 A 
HETATM   18  C13 UNL     1      27.609  -0.863  53.094  1.00  0.00     0.014 A 
HETATM   19  C15 UNL     1      27.775   0.327  53.759  1.00  0.00     0.082 A 
HETATM   20  C17 UNL     1      26.781   1.274  53.736  1.00  0.00     0.066 A 
BRANCH  18  21
HETATM   21  C14 UNL     1      28.700  -1.824  53.158  1.00  0.00     0.121 C 
HETATM   22  N3  UNL     1      28.635  -3.108  53.085  1.00  0.00    -0.311 NA
HETATM   23  H15 UNL     1      27.692  -3.539  52.966  1.00  0.00     0.186 HD
ENDBRANCH  18  21
BRANCH  19  24
HETATM   24  O3  UNL     1      28.937   0.580  54.451  1.00  0.00    -0.355 OA
HETATM   25  C16 UNL     1      29.552   1.810  54.667  1.00  0.00     0.210 C 
ENDBRANCH  19  24
ENDBRANCH   1  15
TORSDOF 6
ENDMDL
MODEL 7
REMARK VINA RESULT:      -6.3      3.267      5.671
REMARK  6 active torsions:
REMARK  status: ('A' for Active; 'I' for Inactive)
REMARK    1  A    between atoms: O1_2  and  C2_3 
REMARK    2  A    between atoms: C3_4  and  O2_5 
REMARK    3  A    between atoms: C9_12  and  N2_13 
REMARK    4  A    between atoms: N2_13  and  C10_14 
REMARK    5  A    between atoms: C13_17  and  C14_18 
REMARK    6  A    between atoms: C15_20  and  O3_21 
ROOT
HETATM    1  N2  UNL     1      24.381   2.756  52.331  1.00  0.00    -0.380 N 
HETATM    2  H11 UNL     1      24.322   3.798  52.572  1.00  0.00     0.160 HD
ENDROOT
BRANCH   1   3
HETATM    3  C9  UNL     1      25.790   2.295  52.535  1.00  0.00     0.138 C 
HETATM    4  C5  UNL     1      25.700   0.907  52.952  1.00  0.00     0.118 A 
HETATM    5  C3  UNL     1      26.662   0.236  53.991  1.00  0.00     0.089 C 
HETATM    6  C6  UNL     1      26.134   0.069  51.849  1.00  0.00     0.003 A 
HETATM    7  C7  UNL     1      27.138   0.853  52.301  1.00  0.00     0.133 A 
HETATM    8  C2  UNL     1      27.706   1.098  53.696  1.00  0.00     0.110 C 
HETATM    9  N1  UNL     1      27.521   2.329  51.977  1.00  0.00    -0.281 NA
HETATM   10  C8  UNL     1      26.473   2.593  51.129  1.00  0.00     0.111 C 
BRANCH   5  11
HETATM   11  O2  UNL     1      26.266  -0.898  54.828  1.00  0.00    -0.357 OA
HETATM   12  C4  UNL     1      24.891  -0.927  55.090  1.00  0.00     0.209 C 
ENDBRANCH   5  11
BRANCH   8  13
HETATM   13  O1  UNL     1      28.293   1.386  54.909  1.00  0.00    -0.355 OA
HETATM   14  C1  UNL     1      29.615   1.951  54.793  1.00  0.00     0.209 C 
ENDBRANCH   8  13
ENDBRANCH   1   3
BRANCH   1  15
HETATM   15  C10 UNL     1      23.165   2.167  51.918  1.00  0.00     0.031 A 
HETATM   16  C11 UNL     1      22.192   1.632  52.727  1.00  0.00     0.030 A 
HETATM   17  C12 UNL     1      20.999   1.072  52.334  1.00  0.00     0.018 A 
HETATM   18  C13 UNL     1      20.806   1.070  50.973  1.00  0.00     0.014 A 
HETATM   19  C15 UNL     1      21.731   1.584  50.097  1.00  0.00     0.082 A 
HETATM   20  C17 UNL     1      22.900   2.127  50.570  1.00  0.00     0.066 A 
BRANCH  18  21
HETATM   21  C14 UNL     1      19.587   0.510  50.407  1.00  0.00     0.121 C 
HETATM   22  N3  UNL     1      18.777   1.054  49.567  1.00  0.00    -0.311 NA
HETATM   23  H15 UNL     1      19.000   2.017  49.234  1.00  0.00     0.186 HD
ENDBRANCH  18  21
BRANCH  19  24
HETATM   24  O3  UNL     1      21.493   1.559  48.742  1.00  0.00    -0.355 OA
HETATM   25  C16 UNL     1      22.329   2.000  47.720  1.00  0.00     0.210 C 
ENDBRANCH  19  24
ENDBRANCH   1  15
TORSDOF 6
ENDMDL
MODEL 8
REMARK VINA RESULT:      -6.3      4.198      6.503
REMARK  6 active torsions:
REMARK  status: ('A' for Active; 'I' for Inactive)
REMARK    1  A    between atoms: O1_2  and  C2_3 
REMARK    2  A    between atoms: C3_4  and  O2_5 
REMARK    3  A    between atoms: C9_12  and  N2_13 
REMARK    4  A    between atoms: N2_13  and  C10_14 
REMARK    5  A    between atoms: C13_17  and  C14_18 
REMARK    6  A    between atoms: C15_20  and  O3_21 
ROOT
HETATM    1  N2  UNL     1      24.076   1.258  51.742  1.00  0.00    -0.380 N 
HETATM    2  H11 UNL     1      24.621   1.428  50.837  1.00  0.00     0.160 HD
ENDROOT
BRANCH   1   3
HETATM    3  C9  UNL     1      25.034   1.287  52.892  1.00  0.00     0.138 C 
HETATM    4  C5  UNL     1      26.144   0.432  52.510  1.00  0.00     0.118 A 
HETATM    5  C3  UNL     1      26.935  -0.482  53.506  1.00  0.00     0.089 C 
HETATM    6  C6  UNL     1      27.287   1.275  52.208  1.00  0.00     0.003 A 
HETATM    7  C7  UNL     1      26.923   1.379  53.506  1.00  0.00     0.133 A 
HETATM    8  C2  UNL     1      26.666   0.338  54.591  1.00  0.00     0.110 C 
HETATM    9  N1  UNL     1      25.839   2.253  54.206  1.00  0.00    -0.281 NA
HETATM   10  C8  UNL     1      25.335   2.839  53.070  1.00  0.00     0.111 C 
BRANCH   5  11
HETATM   11  O2  UNL     1      27.608  -1.715  53.095  1.00  0.00    -0.357 OA
HETATM   12  C4  UNL     1      28.990  -1.680  53.316  1.00  0.00     0.209 C 
ENDBRANCH   5  11
BRANCH   8  13
HETATM   13  O1  UNL     1      26.415  -0.520  55.640  1.00  0.00    -0.355 OA
HETATM   14  C1  UNL     1      25.056  -0.999  55.684  1.00  0.00     0.209 C 
ENDBRANCH   8  13
ENDBRANCH   1   3
BRANCH   1  15
HETATM   15  C10 UNL     1      22.685   1.073  51.579  1.00  0.00     0.031 A 
HETATM   16  C11 UNL     1      21.910   1.528  50.540  1.00  0.00     0.030 A 
HETATM   17  C12 UNL     1      20.558   1.337  50.366  1.00  0.00     0.018 A 
HETATM   18  C13 UNL     1      19.965   0.606  51.368  1.00  0.00     0.014 A 
HETATM   19  C15 UNL     1      20.671   0.117  52.439  1.00  0.00     0.082 A 
HETATM   20  C17 UNL     1      22.020   0.351  52.541  1.00  0.00     0.066 A 
BRANCH  18  21
HETATM   21  C14 UNL     1      18.538   0.322  51.319  1.00  0.00     0.121 C 
HETATM   22  N3  UNL     1      17.853  -0.144  50.334  1.00  0.00    -0.311 NA
HETATM   23  H15 UNL     1      18.361  -0.354  49.447  1.00  0.00     0.186 HD
ENDBRANCH  18  21
BRANCH  19  24
HETATM   24  O3  UNL     1      20.032  -0.610  53.418  1.00  0.00    -0.355 OA
HETATM   25  C16 UNL     1      20.561  -1.627  54.208  1.00  0.00     0.210 C 
ENDBRANCH  19  24
ENDBRANCH   1  15
TORSDOF 6
ENDMDL
MODEL 9
REMARK VINA RESULT:      -6.2      2.394      6.961
REMARK  6 active torsions:
REMARK  status: ('A' for Active; 'I' for Inactive)
REMARK    1  A    between atoms: O1_2  and  C2_3 
REMARK    2  A    between atoms: C3_4  and  O2_5 
REMARK    3  A    between atoms: C9_12  and  N2_13 
REMARK    4  A    between atoms: N2_13  and  C10_14 
REMARK    5  A    between atoms: C13_17  and  C14_18 
REMARK    6  A    between atoms: C15_20  and  O3_21 
ROOT
HETATM    1  N2  UNL     1      23.140   1.690  51.050  1.00  0.00    -0.380 N 
HETATM    2  H11 UNL     1      23.148   1.160  50.120  1.00  0.00     0.160 HD
ENDROOT
BRANCH   1   3
HETATM    3  C9  UNL     1      22.912   3.143  50.773  1.00  0.00     0.138 C 
HETATM    4  C5  UNL     1      23.841   3.499  49.714  1.00  0.00     0.118 A 
HETATM    5  C3  UNL     1      24.565   4.884  49.607  1.00  0.00     0.089 C 
HETATM    6  C6  UNL     1      23.087   3.678  48.486  1.00  0.00     0.003 A 
HETATM    7  C7  UNL     1      22.737   4.590  49.421  1.00  0.00     0.133 A 
HETATM    8  C2  UNL     1      23.553   5.551  50.280  1.00  0.00     0.110 C 
HETATM    9  N1  UNL     1      21.730   4.516  50.609  1.00  0.00    -0.281 NA
HETATM   10  C8  UNL     1      21.359   3.205  50.434  1.00  0.00     0.111 C 
BRANCH   5  11
HETATM   11  O2  UNL     1      25.864   5.056  48.954  1.00  0.00    -0.357 OA
HETATM   12  C4  UNL     1      26.791   4.073  49.319  1.00  0.00     0.209 C 
ENDBRANCH   5  11
BRANCH   8  13
HETATM   13  O1  UNL     1      24.196   6.456  51.097  1.00  0.00    -0.355 OA
HETATM   14  C1  UNL     1      23.880   7.831  50.797  1.00  0.00     0.209 C 
ENDBRANCH   8  13
ENDBRANCH   1   3
BRANCH   1  15
HETATM   15  C10 UNL     1      23.332   0.890  52.198  1.00  0.00     0.031 A 
HETATM   16  C11 UNL     1      22.357   0.298  52.964  1.00  0.00     0.030 A 
HETATM   17  C12 UNL     1      22.538  -0.496  54.073  1.00  0.00     0.018 A 
HETATM   18  C13 UNL     1      23.857  -0.688  54.411  1.00  0.00     0.014 A 
HETATM   19  C15 UNL     1      24.889  -0.131  53.698  1.00  0.00     0.082 A 
HETATM   20  C17 UNL     1      24.626   0.652  52.601  1.00  0.00     0.066 A 
BRANCH  18  21
HETATM   21  C14 UNL     1      24.204  -1.508  55.563  1.00  0.00     0.121 C 
HETATM   22  N3  UNL     1      25.070  -1.259  56.483  1.00  0.00    -0.311 NA
HETATM   23  H15 UNL     1      25.602  -0.365  56.419  1.00  0.00     0.186 HD
ENDBRANCH  18  21
BRANCH  19  24
HETATM   24  O3  UNL     1      26.194  -0.352  54.076  1.00  0.00    -0.355 OA
HETATM   25  C16 UNL     1      27.269   0.528  53.988  1.00  0.00     0.210 C 
ENDBRANCH  19  24
ENDBRANCH   1  15
TORSDOF 6
ENDMDL
