MODEL 1
REMARK VINA RESULT:     -10.3      0.000      0.000
REMARK  2 active torsions:
REMARK  status: ('A' for Active; 'I' for Inactive)
REMARK    1  A    between atoms: C6_6  and  N1_7 
REMARK    2  A    between atoms: N1_7  and  C7_8 
ROOT
HETATM    1  C7  UNL     1      24.203   0.086  53.889  1.00  0.00     0.141 A 
HETATM    2  N2  UNL     1      23.919  -0.814  54.883  1.00  0.00    -0.224 NA
HETATM    3  C8  UNL     1      22.674  -1.274  54.948  1.00  0.00     0.235 A 
HETATM    4  N3  UNL     1      21.868  -0.778  54.004  1.00  0.00    -0.241 NA
HETATM    5  C9  UNL     1      22.171   0.091  53.051  1.00  0.00     0.069 A 
HETATM    6  C10 UNL     1      23.383   0.636  52.881  1.00  0.00     0.036 A 
HETATM    7  C11 UNL     1      24.246   1.476  52.299  1.00  0.00     0.010 C 
HETATM    8  C12 UNL     1      24.557   2.480  51.296  1.00  0.00     0.154 C 
HETATM    9  N4  UNL     1      23.284   2.700  50.495  1.00  0.00    -0.349 N 
HETATM   10  C13 UNL     1      23.038   2.864  49.043  1.00  0.00     0.127 C 
HETATM   11  C14 UNL     1      22.342   1.932  48.234  1.00  0.00     0.039 C 
HETATM   12  C15 UNL     1      21.089   1.283  48.672  1.00  0.00     0.119 C 
HETATM   13  N5  UNL     1      19.948   1.977  49.175  1.00  0.00    -0.400 N 
HETATM   14  C16 UNL     1      18.929   2.998  49.159  1.00  0.00     0.118 C 
HETATM   15  C17 UNL     1      17.720   2.524  49.964  1.00  0.00     0.020 C 
HETATM   16  C18 UNL     1      17.437   1.065  49.855  1.00  0.00     0.005 C 
HETATM   17  C19 UNL     1      18.534   0.294  50.654  1.00  0.00     0.048 A 
HETATM   18  C20 UNL     1      19.744   1.017  50.304  1.00  0.00     0.067 A 
HETATM   19  C21 UNL     1      20.103   0.360  51.384  1.00  0.00     0.023 A 
HETATM   20  C22 UNL     1      20.999   0.009  52.421  1.00  0.00     0.019 C 
HETATM   21  O1  UNL     1      21.043   1.246  51.064  1.00  0.00     0.000 OA
HETATM   22  C23 UNL     1      20.967   2.537  51.826  1.00  0.00     0.112 C 
HETATM   23  C24 UNL     1      22.328   3.138  51.524  1.00  0.00     0.220 C 
HETATM   24  O2  UNL     1      22.937   4.090  52.003  1.00  0.00    -0.273 OA
ENDROOT
BRANCH   1  25
HETATM   25  N1  UNL     1      25.614   0.335  54.137  1.00  0.00    -0.340 N 
HETATM   26  H7  UNL     1      25.905   1.194  54.690  1.00  0.00     0.167 HD
BRANCH  25  27
HETATM   27  C6  UNL     1      26.618  -0.566  53.643  1.00  0.00     0.034 A 
HETATM   28  C5  UNL     1      26.374  -1.695  52.894  1.00  0.00     0.029 A 
HETATM   29  C4  UNL     1      27.410  -2.503  52.453  1.00  0.00     0.003 A 
HETATM   30  C3  UNL     1      28.716  -2.171  52.770  1.00  0.00     0.007 A 
HETATM   31  C2  UNL     1      29.007  -1.052  53.518  1.00  0.00    -0.060 A 
HETATM   32  C1  UNL     1      30.410  -0.676  53.865  1.00  0.00     0.048 C 
HETATM   33  C25 UNL     1      27.939  -0.272  53.939  1.00  0.00     0.036 A 
ENDBRANCH  25  27
ENDBRANCH   1  25
TORSDOF 2
ENDMDL
MODEL 2
REMARK VINA RESULT:      -9.8      1.955      3.860
REMARK  2 active torsions:
REMARK  status: ('A' for Active; 'I' for Inactive)
REMARK    1  A    between atoms: C6_6  and  N1_7 
REMARK    2  A    between atoms: N1_7  and  C7_8 
ROOT
HETATM    1  C7  UNL     1      25.591   2.433  51.590  1.00  0.00     0.141 A 
HETATM    2  N2  UNL     1      26.774   2.807  51.006  1.00  0.00    -0.224 NA
HETATM    3  C8  UNL     1      26.704   3.398  49.819  1.00  0.00     0.235 A 
HETATM    4  N3  UNL     1      25.456   3.548  49.365  1.00  0.00    -0.241 NA
HETATM    5  C9  UNL     1      24.328   3.179  49.953  1.00  0.00     0.069 A 
HETATM    6  C10 UNL     1      24.260   2.567  51.143  1.00  0.00     0.036 A 
HETATM    7  C11 UNL     1      23.608   1.952  52.136  1.00  0.00     0.010 C 
HETATM    8  C12 UNL     1      22.374   1.488  52.746  1.00  0.00     0.154 C 
HETATM    9  N4  UNL     1      21.248   1.894  51.808  1.00  0.00    -0.349 N 
HETATM   10  C13 UNL     1      19.904   2.466  52.057  1.00  0.00     0.127 C 
HETATM   11  C14 UNL     1      19.504   3.774  51.686  1.00  0.00     0.039 C 
HETATM   12  C15 UNL     1      19.834   4.360  50.370  1.00  0.00     0.119 C 
HETATM   13  N5  UNL     1      19.583   3.728  49.115  1.00  0.00    -0.400 N 
HETATM   14  C16 UNL     1      18.778   3.031  48.142  1.00  0.00     0.118 C 
HETATM   15  C17 UNL     1      19.334   3.287  46.743  1.00  0.00     0.020 C 
HETATM   16  C18 UNL     1      19.887   4.656  46.537  1.00  0.00     0.005 C 
HETATM   17  C19 UNL     1      21.234   4.760  47.318  1.00  0.00     0.048 A 
HETATM   18  C20 UNL     1      20.929   4.077  48.563  1.00  0.00     0.067 A 
HETATM   19  C21 UNL     1      22.243   4.085  48.553  1.00  0.00     0.023 A 
HETATM   20  C22 UNL     1      23.520   3.751  49.059  1.00  0.00     0.019 C 
HETATM   21  O1  UNL     1      21.805   3.296  49.531  1.00  0.00     0.000 OA
HETATM   22  C23 UNL     1      21.772   1.835  49.184  1.00  0.00     0.112 C 
HETATM   23  C24 UNL     1      21.608   1.209  50.557  1.00  0.00     0.220 C 
HETATM   24  O2  UNL     1      21.703   0.052  50.956  1.00  0.00    -0.273 OA
ENDROOT
BRANCH   1  25
HETATM   25  N1  UNL     1      26.069   1.850  52.833  1.00  0.00    -0.340 N 
HETATM   26  H7  UNL     1      25.963   2.391  53.741  1.00  0.00     0.167 HD
BRANCH  25  27
HETATM   27  C6  UNL     1      26.684   0.551  52.848  1.00  0.00     0.034 A 
HETATM   28  C5  UNL     1      26.074  -0.621  52.460  1.00  0.00     0.029 A 
HETATM   29  C4  UNL     1      26.750  -1.830  52.501  1.00  0.00     0.003 A 
HETATM   30  C3  UNL     1      28.064  -1.862  52.938  1.00  0.00     0.007 A 
HETATM   31  C2  UNL     1      28.713  -0.715  53.335  1.00  0.00    -0.060 A 
HETATM   32  C1  UNL     1      30.130  -0.731  53.804  1.00  0.00     0.048 C 
HETATM   33  C25 UNL     1      27.998   0.473  53.278  1.00  0.00     0.036 A 
ENDBRANCH  25  27
ENDBRANCH   1  25
TORSDOF 2
ENDMDL
MODEL 3
REMARK VINA RESULT:      -9.4      1.125      1.663
REMARK  2 active torsions:
REMARK  status: ('A' for Active; 'I' for Inactive)
REMARK    1  A    between atoms: C6_6  and  N1_7 
REMARK    2  A    between atoms: N1_7  and  C7_8 
ROOT
HETATM    1  C7  UNL     1      24.736   0.977  53.327  1.00  0.00     0.141 A 
HETATM    2  N2  UNL     1      24.994  -0.002  54.251  1.00  0.00    -0.224 NA
HETATM    3  C8  UNL     1      23.989  -0.806  54.581  1.00  0.00     0.235 A 
HETATM    4  N3  UNL     1      22.848  -0.532  53.940  1.00  0.00    -0.241 NA
HETATM    5  C9  UNL     1      22.627   0.422  53.047  1.00  0.00     0.069 A 
HETATM    6  C10 UNL     1      23.550   1.302  52.635  1.00  0.00     0.036 A 
HETATM    7  C11 UNL     1      23.955   2.377  51.951  1.00  0.00     0.010 C 
HETATM    8  C12 UNL     1      23.691   3.464  51.023  1.00  0.00     0.154 C 
HETATM    9  N4  UNL     1      22.234   3.333  50.608  1.00  0.00    -0.349 N 
HETATM   10  C13 UNL     1      21.557   3.472  49.297  1.00  0.00     0.127 C 
HETATM   11  C14 UNL     1      20.940   2.408  48.594  1.00  0.00     0.039 C 
HETATM   12  C15 UNL     1      20.084   1.407  49.263  1.00  0.00     0.119 C 
HETATM   13  N5  UNL     1      18.986   1.721  50.119  1.00  0.00    -0.400 N 
HETATM   14  C16 UNL     1      17.767   2.401  50.483  1.00  0.00     0.118 C 
HETATM   15  C17 UNL     1      17.006   1.567  51.513  1.00  0.00     0.020 C 
HETATM   16  C18 UNL     1      17.108   0.094  51.313  1.00  0.00     0.005 C 
HETATM   17  C19 UNL     1      18.550  -0.354  51.709  1.00  0.00     0.048 A 
HETATM   18  C20 UNL     1      19.373   0.702  51.144  1.00  0.00     0.067 A 
HETATM   19  C21 UNL     1      20.182   0.138  52.012  1.00  0.00     0.023 A 
HETATM   20  C22 UNL     1      21.392   0.026  52.735  1.00  0.00     0.019 C 
HETATM   21  O1  UNL     1      20.720   1.270  51.564  1.00  0.00     0.000 OA
HETATM   22  C23 UNL     1      20.516   2.455  52.464  1.00  0.00     0.112 C 
HETATM   23  C24 UNL     1      21.523   3.437  51.892  1.00  0.00     0.220 C 
HETATM   24  O2  UNL     1      21.962   4.506  52.304  1.00  0.00    -0.273 OA
ENDROOT
BRANCH   1  25
HETATM   25  N1  UNL     1      26.038   1.616  53.230  1.00  0.00    -0.340 N 
HETATM   26  H7  UNL     1      26.097   2.658  53.032  1.00  0.00     0.167 HD
BRANCH  25  27
HETATM   27  C6  UNL     1      27.245   0.855  53.399  1.00  0.00     0.034 A 
HETATM   28  C5  UNL     1      28.429   1.344  53.904  1.00  0.00     0.029 A 
HETATM   29  C4  UNL     1      29.543   0.531  54.038  1.00  0.00     0.003 A 
HETATM   30  C3  UNL     1      29.467  -0.798  53.658  1.00  0.00     0.007 A 
HETATM   31  C2  UNL     1      28.305  -1.330  53.146  1.00  0.00    -0.060 A 
HETATM   32  C1  UNL     1      28.204  -2.762  52.736  1.00  0.00     0.048 C 
HETATM   33  C25 UNL     1      27.214  -0.480  53.030  1.00  0.00     0.036 A 
ENDBRANCH  25  27
ENDBRANCH   1  25
TORSDOF 2
ENDMDL
MODEL 4
REMARK VINA RESULT:      -9.1      3.189      8.016
REMARK  2 active torsions:
REMARK  status: ('A' for Active; 'I' for Inactive)
REMARK    1  A    between atoms: C6_6  and  N1_7 
REMARK    2  A    between atoms: N1_7  and  C7_8 
ROOT
HETATM    1  C7  UNL     1      25.281   5.616  49.365  1.00  0.00     0.141 A 
HETATM    2  N2  UNL     1      26.415   5.862  48.637  1.00  0.00    -0.224 NA
HETATM    3  C8  UNL     1      27.403   4.979  48.735  1.00  0.00     0.235 A 
HETATM    4  N3  UNL     1      27.130   3.954  49.550  1.00  0.00    -0.241 NA
HETATM    5  C9  UNL     1      26.020   3.740  50.241  1.00  0.00     0.069 A 
HETATM    6  C10 UNL     1      24.957   4.555  50.237  1.00  0.00     0.036 A 
HETATM    7  C11 UNL     1      23.750   4.948  50.659  1.00  0.00     0.010 C 
HETATM    8  C12 UNL     1      22.562   4.745  51.471  1.00  0.00     0.154 C 
HETATM    9  N4  UNL     1      22.772   3.441  52.225  1.00  0.00    -0.349 N 
HETATM   10  C13 UNL     1      21.866   2.306  52.520  1.00  0.00     0.127 C 
HETATM   11  C14 UNL     1      22.011   1.001  51.986  1.00  0.00     0.039 C 
HETATM   12  C15 UNL     1      23.319   0.320  51.904  1.00  0.00     0.119 C 
HETATM   13  N5  UNL     1      24.228   0.174  52.996  1.00  0.00    -0.400 N 
HETATM   14  C16 UNL     1      24.601  -0.162  54.348  1.00  0.00     0.118 C 
HETATM   15  C17 UNL     1      26.090  -0.501  54.397  1.00  0.00     0.020 C 
HETATM   16  C18 UNL     1      26.602  -1.213  53.192  1.00  0.00     0.005 C 
HETATM   17  C19 UNL     1      26.660  -0.194  52.011  1.00  0.00     0.048 A 
HETATM   18  C20 UNL     1      25.421   0.547  52.174  1.00  0.00     0.067 A 
HETATM   19  C21 UNL     1      26.128   1.335  51.396  1.00  0.00     0.023 A 
HETATM   20  C22 UNL     1      26.367   2.527  50.674  1.00  0.00     0.019 C 
HETATM   21  O1  UNL     1      25.042   1.977  51.819  1.00  0.00     0.000 OA
HETATM   22  C23 UNL     1      25.270   2.874  53.001  1.00  0.00     0.112 C 
HETATM   23  C24 UNL     1      24.000   3.706  52.990  1.00  0.00     0.220 C 
HETATM   24  O2  UNL     1      23.674   4.728  53.587  1.00  0.00    -0.273 OA
ENDROOT
BRANCH   1  25
HETATM   25  N1  UNL     1      24.463   6.760  48.997  1.00  0.00    -0.340 N 
HETATM   26  H7  UNL     1      24.278   7.524  49.712  1.00  0.00     0.167 HD
BRANCH  25  27
HETATM   27  C6  UNL     1      23.903   6.869  47.679  1.00  0.00     0.034 A 
HETATM   28  C5  UNL     1      24.220   7.844  46.759  1.00  0.00     0.029 A 
HETATM   29  C4  UNL     1      23.632   7.865  45.504  1.00  0.00     0.003 A 
HETATM   30  C3  UNL     1      22.709   6.889  45.166  1.00  0.00     0.007 A 
HETATM   31  C2  UNL     1      22.362   5.897  46.054  1.00  0.00    -0.060 A 
HETATM   32  C1  UNL     1      21.373   4.834  45.704  1.00  0.00     0.048 C 
HETATM   33  C25 UNL     1      22.974   5.913  47.299  1.00  0.00     0.036 A 
ENDBRANCH  25  27
ENDBRANCH   1  25
TORSDOF 2
ENDMDL
MODEL 5
REMARK VINA RESULT:      -9.0      6.890      9.382
REMARK  2 active torsions:
REMARK  status: ('A' for Active; 'I' for Inactive)
REMARK    1  A    between atoms: C6_6  and  N1_7 
REMARK    2  A    between atoms: N1_7  and  C7_8 
ROOT
HETATM    1  C7  UNL     1      28.642   7.340  47.360  1.00  0.00     0.141 A 
HETATM    2  N2  UNL     1      29.880   6.756  47.427  1.00  0.00    -0.224 NA
HETATM    3  C8  UNL     1      29.970   5.596  48.068  1.00  0.00     0.235 A 
HETATM    4  N3  UNL     1      28.806   5.162  48.561  1.00  0.00    -0.241 NA
HETATM    5  C9  UNL     1      27.620   5.748  48.479  1.00  0.00     0.069 A 
HETATM    6  C10 UNL     1      27.396   6.920  47.870  1.00  0.00     0.036 A 
HETATM    7  C11 UNL     1      26.628   7.957  47.519  1.00  0.00     0.010 C 
HETATM    8  C12 UNL     1      25.340   8.629  47.490  1.00  0.00     0.154 C 
HETATM    9  N4  UNL     1      24.360   7.717  48.210  1.00  0.00    -0.349 N 
HETATM   10  C13 UNL     1      22.962   7.325  47.911  1.00  0.00     0.127 C 
HETATM   11  C14 UNL     1      22.553   6.019  47.544  1.00  0.00     0.039 C 
HETATM   12  C15 UNL     1      23.058   4.810  48.227  1.00  0.00     0.119 C 
HETATM   13  N5  UNL     1      23.051   4.614  49.641  1.00  0.00    -0.400 N 
HETATM   14  C16 UNL     1      22.456   4.606  50.955  1.00  0.00     0.118 C 
HETATM   15  C17 UNL     1      23.216   3.631  51.853  1.00  0.00     0.020 C 
HETATM   16  C18 UNL     1      23.715   2.410  51.159  1.00  0.00     0.005 C 
HETATM   17  C19 UNL     1      24.909   2.823  50.242  1.00  0.00     0.048 A 
HETATM   18  C20 UNL     1      24.446   4.074  49.667  1.00  0.00     0.067 A 
HETATM   19  C21 UNL     1      25.741   4.120  49.452  1.00  0.00     0.023 A 
HETATM   20  C22 UNL     1      26.937   4.737  49.017  1.00  0.00     0.019 C 
HETATM   21  O1  UNL     1      25.197   5.303  49.176  1.00  0.00     0.000 OA
HETATM   22  C23 UNL     1      25.305   6.311  50.283  1.00  0.00     0.112 C 
HETATM   23  C24 UNL     1      24.958   7.594  49.548  1.00  0.00     0.220 C 
HETATM   24  O2  UNL     1      25.053   8.777  49.859  1.00  0.00    -0.273 OA
ENDROOT
BRANCH   1  25
HETATM   25  N1  UNL     1      28.945   8.543  46.601  1.00  0.00    -0.340 N 
HETATM   26  H7  UNL     1      28.572   8.646  45.612  1.00  0.00     0.167 HD
BRANCH  25  27
HETATM   27  C6  UNL     1      29.743   9.592  47.172  1.00  0.00     0.034 A 
HETATM   28  C5  UNL     1      29.535  10.166  48.406  1.00  0.00     0.029 A 
HETATM   29  C4  UNL     1      30.364  11.171  48.880  1.00  0.00     0.003 A 
HETATM   30  C3  UNL     1      31.422  11.607  48.100  1.00  0.00     0.007 A 
HETATM   31  C2  UNL     1      31.666  11.062  46.859  1.00  0.00    -0.060 A 
HETATM   32  C1  UNL     1      32.806  11.516  46.007  1.00  0.00     0.048 C 
HETATM   33  C25 UNL     1      30.812  10.059  46.425  1.00  0.00     0.036 A 
ENDBRANCH  25  27
ENDBRANCH   1  25
TORSDOF 2
ENDMDL
MODEL 6
REMARK VINA RESULT:      -9.0      3.441      6.193
REMARK  2 active torsions:
REMARK  status: ('A' for Active; 'I' for Inactive)
REMARK    1  A    between atoms: C6_6  and  N1_7 
REMARK    2  A    between atoms: N1_7  and  C7_8 
ROOT
HETATM    1  C7  UNL     1      25.441   4.077  49.740  1.00  0.00     0.141 A 
HETATM    2  N2  UNL     1      26.780   3.897  49.973  1.00  0.00    -0.224 NA
HETATM    3  C8  UNL     1      27.123   2.953  50.841  1.00  0.00     0.235 A 
HETATM    4  N3  UNL     1      26.081   2.300  51.366  1.00  0.00    -0.241 NA
HETATM    5  C9  UNL     1      24.794   2.493  51.120  1.00  0.00     0.069 A 
HETATM    6  C10 UNL     1      24.315   3.417  50.275  1.00  0.00     0.036 A 
HETATM    7  C11 UNL     1      23.330   4.105  49.689  1.00  0.00     0.010 C 
HETATM    8  C12 UNL     1      21.915   4.359  49.473  1.00  0.00     0.154 C 
HETATM    9  N4  UNL     1      21.160   3.352  50.326  1.00  0.00    -0.349 N 
HETATM   10  C13 UNL     1      19.959   2.526  50.059  1.00  0.00     0.127 C 
HETATM   11  C14 UNL     1      19.962   1.113  49.952  1.00  0.00     0.039 C 
HETATM   12  C15 UNL     1      20.711   0.249  50.886  1.00  0.00     0.119 C 
HETATM   13  N5  UNL     1      20.623   0.325  52.309  1.00  0.00    -0.400 N 
HETATM   14  C16 UNL     1      19.929   0.389  53.573  1.00  0.00     0.118 C 
HETATM   15  C17 UNL     1      20.838  -0.141  54.681  1.00  0.00     0.020 C 
HETATM   16  C18 UNL     1      21.718  -1.272  54.271  1.00  0.00     0.005 C 
HETATM   17  C19 UNL     1      22.835  -0.710  53.337  1.00  0.00     0.048 A 
HETATM   18  C20 UNL     1      22.103   0.225  52.500  1.00  0.00     0.067 A 
HETATM   19  C21 UNL     1      23.351   0.602  52.332  1.00  0.00     0.023 A 
HETATM   20  C22 UNL     1      24.366   1.446  51.827  1.00  0.00     0.019 C 
HETATM   21  O1  UNL     1      22.531   1.505  51.798  1.00  0.00     0.000 OA
HETATM   22  C23 UNL     1      22.251   2.689  52.678  1.00  0.00     0.112 C 
HETATM   23  C24 UNL     1      21.637   3.657  51.683  1.00  0.00     0.220 C 
HETATM   24  O2  UNL     1      21.373   4.854  51.749  1.00  0.00    -0.273 OA
ENDROOT
BRANCH   1  25
HETATM   25  N1  UNL     1      25.473   5.153  48.762  1.00  0.00    -0.340 N 
HETATM   26  H7  UNL     1      24.949   5.043  47.845  1.00  0.00     0.167 HD
BRANCH  25  27
HETATM   27  C6  UNL     1      26.205   6.361  49.023  1.00  0.00     0.034 A 
HETATM   28  C5  UNL     1      25.869   7.307  49.966  1.00  0.00     0.029 A 
HETATM   29  C4  UNL     1      26.642   8.442  50.152  1.00  0.00     0.003 A 
HETATM   30  C3  UNL     1      27.774   8.630  49.379  1.00  0.00     0.007 A 
HETATM   31  C2  UNL     1      28.148   7.712  48.424  1.00  0.00    -0.060 A 
HETATM   32  C1  UNL     1      29.369   7.898  47.584  1.00  0.00     0.048 C 
HETATM   33  C25 UNL     1      27.345   6.591  48.270  1.00  0.00     0.036 A 
ENDBRANCH  25  27
ENDBRANCH   1  25
TORSDOF 2
ENDMDL
MODEL 7
REMARK VINA RESULT:      -8.6      7.328     11.205
REMARK  2 active torsions:
REMARK  status: ('A' for Active; 'I' for Inactive)
REMARK    1  A    between atoms: C6_6  and  N1_7 
REMARK    2  A    between atoms: N1_7  and  C7_8 
ROOT
HETATM    1  C7  UNL     1      25.490   6.856  49.950  1.00  0.00     0.141 A 
HETATM    2  N2  UNL     1      24.740   5.709  49.924  1.00  0.00    -0.224 NA
HETATM    3  C8  UNL     1      25.287   4.639  49.356  1.00  0.00     0.235 A 
HETATM    4  N3  UNL     1      26.521   4.850  48.888  1.00  0.00    -0.241 NA
HETATM    5  C9  UNL     1      27.226   5.971  48.930  1.00  0.00     0.069 A 
HETATM    6  C10 UNL     1      26.788   7.120  49.464  1.00  0.00     0.036 A 
HETATM    7  C11 UNL     1      26.892   8.423  49.748  1.00  0.00     0.010 C 
HETATM    8  C12 UNL     1      27.641   9.668  49.731  1.00  0.00     0.154 C 
HETATM    9  N4  UNL     1      28.974   9.363  49.067  1.00  0.00    -0.349 N 
HETATM   10  C13 UNL     1      30.361   9.775  49.386  1.00  0.00     0.127 C 
HETATM   11  C14 UNL     1      31.379   8.896  49.833  1.00  0.00     0.039 C 
HETATM   12  C15 UNL     1      31.599   7.566  49.229  1.00  0.00     0.119 C 
HETATM   13  N5  UNL     1      31.750   7.326  47.830  1.00  0.00    -0.400 N 
HETATM   14  C16 UNL     1      32.302   7.557  46.517  1.00  0.00     0.118 C 
HETATM   15  C17 UNL     1      32.188   6.282  45.684  1.00  0.00     0.020 C 
HETATM   16  C18 UNL     1      32.377   5.020  46.454  1.00  0.00     0.005 C 
HETATM   17  C19 UNL     1      31.115   4.799  47.346  1.00  0.00     0.048 A 
HETATM   18  C20 UNL     1      30.841   6.137  47.841  1.00  0.00     0.067 A 
HETATM   19  C21 UNL     1      29.706   5.512  48.056  1.00  0.00     0.023 A 
HETATM   20  C22 UNL     1      28.351   5.438  48.454  1.00  0.00     0.019 C 
HETATM   21  O1  UNL     1      29.546   6.818  48.256  1.00  0.00     0.000 OA
HETATM   22  C23 UNL     1      28.962   7.560  47.089  1.00  0.00     0.112 C 
HETATM   23  C24 UNL     1      28.569   8.873  47.740  1.00  0.00     0.220 C 
HETATM   24  O2  UNL     1      27.880   9.814  47.356  1.00  0.00    -0.273 OA
ENDROOT
BRANCH   1  25
HETATM   25  N1  UNL     1      24.583   7.763  50.633  1.00  0.00    -0.340 N 
HETATM   26  H7  UNL     1      24.882   8.213  51.548  1.00  0.00     0.167 HD
BRANCH  25  27
HETATM   27  C6  UNL     1      23.287   8.058  50.087  1.00  0.00     0.034 A 
HETATM   28  C5  UNL     1      22.089   7.618  50.603  1.00  0.00     0.029 A 
HETATM   29  C4  UNL     1      20.883   7.961  50.011  1.00  0.00     0.003 A 
HETATM   30  C3  UNL     1      20.882   8.760  48.880  1.00  0.00     0.007 A 
HETATM   31  C2  UNL     1      22.056   9.222  48.330  1.00  0.00    -0.060 A 
HETATM   32  C1  UNL     1      22.072  10.089  47.114  1.00  0.00     0.048 C 
HETATM   33  C25 UNL     1      23.239   8.854  48.954  1.00  0.00     0.036 A 
ENDBRANCH  25  27
ENDBRANCH   1  25
TORSDOF 2
ENDMDL
MODEL 8
REMARK VINA RESULT:      -8.4     10.793     14.216
REMARK  2 active torsions:
REMARK  status: ('A' for Active; 'I' for Inactive)
REMARK    1  A    between atoms: C6_6  and  N1_7 
REMARK    2  A    between atoms: N1_7  and  C7_8 
ROOT
HETATM    1  C7  UNL     1      29.365  10.758  48.957  1.00  0.00     0.141 A 
HETATM    2  N2  UNL     1      28.109  10.495  49.441  1.00  0.00    -0.224 NA
HETATM    3  C8  UNL     1      27.713   9.227  49.442  1.00  0.00     0.235 A 
HETATM    4  N3  UNL     1      28.626   8.377  48.962  1.00  0.00    -0.241 NA
HETATM    5  C9  UNL     1      29.837   8.660  48.502  1.00  0.00     0.069 A 
HETATM    6  C10 UNL     1      30.352   9.894  48.438  1.00  0.00     0.036 A 
HETATM    7  C11 UNL     1      31.292  10.781  48.093  1.00  0.00     0.010 C 
HETATM    8  C12 UNL     1      32.593  11.094  47.525  1.00  0.00     0.154 C 
HETATM    9  N4  UNL     1      33.214   9.770  47.111  1.00  0.00    -0.349 N 
HETATM   10  C13 UNL     1      34.589   9.233  47.241  1.00  0.00     0.127 C 
HETATM   11  C14 UNL     1      34.951   8.140  48.067  1.00  0.00     0.039 C 
HETATM   12  C15 UNL     1      34.144   6.906  48.148  1.00  0.00     0.119 C 
HETATM   13  N5  UNL     1      33.710   6.146  47.020  1.00  0.00    -0.400 N 
HETATM   14  C16 UNL     1      33.882   5.461  45.762  1.00  0.00     0.118 C 
HETATM   15  C17 UNL     1      32.792   4.401  45.605  1.00  0.00     0.020 C 
HETATM   16  C18 UNL     1      32.400   3.725  46.874  1.00  0.00     0.005 C 
HETATM   17  C19 UNL     1      31.582   4.738  47.734  1.00  0.00     0.048 A 
HETATM   18  C20 UNL     1      32.322   5.974  47.552  1.00  0.00     0.067 A 
HETATM   19  C21 UNL     1      31.161   6.396  48.001  1.00  0.00     0.023 A 
HETATM   20  C22 UNL     1      30.220   7.391  48.354  1.00  0.00     0.019 C 
HETATM   21  O1  UNL     1      31.882   7.431  47.574  1.00  0.00     0.000 OA
HETATM   22  C23 UNL     1      31.554   7.887  46.182  1.00  0.00     0.112 C 
HETATM   23  C24 UNL     1      32.236   9.243  46.148  1.00  0.00     0.220 C 
HETATM   24  O2  UNL     1      32.175  10.180  45.356  1.00  0.00    -0.273 OA
ENDROOT
BRANCH   1  25
HETATM   25  N1  UNL     1      29.428  12.200  49.123  1.00  0.00    -0.340 N 
HETATM   26  H7  UNL     1      29.963  12.611  49.944  1.00  0.00     0.167 HD
BRANCH  25  27
HETATM   27  C6  UNL     1      28.775  13.078  48.192  1.00  0.00     0.034 A 
HETATM   28  C5  UNL     1      29.270  13.439  46.959  1.00  0.00     0.029 A 
HETATM   29  C4  UNL     1      28.563  14.288  46.122  1.00  0.00     0.003 A 
HETATM   30  C3  UNL     1      27.336  14.782  46.530  1.00  0.00     0.007 A 
HETATM   31  C2  UNL     1      26.803  14.449  47.754  1.00  0.00    -0.060 A 
HETATM   32  C1  UNL     1      25.479  14.969  48.208  1.00  0.00     0.048 C 
HETATM   33  C25 UNL     1      27.544  13.597  48.560  1.00  0.00     0.036 A 
ENDBRANCH  25  27
ENDBRANCH   1  25
TORSDOF 2
ENDMDL
MODEL 9
REMARK VINA RESULT:      -8.2      3.480      5.273
REMARK  2 active torsions:
REMARK  status: ('A' for Active; 'I' for Inactive)
REMARK    1  A    between atoms: C6_6  and  N1_7 
REMARK    2  A    between atoms: N1_7  and  C7_8 
ROOT
HETATM    1  C7  UNL     1      22.640   2.449  51.241  1.00  0.00     0.141 A 
HETATM    2  N2  UNL     1      22.174   1.201  50.918  1.00  0.00    -0.224 NA
HETATM    3  C8  UNL     1      21.720   1.024  49.682  1.00  0.00     0.235 A 
HETATM    4  N3  UNL     1      21.792   2.121  48.920  1.00  0.00    -0.241 NA
HETATM    5  C9  UNL     1      22.251   3.317  49.259  1.00  0.00     0.069 A 
HETATM    6  C10 UNL     1      22.727   3.629  50.472  1.00  0.00     0.036 A 
HETATM    7  C11 UNL     1      23.202   4.480  51.387  1.00  0.00     0.010 C 
HETATM    8  C12 UNL     1      23.640   5.810  51.775  1.00  0.00     0.154 C 
HETATM    9  N4  UNL     1      23.501   6.688  50.542  1.00  0.00    -0.349 N 
HETATM   10  C13 UNL     1      24.378   7.731  49.960  1.00  0.00     0.127 C 
HETATM   11  C14 UNL     1      25.057   7.613  48.722  1.00  0.00     0.039 C 
HETATM   12  C15 UNL     1      24.409   7.065  47.512  1.00  0.00     0.119 C 
HETATM   13  N5  UNL     1      23.155   7.507  46.993  1.00  0.00    -0.400 N 
HETATM   14  C16 UNL     1      22.197   8.494  46.558  1.00  0.00     0.118 C 
HETATM   15  C17 UNL     1      21.219   7.856  45.572  1.00  0.00     0.020 C 
HETATM   16  C18 UNL     1      21.825   6.833  44.674  1.00  0.00     0.005 C 
HETATM   17  C19 UNL     1      22.129   5.558  45.520  1.00  0.00     0.048 A 
HETATM   18  C20 UNL     1      22.657   6.117  46.753  1.00  0.00     0.067 A 
HETATM   19  C21 UNL     1      22.336   4.893  47.106  1.00  0.00     0.023 A 
HETATM   20  C22 UNL     1      22.173   3.839  48.035  1.00  0.00     0.019 C 
HETATM   21  O1  UNL     1      22.634   5.610  48.187  1.00  0.00     0.000 OA
HETATM   22  C23 UNL     1      21.444   6.173  48.909  1.00  0.00     0.112 C 
HETATM   23  C24 UNL     1      22.067   6.582  50.231  1.00  0.00     0.220 C 
HETATM   24  O2  UNL     1      21.580   6.929  51.303  1.00  0.00    -0.273 OA
ENDROOT
BRANCH   1  25
HETATM   25  N1  UNL     1      23.041   2.244  52.623  1.00  0.00    -0.340 N 
HETATM   26  H7  UNL     1      22.468   2.678  53.405  1.00  0.00     0.167 HD
BRANCH  25  27
HETATM   27  C6  UNL     1      24.203   1.462  52.944  1.00  0.00     0.034 A 
HETATM   28  C5  UNL     1      24.198   0.119  53.246  1.00  0.00     0.029 A 
HETATM   29  C4  UNL     1      25.373  -0.556  53.536  1.00  0.00     0.003 A 
HETATM   30  C3  UNL     1      26.576   0.130  53.520  1.00  0.00     0.007 A 
HETATM   31  C2  UNL     1      26.628   1.473  53.224  1.00  0.00    -0.060 A 
HETATM   32  C1  UNL     1      27.916   2.227  53.197  1.00  0.00     0.048 C 
HETATM   33  C25 UNL     1      25.428   2.109  52.940  1.00  0.00     0.036 A 
ENDBRANCH  25  27
ENDBRANCH   1  25
TORSDOF 2
ENDMDL
