MODEL 1
REMARK VINA RESULT:      -8.3      0.000      0.000
REMARK  5 active torsions:
REMARK  status: ('A' for Active; 'I' for Inactive)
REMARK    1  A    between atoms: C2_2  and  C3_3 
REMARK    2  A    between atoms: C3_3  and  N4_15 
REMARK    3  A    between atoms: C4_4  and  C5_5 
REMARK    4  A    between atoms: N4_15  and  C12_16 
REMARK    5  A    between atoms: C12_16  and  C13_17 
ROOT
HETATM    1  C3  UNL     1      24.047   0.203  53.400  1.00  0.00     0.024 C 
HETATM    2  C4  UNL     1      24.110   1.445  52.989  1.00  0.00     0.031 C 
ENDROOT
BRANCH   1   3
HETATM    3  C2  UNL     1      22.761  -0.476  53.450  1.00  0.00     0.003 C 
HETATM    4  C1  UNL     1      22.242  -0.977  54.583  1.00  0.00     0.033 C 
ENDBRANCH   1   3
BRANCH   1   5
HETATM    5  N4  UNL     1      25.185  -0.547  53.811  1.00  0.00    -0.386 N 
HETATM    6  H11 UNL     1      24.926  -0.465  54.813  1.00  0.00     0.160 HD
BRANCH   5   7
HETATM    7  C12 UNL     1      26.057  -1.011  52.776  1.00  0.00     0.161 C 
BRANCH   7   8
HETATM    8  C13 UNL     1      27.496  -0.844  53.062  1.00  0.00    -0.002 A 
HETATM    9  C14 UNL     1      27.801   0.483  53.340  1.00  0.00     0.012 A 
HETATM   10  C15 UNL     1      29.108   0.874  53.641  1.00  0.00     0.001 A 
HETATM   11  C16 UNL     1      30.129  -0.072  53.664  1.00  0.00     0.003 A 
HETATM   12  C17 UNL     1      29.788  -1.395  53.381  1.00  0.00     0.043 A 
HETATM   13  C18 UNL     1      28.495  -1.768  53.086  1.00  0.00     0.124 A 
HETATM   14  F1  UNL     1      28.101  -3.024  52.804  1.00  0.00    -0.205 F 
ENDBRANCH   7   8
ENDBRANCH   5   7
ENDBRANCH   1   5
BRANCH   2  15
HETATM   15  C5  UNL     1      22.876   2.113  52.593  1.00  0.00     0.027 C 
HETATM   16  C6  UNL     1      22.876   3.364  52.170  1.00  0.00     0.015 A 
HETATM   17  C7  UNL     1      21.731   4.205  51.728  1.00  0.00     0.101 A 
HETATM   18  N3  UNL     1      24.033   4.210  52.048  1.00  0.00    -0.344 N 
HETATM   19  C8  UNL     1      22.332   5.495  51.377  1.00  0.00     0.011 A 
HETATM   20  C9  UNL     1      21.676   6.619  50.907  1.00  0.00     0.129 A 
HETATM   21  C11 UNL     1      23.683   5.503  51.563  1.00  0.00     0.137 A 
HETATM   22  N1  UNL     1      22.424   7.722  50.640  1.00  0.00    -0.253 NA
HETATM   23  C10 UNL     1      23.773   7.713  50.831  1.00  0.00     0.234 A 
HETATM   24  N2  UNL     1      24.376   6.612  51.286  1.00  0.00    -0.224 NA
HETATM   25  H10 UNL     1      25.037   3.970  52.268  1.00  0.00     0.167 HD
ENDBRANCH   2  15
TORSDOF 5
ENDMDL
MODEL 2
REMARK VINA RESULT:      -8.2      3.238      5.212
REMARK  5 active torsions:
REMARK  status: ('A' for Active; 'I' for Inactive)
REMARK    1  A    between atoms: C2_2  and  C3_3 
REMARK    2  A    between atoms: C3_3  and  N4_15 
REMARK    3  A    between atoms: C4_4  and  C5_5 
REMARK    4  A    between atoms: N4_15  and  C12_16 
REMARK    5  A    between atoms: C12_16  and  C13_17 
ROOT
HETATM    1  C3  UNL     1      25.524   2.469  51.489  1.00  0.00     0.024 C 
HETATM    2  C4  UNL     1      24.444   1.831  51.864  1.00  0.00     0.031 C 
ENDROOT
BRANCH   1   3
HETATM    3  C2  UNL     1      25.540   3.174  50.215  1.00  0.00     0.003 C 
HETATM    4  C1  UNL     1      26.656   3.705  49.688  1.00  0.00     0.033 C 
ENDBRANCH   1   3
BRANCH   1   5
HETATM    5  N4  UNL     1      26.715   2.522  52.266  1.00  0.00    -0.386 N 
HETATM    6  H11 UNL     1      27.171   3.169  51.595  1.00  0.00     0.160 HD
BRANCH   5   7
HETATM    7  C12 UNL     1      26.731   1.748  53.470  1.00  0.00     0.161 C 
BRANCH   7   8
HETATM    8  C13 UNL     1      27.712   0.645  53.479  1.00  0.00    -0.002 A 
HETATM    9  C14 UNL     1      27.163  -0.519  52.957  1.00  0.00     0.012 A 
HETATM   10  C15 UNL     1      27.914  -1.694  52.869  1.00  0.00     0.001 A 
HETATM   11  C16 UNL     1      29.234  -1.710  53.308  1.00  0.00     0.003 A 
HETATM   12  C17 UNL     1      29.755  -0.524  53.827  1.00  0.00     0.043 A 
HETATM   13  C18 UNL     1      29.004   0.628  53.909  1.00  0.00     0.124 A 
HETATM   14  F1  UNL     1      29.445   1.802  54.398  1.00  0.00    -0.205 F 
ENDBRANCH   7   8
ENDBRANCH   5   7
ENDBRANCH   1   5
BRANCH   2  15
HETATM   15  C5  UNL     1      23.282   1.847  50.983  1.00  0.00     0.027 C 
HETATM   16  C6  UNL     1      22.150   1.260  51.327  1.00  0.00     0.015 A 
HETATM   17  C7  UNL     1      20.871   1.170  50.570  1.00  0.00     0.101 A 
HETATM   18  N3  UNL     1      21.909   0.554  52.557  1.00  0.00    -0.344 N 
HETATM   19  C8  UNL     1      19.977   0.405  51.443  1.00  0.00     0.011 A 
HETATM   20  C9  UNL     1      18.664   0.052  51.187  1.00  0.00     0.129 A 
HETATM   21  C11 UNL     1      20.581   0.040  52.610  1.00  0.00     0.137 A 
HETATM   22  N1  UNL     1      18.005  -0.665  52.134  1.00  0.00    -0.253 NA
HETATM   23  C10 UNL     1      18.623  -1.021  53.295  1.00  0.00     0.234 A 
HETATM   24  N2  UNL     1      19.892  -0.665  53.512  1.00  0.00    -0.224 NA
HETATM   25  H10 UNL     1      22.580   0.398  53.356  1.00  0.00     0.167 HD
ENDBRANCH   2  15
TORSDOF 5
ENDMDL
MODEL 3
REMARK VINA RESULT:      -8.0      2.604      3.009
REMARK  5 active torsions:
REMARK  status: ('A' for Active; 'I' for Inactive)
REMARK    1  A    between atoms: C2_2  and  C3_3 
REMARK    2  A    between atoms: C3_3  and  N4_15 
REMARK    3  A    between atoms: C4_4  and  C5_5 
REMARK    4  A    between atoms: N4_15  and  C12_16 
REMARK    5  A    between atoms: C12_16  and  C13_17 
ROOT
HETATM    1  C3  UNL     1      23.911   0.766  52.572  1.00  0.00     0.024 C 
HETATM    2  C4  UNL     1      24.664   1.453  51.749  1.00  0.00     0.031 C 
ENDROOT
BRANCH   1   3
HETATM    3  C2  UNL     1      22.658   1.334  53.047  1.00  0.00     0.003 C 
HETATM    4  C1  UNL     1      21.577   0.587  53.327  1.00  0.00     0.033 C 
ENDBRANCH   1   3
BRANCH   1   5
HETATM    5  N4  UNL     1      24.247  -0.533  53.044  1.00  0.00    -0.386 N 
HETATM    6  H11 UNL     1      23.731  -0.991  52.270  1.00  0.00     0.160 HD
BRANCH   5   7
HETATM    7  C12 UNL     1      25.046  -0.599  54.231  1.00  0.00     0.161 C 
BRANCH   7   8
HETATM    8  C13 UNL     1      26.503  -0.612  53.991  1.00  0.00    -0.002 A 
HETATM    9  C14 UNL     1      27.160   0.259  54.852  1.00  0.00     0.012 A 
HETATM   10  C15 UNL     1      28.547   0.409  54.802  1.00  0.00     0.001 A 
HETATM   11  C16 UNL     1      29.294  -0.319  53.881  1.00  0.00     0.003 A 
HETATM   12  C17 UNL     1      28.603  -1.185  53.032  1.00  0.00     0.043 A 
HETATM   13  C18 UNL     1      27.234  -1.324  53.091  1.00  0.00     0.124 A 
HETATM   14  F1  UNL     1      26.509  -2.139  52.302  1.00  0.00    -0.205 F 
ENDBRANCH   7   8
ENDBRANCH   5   7
ENDBRANCH   1   5
BRANCH   2  15
HETATM   15  C5  UNL     1      24.217   2.777  51.333  1.00  0.00     0.027 C 
HETATM   16  C6  UNL     1      24.993   3.573  50.620  1.00  0.00     0.015 A 
HETATM   17  C7  UNL     1      24.716   4.942  50.108  1.00  0.00     0.101 A 
HETATM   18  N3  UNL     1      26.326   3.267  50.173  1.00  0.00    -0.344 N 
HETATM   19  C8  UNL     1      25.936   5.324  49.390  1.00  0.00     0.011 A 
HETATM   20  C9  UNL     1      26.175   6.517  48.731  1.00  0.00     0.129 A 
HETATM   21  C11 UNL     1      26.884   4.345  49.425  1.00  0.00     0.137 A 
HETATM   22  N1  UNL     1      27.381   6.673  48.124  1.00  0.00    -0.253 NA
HETATM   23  C10 UNL     1      28.317   5.684  48.169  1.00  0.00     0.234 A 
HETATM   24  N2  UNL     1      28.055   4.545  48.814  1.00  0.00    -0.224 NA
HETATM   25  H10 UNL     1      26.877   2.383  50.338  1.00  0.00     0.167 HD
ENDBRANCH   2  15
TORSDOF 5
ENDMDL
MODEL 4
REMARK VINA RESULT:      -8.0      3.643      5.818
REMARK  5 active torsions:
REMARK  status: ('A' for Active; 'I' for Inactive)
REMARK    1  A    between atoms: C2_2  and  C3_3 
REMARK    2  A    between atoms: C3_3  and  N4_15 
REMARK    3  A    between atoms: C4_4  and  C5_5 
REMARK    4  A    between atoms: N4_15  and  C12_16 
REMARK    5  A    between atoms: C12_16  and  C13_17 
ROOT
HETATM    1  C3  UNL     1      25.524   2.724  51.218  1.00  0.00     0.024 C 
HETATM    2  C4  UNL     1      25.497   3.487  50.154  1.00  0.00     0.031 C 
ENDROOT
BRANCH   1   3
HETATM    3  C2  UNL     1      26.763   2.062  51.600  1.00  0.00     0.003 C 
HETATM    4  C1  UNL     1      27.160   1.934  52.877  1.00  0.00     0.033 C 
ENDBRANCH   1   3
BRANCH   1   5
HETATM    5  N4  UNL     1      24.391   2.494  52.048  1.00  0.00    -0.386 N 
HETATM    6  H11 UNL     1      24.657   3.265  52.690  1.00  0.00     0.160 HD
BRANCH   5   7
HETATM    7  C12 UNL     1      23.515   1.432  51.659  1.00  0.00     0.161 C 
BRANCH   7   8
HETATM    8  C13 UNL     1      23.003   0.616  52.778  1.00  0.00    -0.002 A 
HETATM    9  C14 UNL     1      21.692   0.956  53.088  1.00  0.00     0.012 A 
HETATM   10  C15 UNL     1      21.004   0.310  54.118  1.00  0.00     0.001 A 
HETATM   11  C16 UNL     1      21.632  -0.691  54.853  1.00  0.00     0.003 A 
HETATM   12  C17 UNL     1      22.949  -1.008  54.515  1.00  0.00     0.043 A 
HETATM   13  C18 UNL     1      23.616  -0.364  53.497  1.00  0.00     0.124 A 
HETATM   14  F1  UNL     1      24.883  -0.621  53.123  1.00  0.00    -0.205 F 
ENDBRANCH   7   8
ENDBRANCH   5   7
ENDBRANCH   1   5
BRANCH   2  15
HETATM   15  C5  UNL     1      26.722   3.648  49.379  1.00  0.00     0.027 C 
HETATM   16  C6  UNL     1      27.185   4.844  49.065  1.00  0.00     0.015 A 
HETATM   17  C7  UNL     1      28.403   5.206  48.290  1.00  0.00     0.101 A 
HETATM   18  N3  UNL     1      26.580   6.100  49.420  1.00  0.00    -0.344 N 
HETATM   19  C8  UNL     1      28.404   6.672  48.261  1.00  0.00     0.011 A 
HETATM   20  C9  UNL     1      29.339   7.492  47.657  1.00  0.00     0.129 A 
HETATM   21  C11 UNL     1      27.336   7.201  48.923  1.00  0.00     0.137 A 
HETATM   22  N1  UNL     1      29.154   8.835  47.747  1.00  0.00    -0.253 NA
HETATM   23  C10 UNL     1      28.081   9.349  48.412  1.00  0.00     0.234 A 
HETATM   24  N2  UNL     1      27.196   8.528  48.985  1.00  0.00    -0.224 NA
HETATM   25  H10 UNL     1      25.696   6.259  49.974  1.00  0.00     0.167 HD
ENDBRANCH   2  15
TORSDOF 5
ENDMDL
MODEL 5
REMARK VINA RESULT:      -7.9      4.562      5.720
REMARK  5 active torsions:
REMARK  status: ('A' for Active; 'I' for Inactive)
REMARK    1  A    between atoms: C2_2  and  C3_3 
REMARK    2  A    between atoms: C3_3  and  N4_15 
REMARK    3  A    between atoms: C4_4  and  C5_5 
REMARK    4  A    between atoms: N4_15  and  C12_16 
REMARK    5  A    between atoms: C12_16  and  C13_17 
ROOT
HETATM    1  C3  UNL     1      25.917   3.226  50.342  1.00  0.00     0.024 C 
HETATM    2  C4  UNL     1      26.831   3.769  49.576  1.00  0.00     0.031 C 
ENDROOT
BRANCH   1   3
HETATM    3  C2  UNL     1      24.622   3.874  50.489  1.00  0.00     0.003 C 
HETATM    4  C1  UNL     1      23.470   3.302  50.100  1.00  0.00     0.033 C 
ENDBRANCH   1   3
BRANCH   1   5
HETATM    5  N4  UNL     1      26.113   2.012  51.057  1.00  0.00    -0.386 N 
HETATM    6  H11 UNL     1      25.928   1.439  50.213  1.00  0.00     0.160 HD
BRANCH   5   7
HETATM    7  C12 UNL     1      26.434   2.130  52.447  1.00  0.00     0.161 C 
BRANCH   7   8
HETATM    8  C13 UNL     1      27.517   1.238  52.906  1.00  0.00    -0.002 A 
HETATM    9  C14 UNL     1      27.186  -0.097  52.704  1.00  0.00     0.012 A 
HETATM   10  C15 UNL     1      28.065  -1.120  53.065  1.00  0.00     0.001 A 
HETATM   11  C16 UNL     1      29.295  -0.810  53.638  1.00  0.00     0.003 A 
HETATM   12  C17 UNL     1      29.596   0.540  53.827  1.00  0.00     0.043 A 
HETATM   13  C18 UNL     1      28.720   1.540  53.466  1.00  0.00     0.124 A 
HETATM   14  F1  UNL     1      28.949   2.857  53.622  1.00  0.00    -0.205 F 
ENDBRANCH   7   8
ENDBRANCH   5   7
ENDBRANCH   1   5
BRANCH   2  15
HETATM   15  C5  UNL     1      26.517   5.017  48.891  1.00  0.00     0.027 C 
HETATM   16  C6  UNL     1      27.464   5.871  48.547  1.00  0.00     0.015 A 
HETATM   17  C7  UNL     1      27.341   7.180  47.851  1.00  0.00     0.101 A 
HETATM   18  N3  UNL     1      28.873   5.705  48.788  1.00  0.00    -0.344 N 
HETATM   19  C8  UNL     1      28.717   7.674  47.742  1.00  0.00     0.011 A 
HETATM   20  C9  UNL     1      29.132   8.862  47.167  1.00  0.00     0.129 A 
HETATM   21  C11 UNL     1      29.620   6.812  48.290  1.00  0.00     0.137 A 
HETATM   22  N1  UNL     1      30.464   9.134  47.169  1.00  0.00    -0.253 NA
HETATM   23  C10 UNL     1      31.353   8.261  47.721  1.00  0.00     0.234 A 
HETATM   24  N2  UNL     1      30.919   7.123  48.269  1.00  0.00    -0.224 NA
HETATM   25  H10 UNL     1      29.358   4.896  49.262  1.00  0.00     0.167 HD
ENDBRANCH   2  15
TORSDOF 5
ENDMDL
MODEL 6
REMARK VINA RESULT:      -7.8      2.717      5.095
REMARK  5 active torsions:
REMARK  status: ('A' for Active; 'I' for Inactive)
REMARK    1  A    between atoms: C2_2  and  C3_3 
REMARK    2  A    between atoms: C3_3  and  N4_15 
REMARK    3  A    between atoms: C4_4  and  C5_5 
REMARK    4  A    between atoms: N4_15  and  C12_16 
REMARK    5  A    between atoms: C12_16  and  C13_17 
ROOT
HETATM    1  C3  UNL     1      26.142   1.405  52.590  1.00  0.00     0.024 C 
HETATM    2  C4  UNL     1      25.593   2.008  51.565  1.00  0.00     0.031 C 
ENDROOT
BRANCH   1   3
HETATM    3  C2  UNL     1      27.587   1.242  52.641  1.00  0.00     0.003 C 
HETATM    4  C1  UNL     1      28.235   0.799  53.732  1.00  0.00     0.033 C 
ENDBRANCH   1   3
BRANCH   1   5
HETATM    5  N4  UNL     1      25.398   0.885  53.686  1.00  0.00    -0.386 N 
HETATM    6  H11 UNL     1      25.540   1.749  54.243  1.00  0.00     0.160 HD
BRANCH   5   7
HETATM    7  C12 UNL     1      24.863  -0.433  53.532  1.00  0.00     0.161 C 
BRANCH   7   8
HETATM    8  C13 UNL     1      23.402  -0.530  53.720  1.00  0.00    -0.002 A 
HETATM    9  C14 UNL     1      22.720   0.044  52.654  1.00  0.00     0.012 A 
HETATM   10  C15 UNL     1      21.324   0.066  52.620  1.00  0.00     0.001 A 
HETATM   11  C16 UNL     1      20.594  -0.491  53.666  1.00  0.00     0.003 A 
HETATM   12  C17 UNL     1      21.310  -1.059  54.720  1.00  0.00     0.043 A 
HETATM   13  C18 UNL     1      22.687  -1.075  54.742  1.00  0.00     0.124 A 
HETATM   14  F1  UNL     1      23.435  -1.605  55.727  1.00  0.00    -0.205 F 
ENDBRANCH   7   8
ENDBRANCH   5   7
ENDBRANCH   1   5
BRANCH   2  15
HETATM   15  C5  UNL     1      26.457   2.501  50.499  1.00  0.00     0.027 C 
HETATM   16  C6  UNL     1      26.393   3.752  50.084  1.00  0.00     0.015 A 
HETATM   17  C7  UNL     1      27.183   4.431  49.020  1.00  0.00     0.101 A 
HETATM   18  N3  UNL     1      25.504   4.762  50.594  1.00  0.00    -0.344 N 
HETATM   19  C8  UNL     1      26.677   5.807  49.003  1.00  0.00     0.011 A 
HETATM   20  C9  UNL     1      27.097   6.837  48.181  1.00  0.00     0.129 A 
HETATM   21  C11 UNL     1      25.692   6.007  49.925  1.00  0.00     0.137 A 
HETATM   22  N1  UNL     1      26.494   8.047  48.326  1.00  0.00    -0.253 NA
HETATM   23  C10 UNL     1      25.512   8.230  49.252  1.00  0.00     0.234 A 
HETATM   24  N2  UNL     1      25.129   7.214  50.030  1.00  0.00    -0.224 NA
HETATM   25  H10 UNL     1      24.786   4.665  51.360  1.00  0.00     0.167 HD
ENDBRANCH   2  15
TORSDOF 5
ENDMDL
MODEL 7
REMARK VINA RESULT:      -7.8      3.787      4.782
REMARK  5 active torsions:
REMARK  status: ('A' for Active; 'I' for Inactive)
REMARK    1  A    between atoms: C2_2  and  C3_3 
REMARK    2  A    between atoms: C3_3  and  N4_15 
REMARK    3  A    between atoms: C4_4  and  C5_5 
REMARK    4  A    between atoms: N4_15  and  C12_16 
REMARK    5  A    between atoms: C12_16  and  C13_17 
ROOT
HETATM    1  C3  UNL     1      24.661   2.906  51.162  1.00  0.00     0.024 C 
HETATM    2  C4  UNL     1      25.132   3.149  49.964  1.00  0.00     0.031 C 
ENDROOT
BRANCH   1   3
HETATM    3  C2  UNL     1      24.146   4.002  51.970  1.00  0.00     0.003 C 
HETATM    4  C1  UNL     1      22.836   4.177  52.214  1.00  0.00     0.033 C 
ENDBRANCH   1   3
BRANCH   1   5
HETATM    5  N4  UNL     1      24.617   1.607  51.739  1.00  0.00    -0.386 N 
HETATM    6  H11 UNL     1      24.239   1.189  50.868  1.00  0.00     0.160 HD
BRANCH   5   7
HETATM    7  C12 UNL     1      25.061   1.490  53.095  1.00  0.00     0.161 C 
BRANCH   7   8
HETATM    8  C13 UNL     1      26.468   1.068  53.247  1.00  0.00    -0.002 A 
HETATM    9  C14 UNL     1      27.291   2.155  53.514  1.00  0.00     0.012 A 
HETATM   10  C15 UNL     1      28.666   1.989  53.695  1.00  0.00     0.001 A 
HETATM   11  C16 UNL     1      29.232   0.720  53.609  1.00  0.00     0.003 A 
HETATM   12  C17 UNL     1      28.376  -0.349  53.341  1.00  0.00     0.043 A 
HETATM   13  C18 UNL     1      27.021  -0.173  53.164  1.00  0.00     0.124 A 
HETATM   14  F1  UNL     1      26.144  -1.159  52.903  1.00  0.00    -0.205 F 
ENDBRANCH   7   8
ENDBRANCH   5   7
ENDBRANCH   1   5
BRANCH   2  15
HETATM   15  C5  UNL     1      25.127   4.524  49.477  1.00  0.00     0.027 C 
HETATM   16  C6  UNL     1      26.227   5.100  49.031  1.00  0.00     0.015 A 
HETATM   17  C7  UNL     1      26.417   6.477  48.500  1.00  0.00     0.101 A 
HETATM   18  N3  UNL     1      27.528   4.490  48.964  1.00  0.00    -0.344 N 
HETATM   19  C8  UNL     1      27.842   6.552  48.161  1.00  0.00     0.011 A 
HETATM   20  C9  UNL     1      28.515   7.636  47.628  1.00  0.00     0.129 A 
HETATM   21  C11 UNL     1      28.498   5.388  48.432  1.00  0.00     0.137 A 
HETATM   22  N1  UNL     1      29.845   7.498  47.387  1.00  0.00    -0.253 NA
HETATM   23  C10 UNL     1      30.486   6.328  47.662  1.00  0.00     0.234 A 
HETATM   24  N2  UNL     1      29.807   5.300  48.178  1.00  0.00    -0.224 NA
HETATM   25  H10 UNL     1      27.800   3.512  49.253  1.00  0.00     0.167 HD
ENDBRANCH   2  15
TORSDOF 5
ENDMDL
MODEL 8
REMARK VINA RESULT:      -7.7      1.591      2.088
REMARK  5 active torsions:
REMARK  status: ('A' for Active; 'I' for Inactive)
REMARK    1  A    between atoms: C2_2  and  C3_3 
REMARK    2  A    between atoms: C3_3  and  N4_15 
REMARK    3  A    between atoms: C4_4  and  C5_5 
REMARK    4  A    between atoms: N4_15  and  C12_16 
REMARK    5  A    between atoms: C12_16  and  C13_17 
ROOT
HETATM    1  C3  UNL     1      24.024   1.602  52.824  1.00  0.00     0.024 C 
HETATM    2  C4  UNL     1      24.116   2.897  53.000  1.00  0.00     0.031 C 
ENDROOT
BRANCH   1   3
HETATM    3  C2  UNL     1      22.866   1.049  52.137  1.00  0.00     0.003 C 
HETATM    4  C1  UNL     1      22.138   0.034  52.632  1.00  0.00     0.033 C 
ENDBRANCH   1   3
BRANCH   1   5
HETATM    5  N4  UNL     1      25.007   0.677  53.273  1.00  0.00    -0.386 N 
HETATM    6  H11 UNL     1      24.612   0.662  54.232  1.00  0.00     0.160 HD
BRANCH   5   7
HETATM    7  C12 UNL     1      25.972   0.247  52.307  1.00  0.00     0.161 C 
BRANCH   7   8
HETATM    8  C13 UNL     1      27.342   0.089  52.836  1.00  0.00    -0.002 A 
HETATM    9  C14 UNL     1      27.715  -1.249  52.870  1.00  0.00     0.012 A 
HETATM   10  C15 UNL     1      28.974  -1.634  53.336  1.00  0.00     0.001 A 
HETATM   11  C16 UNL     1      29.878  -0.671  53.776  1.00  0.00     0.003 A 
HETATM   12  C17 UNL     1      29.471   0.663  53.727  1.00  0.00     0.043 A 
HETATM   13  C18 UNL     1      28.227   1.030  53.265  1.00  0.00     0.124 A 
HETATM   14  F1  UNL     1      27.775   2.295  53.193  1.00  0.00    -0.205 F 
ENDBRANCH   7   8
ENDBRANCH   5   7
ENDBRANCH   1   5
BRANCH   2  15
HETATM   15  C5  UNL     1      23.045   3.749  52.496  1.00  0.00     0.027 C 
HETATM   16  C6  UNL     1      23.304   4.860  51.833  1.00  0.00     0.015 A 
HETATM   17  C7  UNL     1      22.357   5.848  51.248  1.00  0.00     0.101 A 
HETATM   18  N3  UNL     1      24.614   5.370  51.526  1.00  0.00    -0.344 N 
HETATM   19  C8  UNL     1      23.214   6.869  50.638  1.00  0.00     0.011 A 
HETATM   20  C9  UNL     1      22.804   8.005  49.963  1.00  0.00     0.129 A 
HETATM   21  C11 UNL     1      24.540   6.593  50.798  1.00  0.00     0.137 A 
HETATM   22  N1  UNL     1      23.766   8.828  49.470  1.00  0.00    -0.253 NA
HETATM   23  C10 UNL     1      25.086   8.539  49.638  1.00  0.00     0.234 A 
HETATM   24  N2  UNL     1      25.448   7.434  50.296  1.00  0.00    -0.224 NA
HETATM   25  H10 UNL     1      25.548   4.947  51.775  1.00  0.00     0.167 HD
ENDBRANCH   2  15
TORSDOF 5
ENDMDL
MODEL 9
REMARK VINA RESULT:      -7.7      4.789      6.945
REMARK  5 active torsions:
REMARK  status: ('A' for Active; 'I' for Inactive)
REMARK    1  A    between atoms: C2_2  and  C3_3 
REMARK    2  A    between atoms: C3_3  and  N4_15 
REMARK    3  A    between atoms: C4_4  and  C5_5 
REMARK    4  A    between atoms: N4_15  and  C12_16 
REMARK    5  A    between atoms: C12_16  and  C13_17 
ROOT
HETATM    1  C3  UNL     1      25.095   5.552  50.406  1.00  0.00     0.024 C 
HETATM    2  C4  UNL     1      25.780   5.205  49.345  1.00  0.00     0.031 C 
ENDROOT
BRANCH   1   3
HETATM    3  C2  UNL     1      24.916   6.963  50.719  1.00  0.00     0.003 C 
HETATM    4  C1  UNL     1      23.708   7.544  50.807  1.00  0.00     0.033 C 
ENDBRANCH   1   3
BRANCH   1   5
HETATM    5  N4  UNL     1      24.498   4.617  51.296  1.00  0.00    -0.386 N 
HETATM    6  H11 UNL     1      24.533   5.287  52.087  1.00  0.00     0.160 HD
BRANCH   5   7
HETATM    7  C12 UNL     1      24.165   3.335  50.753  1.00  0.00     0.161 C 
BRANCH   7   8
HETATM    8  C13 UNL     1      24.793   2.192  51.445  1.00  0.00    -0.002 A 
HETATM    9  C14 UNL     1      23.863   1.496  52.208  1.00  0.00     0.012 A 
HETATM   10  C15 UNL     1      24.237   0.374  52.951  1.00  0.00     0.001 A 
HETATM   11  C16 UNL     1      25.558  -0.063  52.935  1.00  0.00     0.003 A 
HETATM   12  C17 UNL     1      26.466   0.658  52.158  1.00  0.00     0.043 A 
HETATM   13  C18 UNL     1      26.085   1.763  51.429  1.00  0.00     0.124 A 
HETATM   14  F1  UNL     1      26.909   2.501  50.662  1.00  0.00    -0.205 F 
ENDBRANCH   7   8
ENDBRANCH   5   7
ENDBRANCH   1   5
BRANCH   2  15
HETATM   15  C5  UNL     1      26.347   6.254  48.505  1.00  0.00     0.027 C 
HETATM   16  C6  UNL     1      27.645   6.323  48.273  1.00  0.00     0.015 A 
HETATM   17  C7  UNL     1      28.401   7.308  47.453  1.00  0.00     0.101 A 
HETATM   18  N3  UNL     1      28.640   5.421  48.789  1.00  0.00    -0.344 N 
HETATM   19  C8  UNL     1      29.801   6.886  47.563  1.00  0.00     0.011 A 
HETATM   20  C9  UNL     1      30.900   7.486  46.974  1.00  0.00     0.129 A 
HETATM   21  C11 UNL     1      29.947   5.780  48.346  1.00  0.00     0.137 A 
HETATM   22  N1  UNL     1      32.120   6.934  47.204  1.00  0.00    -0.253 NA
HETATM   23  C10 UNL     1      32.248   5.828  47.989  1.00  0.00     0.234 A 
HETATM   24  N2  UNL     1      31.167   5.273  48.543  1.00  0.00    -0.224 NA
HETATM   25  H10 UNL     1      28.494   4.585  49.416  1.00  0.00     0.167 HD
ENDBRANCH   2  15
TORSDOF 5
ENDMDL
