MODEL 1
REMARK VINA RESULT:      -8.2      0.000      0.000
REMARK  7 active torsions:
REMARK  status: ('A' for Active; 'I' for Inactive)
REMARK    1  A    between atoms: C2_2  and  O1_3 
REMARK    2  A    between atoms: O1_3  and  C3_4 
REMARK    3  A    between atoms: C7_8  and  C8_9 
REMARK    4  A    between atoms: C16_19  and  C17_20 
REMARK    5  A    between atoms: C17_20  and  C18_21 
REMARK    6  A    between atoms: C18_21  and  C19_22 
REMARK    7  A    between atoms: C19_22  and  O4_24 
ROOT
HETATM    1  C8  UNL     1      24.937   2.757  51.944  1.00  0.00    -0.024 A 
HETATM    2  C9  UNL     1      25.827   2.857  50.896  1.00  0.00     0.013 A 
HETATM    3  C10 UNL     1      25.795   3.986  50.143  1.00  0.00     0.015 A 
HETATM    4  C11 UNL     1      24.890   4.980  50.443  1.00  0.00     0.006 A 
HETATM    5  C12 UNL     1      23.981   4.936  51.473  1.00  0.00     0.047 A 
HETATM    6  C13 UNL     1      24.044   3.769  52.218  1.00  0.00     0.042 A 
HETATM    7  N1  UNL     1      23.183   6.112  51.526  1.00  0.00    -0.322 N 
HETATM    8  C14 UNL     1      23.637   6.929  50.454  1.00  0.00     0.256 A 
HETATM    9  O2  UNL     1      23.020   8.031  50.361  1.00  0.00    -0.267 OA
HETATM   10  C15 UNL     1      24.718   6.266  49.730  1.00  0.00     0.043 A 
HETATM   11  C16 UNL     1      25.304   6.833  48.691  1.00  0.00     0.027 C 
HETATM   12  H12 UNL     1      22.454   6.191  52.272  1.00  0.00     0.169 HD
ENDROOT
BRANCH  11  13
HETATM   13  C17 UNL     1      25.128   8.104  47.994  1.00  0.00     0.082 A 
HETATM   14  N2  UNL     1      25.975   8.096  46.780  1.00  0.00    -0.382 N 
HETATM   15  C21 UNL     1      24.886   8.206  45.914  1.00  0.00     0.089 A 
HETATM   16  H19 UNL     1      27.012   8.026  46.744  1.00  0.00     0.160 HD
HETATM   17  C22 UNL     1      24.068   8.218  46.985  1.00  0.00    -0.036 A 
HETATM   18  C23 UNL     1      22.586   8.322  46.985  1.00  0.00     0.048 C 
BRANCH  13  19
HETATM   19  C18 UNL     1      25.497   9.361  48.754  1.00  0.00     0.151 C 
BRANCH  19  20
HETATM   20  C19 UNL     1      26.889   9.346  49.251  1.00  0.00     0.261 C 
HETATM   21  O3  UNL     1      26.991   9.693  50.448  1.00  0.00    -0.265 OA
BRANCH  20  22
HETATM   22  O4  UNL     1      28.116   9.030  48.683  1.00  0.00    -0.326 OA
HETATM   23  C20 UNL     1      29.306   9.358  49.340  1.00  0.00     0.213 C 
ENDBRANCH  20  22
ENDBRANCH  19  20
ENDBRANCH  13  19
ENDBRANCH  11  13
BRANCH   1  24
HETATM   24  C7  UNL     1      24.983   1.538  52.744  1.00  0.00    -0.023 A 
HETATM   25  C6  UNL     1      23.892   0.688  52.806  1.00  0.00     0.012 A 
HETATM   26  C5  UNL     1      23.984  -0.456  53.581  1.00  0.00     0.004 A 
HETATM   27  C4  UNL     1      25.176  -0.706  54.268  1.00  0.00     0.037 A 
HETATM   28  C3  UNL     1      26.264   0.159  54.194  1.00  0.00     0.069 A 
HETATM   29  C24 UNL     1      26.142   1.286  53.419  1.00  0.00     0.049 A 
BRANCH  28  30
HETATM   30  O1  UNL     1      27.286  -0.352  54.972  1.00  0.00    -0.351 OA
BRANCH  30  31
HETATM   31  C2  UNL     1      28.597   0.126  54.821  1.00  0.00     0.171 C 
HETATM   32  C1  UNL     1      29.376  -0.690  53.821  1.00  0.00     0.034 C 
ENDBRANCH  30  31
ENDBRANCH  28  30
ENDBRANCH   1  24
TORSDOF 7
ENDMDL
MODEL 2
REMARK VINA RESULT:      -8.0      1.310      2.328
REMARK  7 active torsions:
REMARK  status: ('A' for Active; 'I' for Inactive)
REMARK    1  A    between atoms: C2_2  and  O1_3 
REMARK    2  A    between atoms: O1_3  and  C3_4 
REMARK    3  A    between atoms: C7_8  and  C8_9 
REMARK    4  A    between atoms: C16_19  and  C17_20 
REMARK    5  A    between atoms: C17_20  and  C18_21 
REMARK    6  A    between atoms: C18_21  and  C19_22 
REMARK    7  A    between atoms: C19_22  and  O4_24 
ROOT
HETATM    1  C8  UNL     1      25.539   2.638  51.174  1.00  0.00    -0.024 A 
HETATM    2  C9  UNL     1      26.555   2.919  50.287  1.00  0.00     0.013 A 
HETATM    3  C10 UNL     1      26.493   4.089  49.602  1.00  0.00     0.015 A 
HETATM    4  C11 UNL     1      25.434   4.945  49.810  1.00  0.00     0.006 A 
HETATM    5  C12 UNL     1      24.393   4.718  50.680  1.00  0.00     0.047 A 
HETATM    6  C13 UNL     1      24.493   3.514  51.359  1.00  0.00     0.042 A 
HETATM    7  N1  UNL     1      23.453   5.785  50.671  1.00  0.00    -0.322 N 
HETATM    8  C14 UNL     1      23.955   6.728  49.731  1.00  0.00     0.256 A 
HETATM    9  O2  UNL     1      23.223   7.753  49.603  1.00  0.00    -0.267 OA
HETATM   10  C15 UNL     1      25.208   6.252  49.152  1.00  0.00     0.043 A 
HETATM   11  C16 UNL     1      25.866   6.959  48.252  1.00  0.00     0.027 C 
HETATM   12  H12 UNL     1      22.616   5.722  51.295  1.00  0.00     0.169 HD
ENDROOT
BRANCH  11  13
HETATM   13  C17 UNL     1      25.636   8.249  47.607  1.00  0.00     0.082 A 
HETATM   14  N2  UNL     1      26.665   8.443  46.561  1.00  0.00    -0.382 N 
HETATM   15  C21 UNL     1      25.730   8.484  45.526  1.00  0.00     0.089 A 
HETATM   16  H19 UNL     1      27.694   8.506  46.703  1.00  0.00     0.160 HD
HETATM   17  C22 UNL     1      24.753   8.310  46.436  1.00  0.00    -0.036 A 
HETATM   18  C23 UNL     1      23.291   8.226  46.184  1.00  0.00     0.048 C 
BRANCH  13  19
HETATM   19  C18 UNL     1      25.699   9.479  48.489  1.00  0.00     0.151 C 
BRANCH  19  20
HETATM   20  C19 UNL     1      27.013   9.654  49.141  1.00  0.00     0.261 C 
HETATM   21  O3  UNL     1      26.947   9.696  50.388  1.00  0.00    -0.265 OA
BRANCH  20  22
HETATM   22  O4  UNL     1      28.315   9.784  48.673  1.00  0.00    -0.326 OA
HETATM   23  C20 UNL     1      29.315   8.912  49.114  1.00  0.00     0.213 C 
ENDBRANCH  20  22
ENDBRANCH  19  20
ENDBRANCH  13  19
ENDBRANCH  11  13
BRANCH   1  24
HETATM   24  C7  UNL     1      25.619   1.376  51.903  1.00  0.00    -0.023 A 
HETATM   25  C6  UNL     1      26.741   0.571  51.807  1.00  0.00     0.012 A 
HETATM   26  C5  UNL     1      26.769  -0.618  52.517  1.00  0.00     0.004 A 
HETATM   27  C4  UNL     1      25.663  -0.955  53.302  1.00  0.00     0.037 A 
HETATM   28  C3  UNL     1      24.543  -0.133  53.389  1.00  0.00     0.069 A 
HETATM   29  C24 UNL     1      24.544   1.038  52.672  1.00  0.00     0.049 A 
BRANCH  28  30
HETATM   30  O1  UNL     1      23.624  -0.728  54.233  1.00  0.00    -0.351 OA
BRANCH  30  31
HETATM   31  C2  UNL     1      22.304  -0.940  53.805  1.00  0.00     0.171 C 
HETATM   32  C1  UNL     1      21.320  -0.131  54.611  1.00  0.00     0.034 C 
ENDBRANCH  30  31
ENDBRANCH  28  30
ENDBRANCH   1  24
TORSDOF 7
ENDMDL
MODEL 3
REMARK VINA RESULT:      -7.9      2.661      3.932
REMARK  7 active torsions:
REMARK  status: ('A' for Active; 'I' for Inactive)
REMARK    1  A    between atoms: C2_2  and  O1_3 
REMARK    2  A    between atoms: O1_3  and  C3_4 
REMARK    3  A    between atoms: C7_8  and  C8_9 
REMARK    4  A    between atoms: C16_19  and  C17_20 
REMARK    5  A    between atoms: C17_20  and  C18_21 
REMARK    6  A    between atoms: C18_21  and  C19_22 
REMARK    7  A    between atoms: C19_22  and  O4_24 
ROOT
HETATM    1  C8  UNL     1      24.879   3.544  50.142  1.00  0.00    -0.024 A 
HETATM    2  C9  UNL     1      26.091   3.117  49.645  1.00  0.00     0.013 A 
HETATM    3  C10 UNL     1      26.929   4.051  49.128  1.00  0.00     0.015 A 
HETATM    4  C11 UNL     1      26.549   5.376  49.116  1.00  0.00     0.006 A 
HETATM    5  C12 UNL     1      25.355   5.859  49.597  1.00  0.00     0.047 A 
HETATM    6  C13 UNL     1      24.528   4.875  50.116  1.00  0.00     0.042 A 
HETATM    7  N1  UNL     1      25.255   7.269  49.443  1.00  0.00    -0.322 N 
HETATM    8  C14 UNL     1      26.472   7.673  48.825  1.00  0.00     0.256 A 
HETATM    9  O2  UNL     1      26.544   8.920  48.616  1.00  0.00    -0.267 OA
HETATM   10  C15 UNL     1      27.334   6.517  48.593  1.00  0.00     0.043 A 
HETATM   11  C16 UNL     1      28.521   6.642  48.030  1.00  0.00     0.027 C 
HETATM   12  H12 UNL     1      24.387   7.750  49.774  1.00  0.00     0.169 HD
ENDROOT
BRANCH  11  13
HETATM   13  C17 UNL     1      29.287   7.774  47.516  1.00  0.00     0.082 A 
HETATM   14  N2  UNL     1      30.460   7.252  46.778  1.00  0.00    -0.382 N 
HETATM   15  C21 UNL     1      30.050   7.805  45.564  1.00  0.00     0.089 A 
HETATM   16  H19 UNL     1      31.239   6.684  47.167  1.00  0.00     0.160 HD
HETATM   17  C22 UNL     1      28.965   8.304  46.186  1.00  0.00    -0.036 A 
HETATM   18  C23 UNL     1      27.875   9.115  45.585  1.00  0.00     0.048 C 
BRANCH  13  19
HETATM   19  C18 UNL     1      29.836   8.751  48.535  1.00  0.00     0.151 C 
BRANCH  19  20
HETATM   20  C19 UNL     1      31.210   8.423  48.968  1.00  0.00     0.261 C 
HETATM   21  O3  UNL     1      32.091   9.045  48.337  1.00  0.00    -0.265 OA
BRANCH  20  22
HETATM   22  O4  UNL     1      31.744   7.572  49.927  1.00  0.00    -0.326 OA
HETATM   23  C20 UNL     1      31.862   6.202  49.671  1.00  0.00     0.213 C 
ENDBRANCH  20  22
ENDBRANCH  19  20
ENDBRANCH  13  19
ENDBRANCH  11  13
BRANCH   1  24
HETATM   24  C7  UNL     1      23.988   2.528  50.694  1.00  0.00    -0.023 A 
HETATM   25  C6  UNL     1      22.765   2.260  50.104  1.00  0.00     0.012 A 
HETATM   26  C5  UNL     1      21.954   1.288  50.666  1.00  0.00     0.004 A 
HETATM   27  C4  UNL     1      22.406   0.617  51.807  1.00  0.00     0.037 A 
HETATM   28  C3  UNL     1      23.639   0.898  52.387  1.00  0.00     0.069 A 
HETATM   29  C24 UNL     1      24.420   1.868  51.808  1.00  0.00     0.049 A 
BRANCH  28  30
HETATM   30  O1  UNL     1      23.804   0.081  53.489  1.00  0.00    -0.351 OA
BRANCH  30  31
HETATM   31  C2  UNL     1      22.796  -0.823  53.856  1.00  0.00     0.171 C 
HETATM   32  C1  UNL     1      22.940  -1.270  55.289  1.00  0.00     0.034 C 
ENDBRANCH  30  31
ENDBRANCH  28  30
ENDBRANCH   1  24
TORSDOF 7
ENDMDL
MODEL 4
REMARK VINA RESULT:      -7.9      1.712      2.185
REMARK  7 active torsions:
REMARK  status: ('A' for Active; 'I' for Inactive)
REMARK    1  A    between atoms: C2_2  and  O1_3 
REMARK    2  A    between atoms: O1_3  and  C3_4 
REMARK    3  A    between atoms: C7_8  and  C8_9 
REMARK    4  A    between atoms: C16_19  and  C17_20 
REMARK    5  A    between atoms: C17_20  and  C18_21 
REMARK    6  A    between atoms: C18_21  and  C19_22 
REMARK    7  A    between atoms: C19_22  and  O4_24 
ROOT
HETATM    1  C8  UNL     1      25.673   3.367  50.607  1.00  0.00    -0.024 A 
HETATM    2  C9  UNL     1      26.776   3.364  49.782  1.00  0.00     0.013 A 
HETATM    3  C10 UNL     1      27.009   4.470  49.030  1.00  0.00     0.015 A 
HETATM    4  C11 UNL     1      26.150   5.544  49.114  1.00  0.00     0.006 A 
HETATM    5  C12 UNL     1      25.036   5.603  49.918  1.00  0.00     0.047 A 
HETATM    6  C13 UNL     1      24.833   4.456  50.668  1.00  0.00     0.042 A 
HETATM    7  N1  UNL     1      24.351   6.842  49.783  1.00  0.00    -0.322 N 
HETATM    8  C14 UNL     1      25.099   7.590  48.831  1.00  0.00     0.256 A 
HETATM    9  O2  UNL     1      24.616   8.736  48.594  1.00  0.00    -0.267 OA
HETATM   10  C15 UNL     1      26.252   6.820  48.370  1.00  0.00     0.043 A 
HETATM   11  C16 UNL     1      27.099   7.308  47.482  1.00  0.00     0.027 C 
HETATM   12  H12 UNL     1      23.486   7.002  50.348  1.00  0.00     0.169 HD
ENDROOT
BRANCH  11  13
HETATM   13  C17 UNL     1      27.191   8.569  46.753  1.00  0.00     0.082 A 
HETATM   14  N2  UNL     1      28.265   8.450  45.741  1.00  0.00    -0.382 N 
HETATM   15  C21 UNL     1      27.393   8.635  44.667  1.00  0.00     0.089 A 
HETATM   16  H19 UNL     1      29.276   8.285  45.922  1.00  0.00     0.160 HD
HETATM   17  C22 UNL     1      26.377   8.752  45.545  1.00  0.00    -0.036 A 
HETATM   18  C23 UNL     1      24.944   8.989  45.237  1.00  0.00     0.048 C 
BRANCH  13  19
HETATM   19  C18 UNL     1      27.514   9.808  47.562  1.00  0.00     0.151 C 
BRANCH  19  20
HETATM   20  C19 UNL     1      28.933  10.206  47.465  1.00  0.00     0.261 C 
HETATM   21  O3  UNL     1      29.112  11.250  46.801  1.00  0.00    -0.265 OA
BRANCH  20  22
HETATM   22  O4  UNL     1      30.122   9.676  47.951  1.00  0.00    -0.326 OA
HETATM   23  C20 UNL     1      30.157   9.045  49.198  1.00  0.00     0.213 C 
ENDBRANCH  20  22
ENDBRANCH  19  20
ENDBRANCH  13  19
ENDBRANCH  11  13
BRANCH   1  24
HETATM   24  C7  UNL     1      25.436   2.170  51.408  1.00  0.00    -0.023 A 
HETATM   25  C6  UNL     1      24.154   1.821  51.799  1.00  0.00     0.012 A 
HETATM   26  C5  UNL     1      23.980   0.676  52.560  1.00  0.00     0.004 A 
HETATM   27  C4  UNL     1      25.107  -0.079  52.901  1.00  0.00     0.037 A 
HETATM   28  C3  UNL     1      26.388   0.286  52.497  1.00  0.00     0.069 A 
HETATM   29  C24 UNL     1      26.529   1.427  51.745  1.00  0.00     0.049 A 
BRANCH  28  30
HETATM   30  O1  UNL     1      27.285  -0.647  52.982  1.00  0.00    -0.351 OA
BRANCH  30  31
HETATM   31  C2  UNL     1      28.459  -0.231  53.628  1.00  0.00     0.171 C 
HETATM   32  C1  UNL     1      29.565  -1.244  53.483  1.00  0.00     0.034 C 
ENDBRANCH  30  31
ENDBRANCH  28  30
ENDBRANCH   1  24
TORSDOF 7
ENDMDL
MODEL 5
REMARK VINA RESULT:      -7.8      1.979      3.463
REMARK  7 active torsions:
REMARK  status: ('A' for Active; 'I' for Inactive)
REMARK    1  A    between atoms: C2_2  and  O1_3 
REMARK    2  A    between atoms: O1_3  and  C3_4 
REMARK    3  A    between atoms: C7_8  and  C8_9 
REMARK    4  A    between atoms: C16_19  and  C17_20 
REMARK    5  A    between atoms: C17_20  and  C18_21 
REMARK    6  A    between atoms: C18_21  and  C19_22 
REMARK    7  A    between atoms: C19_22  and  O4_24 
ROOT
HETATM    1  C8  UNL     1      25.448   2.846  51.162  1.00  0.00    -0.024 A 
HETATM    2  C9  UNL     1      24.388   3.725  51.135  1.00  0.00     0.013 A 
HETATM    3  C10 UNL     1      24.520   4.854  50.393  1.00  0.00     0.015 A 
HETATM    4  C11 UNL     1      25.690   5.083  49.701  1.00  0.00     0.006 A 
HETATM    5  C12 UNL     1      26.778   4.242  49.692  1.00  0.00     0.047 A 
HETATM    6  C13 UNL     1      26.605   3.102  50.461  1.00  0.00     0.042 A 
HETATM    7  N1  UNL     1      27.834   4.753  48.887  1.00  0.00    -0.322 N 
HETATM    8  C14 UNL     1      27.356   5.990  48.370  1.00  0.00     0.256 A 
HETATM    9  O2  UNL     1      28.188   6.581  47.621  1.00  0.00    -0.267 OA
HETATM   10  C15 UNL     1      26.002   6.254  48.851  1.00  0.00     0.043 A 
HETATM   11  C16 UNL     1      25.346   7.345  48.504  1.00  0.00     0.027 C 
HETATM   12  H12 UNL     1      28.716   4.197  48.804  1.00  0.00     0.169 HD
ENDROOT
BRANCH  11  13
HETATM   13  C17 UNL     1      25.663   8.497  47.663  1.00  0.00     0.082 A 
HETATM   14  N2  UNL     1      24.600   9.512  47.836  1.00  0.00    -0.382 N 
HETATM   15  C21 UNL     1      25.475  10.466  48.359  1.00  0.00     0.089 A 
HETATM   16  H19 UNL     1      23.591   9.405  47.603  1.00  0.00     0.160 HD
HETATM   17  C22 UNL     1      26.480   9.580  48.222  1.00  0.00    -0.036 A 
HETATM   18  C23 UNL     1      27.911   9.781  48.570  1.00  0.00     0.048 C 
BRANCH  13  19
HETATM   19  C18 UNL     1      25.767   8.251  46.172  1.00  0.00     0.151 C 
BRANCH  19  20
HETATM   20  C19 UNL     1      24.485   8.443  45.464  1.00  0.00     0.261 C 
HETATM   21  O3  UNL     1      24.492   9.418  44.681  1.00  0.00    -0.265 OA
BRANCH  20  22
HETATM   22  O4  UNL     1      23.265   7.779  45.475  1.00  0.00    -0.326 OA
HETATM   23  C20 UNL     1      22.858   7.031  44.366  1.00  0.00     0.213 C 
ENDBRANCH  20  22
ENDBRANCH  19  20
ENDBRANCH  13  19
ENDBRANCH  11  13
BRANCH   1  24
HETATM   24  C7  UNL     1      25.292   1.637  51.965  1.00  0.00    -0.023 A 
HETATM   25  C6  UNL     1      24.034   1.132  52.250  1.00  0.00     0.012 A 
HETATM   26  C5  UNL     1      23.938  -0.018  53.016  1.00  0.00     0.004 A 
HETATM   27  C4  UNL     1      25.115  -0.621  53.470  1.00  0.00     0.037 A 
HETATM   28  C3  UNL     1      26.371  -0.101  53.173  1.00  0.00     0.069 A 
HETATM   29  C24 UNL     1      26.434   1.041  52.412  1.00  0.00     0.049 A 
BRANCH  28  30
HETATM   30  O1  UNL     1      27.331  -0.908  53.754  1.00  0.00    -0.351 OA
BRANCH  30  31
HETATM   31  C2  UNL     1      28.540  -0.357  54.205  1.00  0.00     0.171 C 
HETATM   32  C1  UNL     1      29.726  -0.950  53.488  1.00  0.00     0.034 C 
ENDBRANCH  30  31
ENDBRANCH  28  30
ENDBRANCH   1  24
TORSDOF 7
ENDMDL
MODEL 6
REMARK VINA RESULT:      -7.8      6.254      9.316
REMARK  7 active torsions:
REMARK  status: ('A' for Active; 'I' for Inactive)
REMARK    1  A    between atoms: C2_2  and  O1_3 
REMARK    2  A    between atoms: O1_3  and  C3_4 
REMARK    3  A    between atoms: C7_8  and  C8_9 
REMARK    4  A    between atoms: C16_19  and  C17_20 
REMARK    5  A    between atoms: C17_20  and  C18_21 
REMARK    6  A    between atoms: C18_21  and  C19_22 
REMARK    7  A    between atoms: C19_22  and  O4_24 
ROOT
HETATM    1  C8  UNL     1      22.658   0.539  52.162  1.00  0.00    -0.024 A 
HETATM    2  C9  UNL     1      22.039   1.078  51.056  1.00  0.00     0.013 A 
HETATM    3  C10 UNL     1      20.693   0.930  50.948  1.00  0.00     0.015 A 
HETATM    4  C11 UNL     1      20.000   0.257  51.930  1.00  0.00     0.006 A 
HETATM    5  C12 UNL     1      20.565  -0.300  53.054  1.00  0.00     0.047 A 
HETATM    6  C13 UNL     1      21.938  -0.129  53.127  1.00  0.00     0.042 A 
HETATM    7  N1  UNL     1      19.591  -0.928  53.878  1.00  0.00    -0.322 N 
HETATM    8  C14 UNL     1      18.348  -0.741  53.212  1.00  0.00     0.256 A 
HETATM    9  O2  UNL     1      17.363  -1.249  53.825  1.00  0.00    -0.267 OA
HETATM   10  C15 UNL     1      18.542   0.004  51.971  1.00  0.00     0.043 A 
HETATM   11  C16 UNL     1      17.530   0.302  51.178  1.00  0.00     0.027 C 
HETATM   12  H12 UNL     1      19.904  -1.389  54.764  1.00  0.00     0.169 HD
ENDROOT
BRANCH  11  13
HETATM   13  C17 UNL     1      16.093   0.048  51.226  1.00  0.00     0.082 A 
HETATM   14  N2  UNL     1      15.524   0.310  49.885  1.00  0.00    -0.382 N 
HETATM   15  C21 UNL     1      15.100  -1.009  49.711  1.00  0.00     0.089 A 
HETATM   16  H19 UNL     1      15.518   1.218  49.377  1.00  0.00     0.160 HD
HETATM   17  C22 UNL     1      15.601  -1.302  50.927  1.00  0.00    -0.036 A 
HETATM   18  C23 UNL     1      15.584  -2.620  51.614  1.00  0.00     0.048 C 
BRANCH  13  19
HETATM   19  C18 UNL     1      15.280   0.880  52.195  1.00  0.00     0.151 C 
BRANCH  19  20
HETATM   20  C19 UNL     1      15.190   2.301  51.801  1.00  0.00     0.261 C 
HETATM   21  O3  UNL     1      15.562   3.090  52.697  1.00  0.00    -0.265 OA
BRANCH  20  22
HETATM   22  O4  UNL     1      14.783   2.961  50.648  1.00  0.00    -0.326 OA
HETATM   23  C20 UNL     1      14.976   4.340  50.516  1.00  0.00     0.213 C 
ENDBRANCH  20  22
ENDBRANCH  19  20
ENDBRANCH  13  19
ENDBRANCH  11  13
BRANCH   1  24
HETATM   24  C7  UNL     1      24.105   0.706  52.265  1.00  0.00    -0.023 A 
HETATM   25  C6  UNL     1      24.754   1.713  51.571  1.00  0.00     0.012 A 
HETATM   26  C5  UNL     1      26.128   1.829  51.700  1.00  0.00     0.004 A 
HETATM   27  C4  UNL     1      26.803   0.925  52.527  1.00  0.00     0.037 A 
HETATM   28  C3  UNL     1      26.133  -0.080  53.219  1.00  0.00     0.069 A 
HETATM   29  C24 UNL     1      24.771  -0.171  53.069  1.00  0.00     0.049 A 
BRANCH  28  30
HETATM   30  O1  UNL     1      27.059  -0.806  53.945  1.00  0.00    -0.351 OA
BRANCH  30  31
HETATM   31  C2  UNL     1      28.396  -0.386  54.005  1.00  0.00     0.171 C 
HETATM   32  C1  UNL     1      29.334  -1.430  53.455  1.00  0.00     0.034 C 
ENDBRANCH  30  31
ENDBRANCH  28  30
ENDBRANCH   1  24
TORSDOF 7
ENDMDL
MODEL 7
REMARK VINA RESULT:      -7.7      7.028      9.264
REMARK  7 active torsions:
REMARK  status: ('A' for Active; 'I' for Inactive)
REMARK    1  A    between atoms: C2_2  and  O1_3 
REMARK    2  A    between atoms: O1_3  and  C3_4 
REMARK    3  A    between atoms: C7_8  and  C8_9 
REMARK    4  A    between atoms: C16_19  and  C17_20 
REMARK    5  A    between atoms: C17_20  and  C18_21 
REMARK    6  A    between atoms: C18_21  and  C19_22 
REMARK    7  A    between atoms: C19_22  and  O4_24 
ROOT
HETATM    1  C8  UNL     1      21.690  -0.428  53.227  1.00  0.00    -0.024 A 
HETATM    2  C9  UNL     1      21.649   0.159  51.982  1.00  0.00     0.013 A 
HETATM    3  C10 UNL     1      20.440   0.276  51.375  1.00  0.00     0.015 A 
HETATM    4  C11 UNL     1      19.310  -0.189  52.012  1.00  0.00     0.006 A 
HETATM    5  C12 UNL     1      19.291  -0.782  53.253  1.00  0.00     0.047 A 
HETATM    6  C13 UNL     1      20.543  -0.883  53.838  1.00  0.00     0.042 A 
HETATM    7  N1  UNL     1      17.974  -1.156  53.639  1.00  0.00    -0.322 N 
HETATM    8  C14 UNL     1      17.133  -0.763  52.561  1.00  0.00     0.256 A 
HETATM    9  O2  UNL     1      15.910  -1.029  52.750  1.00  0.00    -0.267 OA
HETATM   10  C15 UNL     1      17.922  -0.144  51.499  1.00  0.00     0.043 A 
HETATM   11  C16 UNL     1      17.360   0.305  50.392  1.00  0.00     0.027 C 
HETATM   12  H12 UNL     1      17.835  -1.618  54.567  1.00  0.00     0.169 HD
ENDROOT
BRANCH  11  13
HETATM   13  C17 UNL     1      15.987   0.344  49.894  1.00  0.00     0.082 A 
HETATM   14  N2  UNL     1      16.017   0.735  48.467  1.00  0.00    -0.382 N 
HETATM   15  C21 UNL     1      15.456  -0.468  48.036  1.00  0.00     0.089 A 
HETATM   16  H19 UNL     1      16.365   1.633  48.073  1.00  0.00     0.160 HD
HETATM   17  C22 UNL     1      15.406  -0.874  49.319  1.00  0.00    -0.036 A 
HETATM   18  C23 UNL     1      14.895  -2.171  49.834  1.00  0.00     0.048 C 
BRANCH  13  19
HETATM   19  C18 UNL     1      15.038   1.310  50.573  1.00  0.00     0.151 C 
BRANCH  19  20
HETATM   20  C19 UNL     1      15.078   2.665  49.987  1.00  0.00     0.261 C 
HETATM   21  O3  UNL     1      14.036   2.969  49.367  1.00  0.00    -0.265 OA
BRANCH  20  22
HETATM   22  O4  UNL     1      16.021   3.685  49.972  1.00  0.00    -0.326 OA
HETATM   23  C20 UNL     1      16.350   4.326  48.773  1.00  0.00     0.213 C 
ENDBRANCH  20  22
ENDBRANCH  19  20
ENDBRANCH  13  19
ENDBRANCH  11  13
BRANCH   1  24
HETATM   24  C7  UNL     1      22.996  -0.547  53.867  1.00  0.00    -0.023 A 
HETATM   25  C6  UNL     1      23.124  -1.124  55.119  1.00  0.00     0.012 A 
HETATM   26  C5  UNL     1      24.385  -1.213  55.684  1.00  0.00     0.004 A 
HETATM   27  C4  UNL     1      25.478  -0.717  54.966  1.00  0.00     0.037 A 
HETATM   28  C3  UNL     1      25.332  -0.142  53.707  1.00  0.00     0.069 A 
HETATM   29  C24 UNL     1      24.069  -0.066  53.173  1.00  0.00     0.049 A 
BRANCH  28  30
HETATM   30  O1  UNL     1      26.578   0.250  53.254  1.00  0.00    -0.351 OA
BRANCH  30  31
HETATM   31  C2  UNL     1      27.590  -0.702  53.058  1.00  0.00     0.171 C 
HETATM   32  C1  UNL     1      28.907  -0.243  53.630  1.00  0.00     0.034 C 
ENDBRANCH  30  31
ENDBRANCH  28  30
ENDBRANCH   1  24
TORSDOF 7
ENDMDL
MODEL 8
REMARK VINA RESULT:      -7.6      2.654      4.194
REMARK  7 active torsions:
REMARK  status: ('A' for Active; 'I' for Inactive)
REMARK    1  A    between atoms: C2_2  and  O1_3 
REMARK    2  A    between atoms: O1_3  and  C3_4 
REMARK    3  A    between atoms: C7_8  and  C8_9 
REMARK    4  A    between atoms: C16_19  and  C17_20 
REMARK    5  A    between atoms: C17_20  and  C18_21 
REMARK    6  A    between atoms: C18_21  and  C19_22 
REMARK    7  A    between atoms: C19_22  and  O4_24 
ROOT
HETATM    1  C8  UNL     1      25.188   3.809  50.041  1.00  0.00    -0.024 A 
HETATM    2  C9  UNL     1      24.322   4.756  49.540  1.00  0.00     0.013 A 
HETATM    3  C10 UNL     1      24.849   5.780  48.820  1.00  0.00     0.015 A 
HETATM    4  C11 UNL     1      26.211   5.840  48.617  1.00  0.00     0.006 A 
HETATM    5  C12 UNL     1      27.121   4.925  49.092  1.00  0.00     0.047 A 
HETATM    6  C13 UNL     1      26.544   3.897  49.820  1.00  0.00     0.042 A 
HETATM    7  N1  UNL     1      28.452   5.260  48.717  1.00  0.00    -0.322 N 
HETATM    8  C14 UNL     1      28.345   6.462  47.963  1.00  0.00     0.256 A 
HETATM    9  O2  UNL     1      29.458   6.900  47.548  1.00  0.00    -0.267 OA
HETATM   10  C15 UNL     1      26.949   6.879  47.864  1.00  0.00     0.043 A 
HETATM   11  C16 UNL     1      26.598   7.969  47.208  1.00  0.00     0.027 C 
HETATM   12  H12 UNL     1      29.232   4.634  49.023  1.00  0.00     0.169 HD
ENDROOT
BRANCH  11  13
HETATM   13  C17 UNL     1      27.335   8.990  46.467  1.00  0.00     0.082 A 
HETATM   14  N2  UNL     1      26.410  10.103  46.155  1.00  0.00    -0.382 N 
HETATM   15  C21 UNL     1      27.140  11.033  46.898  1.00  0.00     0.089 A 
HETATM   16  H19 UNL     1      25.552  10.055  45.568  1.00  0.00     0.160 HD
HETATM   17  C22 UNL     1      28.013  10.057  47.213  1.00  0.00    -0.036 A 
HETATM   18  C23 UNL     1      29.230  10.175  48.057  1.00  0.00     0.048 C 
BRANCH  13  19
HETATM   19  C18 UNL     1      27.948   8.573  45.147  1.00  0.00     0.151 C 
BRANCH  19  20
HETATM   20  C19 UNL     1      27.013   8.703  44.010  1.00  0.00     0.261 C 
HETATM   21  O3  UNL     1      27.331   9.608  43.208  1.00  0.00    -0.265 OA
BRANCH  20  22
HETATM   22  O4  UNL     1      25.853   8.040  43.631  1.00  0.00    -0.326 OA
HETATM   23  C20 UNL     1      24.792   8.745  43.054  1.00  0.00     0.213 C 
ENDBRANCH  20  22
ENDBRANCH  19  20
ENDBRANCH  13  19
ENDBRANCH  11  13
BRANCH   1  24
HETATM   24  C7  UNL     1      24.607   2.715  50.812  1.00  0.00    -0.023 A 
HETATM   25  C6  UNL     1      23.346   2.227  50.514  1.00  0.00     0.012 A 
HETATM   26  C5  UNL     1      22.838   1.188  51.275  1.00  0.00     0.004 A 
HETATM   27  C4  UNL     1      23.620   0.674  52.315  1.00  0.00     0.037 A 
HETATM   28  C3  UNL     1      24.886   1.176  52.601  1.00  0.00     0.069 A 
HETATM   29  C24 UNL     1      25.363   2.207  51.829  1.00  0.00     0.049 A 
BRANCH  28  30
HETATM   30  O1  UNL     1      25.407   0.473  53.671  1.00  0.00    -0.351 OA
BRANCH  30  31
HETATM   31  C2  UNL     1      26.683  -0.105  53.584  1.00  0.00     0.171 C 
HETATM   32  C1  UNL     1      26.755  -1.134  52.485  1.00  0.00     0.034 C 
ENDBRANCH  30  31
ENDBRANCH  28  30
ENDBRANCH   1  24
TORSDOF 7
ENDMDL
MODEL 9
REMARK VINA RESULT:      -7.6      3.037      3.950
REMARK  7 active torsions:
REMARK  status: ('A' for Active; 'I' for Inactive)
REMARK    1  A    between atoms: C2_2  and  O1_3 
REMARK    2  A    between atoms: O1_3  and  C3_4 
REMARK    3  A    between atoms: C7_8  and  C8_9 
REMARK    4  A    between atoms: C16_19  and  C17_20 
REMARK    5  A    between atoms: C17_20  and  C18_21 
REMARK    6  A    between atoms: C18_21  and  C19_22 
REMARK    7  A    between atoms: C19_22  and  O4_24 
ROOT
HETATM    1  C8  UNL     1      24.134   3.562  49.708  1.00  0.00    -0.024 A 
HETATM    2  C9  UNL     1      23.520   4.722  49.289  1.00  0.00     0.013 A 
HETATM    3  C10 UNL     1      24.307   5.722  48.818  1.00  0.00     0.015 A 
HETATM    4  C11 UNL     1      25.674   5.551  48.775  1.00  0.00     0.006 A 
HETATM    5  C12 UNL     1      26.340   4.418  49.178  1.00  0.00     0.047 A 
HETATM    6  C13 UNL     1      25.502   3.421  49.652  1.00  0.00     0.042 A 
HETATM    7  N1  UNL     1      27.747   4.544  49.011  1.00  0.00    -0.322 N 
HETATM    8  C14 UNL     1      27.952   5.844  48.469  1.00  0.00     0.256 A 
HETATM    9  O2  UNL     1      29.170   6.118  48.257  1.00  0.00    -0.267 OA
HETATM   10  C15 UNL     1      26.675   6.531  48.296  1.00  0.00     0.043 A 
HETATM   11  C16 UNL     1      26.609   7.754  47.805  1.00  0.00     0.027 C 
HETATM   12  H12 UNL     1      28.360   3.742  49.285  1.00  0.00     0.169 HD
ENDROOT
BRANCH  11  13
HETATM   13  C17 UNL     1      27.603   8.715  47.335  1.00  0.00     0.082 A 
HETATM   14  N2  UNL     1      28.462   8.049  46.330  1.00  0.00    -0.382 N 
HETATM   15  C21 UNL     1      28.082   8.916  45.303  1.00  0.00     0.089 A 
HETATM   16  H19 UNL     1      29.081   7.228  46.484  1.00  0.00     0.160 HD
HETATM   17  C22 UNL     1      27.283   9.559  46.177  1.00  0.00    -0.036 A 
HETATM   18  C23 UNL     1      26.415  10.734  45.908  1.00  0.00     0.048 C 
BRANCH  13  19
HETATM   19  C18 UNL     1      28.544   9.292  48.372  1.00  0.00     0.151 C 
BRANCH  19  20
HETATM   20  C19 UNL     1      27.875  10.227  49.300  1.00  0.00     0.261 C 
HETATM   21  O3  UNL     1      27.437   9.674  50.332  1.00  0.00    -0.265 OA
BRANCH  20  22
HETATM   22  O4  UNL     1      27.623  11.593  49.283  1.00  0.00    -0.326 OA
HETATM   23  C20 UNL     1      28.446  12.455  48.551  1.00  0.00     0.213 C 
ENDBRANCH  20  22
ENDBRANCH  19  20
ENDBRANCH  13  19
ENDBRANCH  11  13
BRANCH   1  24
HETATM   24  C7  UNL     1      23.274   2.496  50.212  1.00  0.00    -0.023 A 
HETATM   25  C6  UNL     1      22.292   1.937  49.412  1.00  0.00     0.012 A 
HETATM   26  C5  UNL     1      21.501   0.929  49.936  1.00  0.00     0.004 A 
HETATM   27  C4  UNL     1      21.728   0.516  51.253  1.00  0.00     0.037 A 
HETATM   28  C3  UNL     1      22.721   1.087  52.043  1.00  0.00     0.069 A 
HETATM   29  C24 UNL     1      23.488   2.086  51.496  1.00  0.00     0.049 A 
BRANCH  28  30
HETATM   30  O1  UNL     1      22.702   0.476  53.283  1.00  0.00    -0.351 OA
BRANCH  30  31
HETATM   31  C2  UNL     1      22.598  -0.920  53.382  1.00  0.00     0.171 C 
HETATM   32  C1  UNL     1      21.684  -1.333  54.507  1.00  0.00     0.034 C 
ENDBRANCH  30  31
ENDBRANCH  28  30
ENDBRANCH   1  24
TORSDOF 7
ENDMDL
