MODEL 1
REMARK VINA RESULT:      -7.1      0.000      0.000
REMARK  8 active torsions:
REMARK  status: ('A' for Active; 'I' for Inactive)
REMARK    1  A    between atoms: C1_2  and  C2_3 
REMARK       I    between atoms: C1_2  and  N1_16 
REMARK    2  A    between atoms: C2_3  and  C3_4 
REMARK    3  A    between atoms: C3_4  and  C4_6 
REMARK    4  A    between atoms: C4_6  and  O2_7 
REMARK    5  A    between atoms: O2_7  and  C5_8 
REMARK    6  A    between atoms: C5_8  and  C6_9 
REMARK    7  A    between atoms: N1_16  and  C12_17 
REMARK    8  A    between atoms: C15_22  and  C16_23 
ROOT
HETATM    1  O1  UNL     1      26.503   3.116  49.269  1.00  0.00    -0.268 OA
HETATM    2  C1  UNL     1      26.567   2.769  50.514  1.00  0.00     0.248 C 
HETATM    3  N1  UNL     1      25.702   3.832  50.983  1.00  0.00    -0.307 N 
HETATM    4  H10 UNL     1      25.231   4.285  51.828  1.00  0.00     0.170 HD
ENDROOT
BRANCH   2   5
HETATM    5  C2  UNL     1      26.929   2.022  51.758  1.00  0.00     0.096 C 
BRANCH   5   6
HETATM    6  C3  UNL     1      27.482   1.349  52.807  1.00  0.00     0.040 C 
HETATM    7 CL1  UNL     1      28.387   2.366  53.920  1.00  0.00    -0.086 Cl
BRANCH   6   8
HETATM    8  C4  UNL     1      27.190  -0.088  52.833  1.00  0.00     0.219 C 
BRANCH   8   9
HETATM    9  O2  UNL     1      25.861  -0.349  52.685  1.00  0.00    -0.381 OA
BRANCH   9  10
HETATM   10  C5  UNL     1      25.171  -0.455  53.834  1.00  0.00     0.206 C 
BRANCH  10  11
HETATM   11  C6  UNL     1      23.704  -0.160  53.648  1.00  0.00    -0.032 A 
HETATM   12  C7  UNL     1      23.327   0.996  53.004  1.00  0.00     0.009 A 
HETATM   13  C8  UNL     1      21.999   1.328  52.800  1.00  0.00     0.004 A 
HETATM   14  C9  UNL     1      21.024   0.447  53.270  1.00  0.00     0.042 A 
HETATM   15  C10 UNL     1      21.385  -0.715  53.918  1.00  0.00     0.117 A 
HETATM   16  F1  UNL     1      20.431  -1.581  54.380  1.00  0.00    -0.206 F 
HETATM   17  C11 UNL     1      22.716  -1.025  54.110  1.00  0.00     0.051 A 
ENDBRANCH  10  11
ENDBRANCH   9  10
ENDBRANCH   8   9
ENDBRANCH   6   8
ENDBRANCH   5   6
ENDBRANCH   2   5
BRANCH   3  18
HETATM   18  C12 UNL     1      25.126   4.797  50.072  1.00  0.00     0.143 A 
HETATM   19  N2  UNL     1      25.745   5.964  49.763  1.00  0.00    -0.224 NA
HETATM   20  C13 UNL     1      25.150   6.833  48.897  1.00  0.00     0.234 A 
HETATM   21  N3  UNL     1      23.946   6.582  48.317  1.00  0.00    -0.253 NA
HETATM   22  C14 UNL     1      23.297   5.441  48.593  1.00  0.00     0.133 A 
HETATM   23  C15 UNL     1      23.899   4.566  49.468  1.00  0.00     0.028 A 
BRANCH  23  24
HETATM   24  C16 UNL     1      23.191   3.321  49.768  1.00  0.00     0.024 C 
HETATM   25  C17 UNL     1      22.425   2.698  48.898  1.00  0.00     0.057 C 
HETATM   26 BR1  UNL     1      21.449   1.094  49.130  1.00  0.00    -0.064 Br
ENDBRANCH  23  24
ENDBRANCH   3  18
TORSDOF 8
ENDMDL
MODEL 2
REMARK VINA RESULT:      -7.1      4.934      6.577
REMARK  8 active torsions:
REMARK  status: ('A' for Active; 'I' for Inactive)
REMARK    1  A    between atoms: C1_2  and  C2_3 
REMARK       I    between atoms: C1_2  and  N1_16 
REMARK    2  A    between atoms: C2_3  and  C3_4 
REMARK    3  A    between atoms: C3_4  and  C4_6 
REMARK    4  A    between atoms: C4_6  and  O2_7 
REMARK    5  A    between atoms: O2_7  and  C5_8 
REMARK    6  A    between atoms: C5_8  and  C6_9 
REMARK    7  A    between atoms: N1_16  and  C12_17 
REMARK    8  A    between atoms: C15_22  and  C16_23 
ROOT
HETATM    1  O1  UNL     1      28.590   7.186  47.311  1.00  0.00    -0.268 OA
HETATM    2  C1  UNL     1      27.982   6.338  48.076  1.00  0.00     0.248 C 
HETATM    3  N1  UNL     1      29.136   6.073  48.909  1.00  0.00    -0.307 N 
HETATM    4  H10 UNL     1      29.522   5.529  49.744  1.00  0.00     0.170 HD
ENDROOT
BRANCH   2   5
HETATM    5  C2  UNL     1      26.909   5.473  48.658  1.00  0.00     0.096 C 
BRANCH   5   6
HETATM    6  C3  UNL     1      26.111   4.566  49.290  1.00  0.00     0.040 C 
HETATM    7 CL1  UNL     1      24.480   5.140  49.607  1.00  0.00    -0.086 Cl
BRANCH   6   8
HETATM    8  C4  UNL     1      26.748   3.272  49.555  1.00  0.00     0.219 C 
BRANCH   8   9
HETATM    9  O2  UNL     1      27.143   3.146  50.853  1.00  0.00    -0.381 OA
BRANCH   9  10
HETATM   10  C5  UNL     1      26.317   2.423  51.631  1.00  0.00     0.206 C 
BRANCH  10  11
HETATM   11  C6  UNL     1      27.008   1.230  52.241  1.00  0.00    -0.032 A 
HETATM   12  C7  UNL     1      28.079   1.431  53.083  1.00  0.00     0.009 A 
HETATM   13  C8  UNL     1      28.758   0.381  53.676  1.00  0.00     0.004 A 
HETATM   14  C9  UNL     1      28.327  -0.918  53.399  1.00  0.00     0.042 A 
HETATM   15  C10 UNL     1      27.258  -1.136  52.558  1.00  0.00     0.117 A 
HETATM   16  F1  UNL     1      26.833  -2.408  52.285  1.00  0.00    -0.206 F 
HETATM   17  C11 UNL     1      26.595  -0.073  51.977  1.00  0.00     0.051 A 
ENDBRANCH  10  11
ENDBRANCH   9  10
ENDBRANCH   8   9
ENDBRANCH   6   8
ENDBRANCH   5   6
ENDBRANCH   2   5
BRANCH   3  18
HETATM   18  C12 UNL     1      30.406   6.724  48.674  1.00  0.00     0.143 A 
HETATM   19  N2  UNL     1      30.668   7.983  49.109  1.00  0.00    -0.224 NA
HETATM   20  C13 UNL     1      31.885   8.543  48.855  1.00  0.00     0.234 A 
HETATM   21  N3  UNL     1      32.867   7.890  48.177  1.00  0.00    -0.253 NA
HETATM   22  C14 UNL     1      32.652   6.644  47.728  1.00  0.00     0.133 A 
HETATM   23  C15 UNL     1      31.423   6.081  47.985  1.00  0.00     0.028 A 
BRANCH  23  24
HETATM   24  C16 UNL     1      31.191   4.722  47.495  1.00  0.00     0.024 C 
HETATM   25  C17 UNL     1      32.148   3.831  47.357  1.00  0.00     0.057 C 
HETATM   26 BR1  UNL     1      32.012   2.046  46.742  1.00  0.00    -0.064 Br
ENDBRANCH  23  24
ENDBRANCH   3  18
TORSDOF 8
ENDMDL
MODEL 3
REMARK VINA RESULT:      -7.0      3.026      5.373
REMARK  8 active torsions:
REMARK  status: ('A' for Active; 'I' for Inactive)
REMARK    1  A    between atoms: C1_2  and  C2_3 
REMARK       I    between atoms: C1_2  and  N1_16 
REMARK    2  A    between atoms: C2_3  and  C3_4 
REMARK    3  A    between atoms: C3_4  and  C4_6 
REMARK    4  A    between atoms: C4_6  and  O2_7 
REMARK    5  A    between atoms: O2_7  and  C5_8 
REMARK    6  A    between atoms: C5_8  and  C6_9 
REMARK    7  A    between atoms: N1_16  and  C12_17 
REMARK    8  A    between atoms: C15_22  and  C16_23 
ROOT
HETATM    1  O1  UNL     1      27.066   2.024  50.811  1.00  0.00    -0.268 OA
HETATM    2  C1  UNL     1      26.168   2.954  50.860  1.00  0.00     0.248 C 
HETATM    3  N1  UNL     1      26.079   2.963  52.306  1.00  0.00    -0.307 N 
HETATM    4  H10 UNL     1      25.614   3.398  53.164  1.00  0.00     0.170 HD
ENDROOT
BRANCH   2   5
HETATM    5  C2  UNL     1      25.187   3.998  50.432  1.00  0.00     0.096 C 
BRANCH   5   6
HETATM    6  C3  UNL     1      24.291   5.014  50.271  1.00  0.00     0.040 C 
HETATM    7 CL1  UNL     1      24.150   5.594  48.617  1.00  0.00    -0.086 Cl
BRANCH   6   8
HETATM    8  C4  UNL     1      23.587   5.408  51.495  1.00  0.00     0.219 C 
BRANCH   8   9
HETATM    9  O2  UNL     1      23.207   4.333  52.242  1.00  0.00    -0.381 OA
BRANCH   9  10
HETATM   10  C5  UNL     1      21.881   4.216  52.435  1.00  0.00     0.206 C 
BRANCH  10  11
HETATM   11  C6  UNL     1      21.344   2.905  51.919  1.00  0.00    -0.032 A 
HETATM   12  C7  UNL     1      22.140   2.123  51.112  1.00  0.00     0.009 A 
HETATM   13  C8  UNL     1      21.709   0.910  50.604  1.00  0.00     0.004 A 
HETATM   14  C9  UNL     1      20.422   0.482  50.932  1.00  0.00     0.042 A 
HETATM   15  C10 UNL     1      19.612   1.253  51.738  1.00  0.00     0.117 A 
HETATM   16  F1  UNL     1      18.349   0.836  52.062  1.00  0.00    -0.206 F 
HETATM   17  C11 UNL     1      20.063   2.461  52.233  1.00  0.00     0.051 A 
ENDBRANCH  10  11
ENDBRANCH   9  10
ENDBRANCH   8   9
ENDBRANCH   6   8
ENDBRANCH   5   6
ENDBRANCH   2   5
BRANCH   3  18
HETATM   18  C12 UNL     1      26.885   2.079  53.120  1.00  0.00     0.143 A 
HETATM   19  N2  UNL     1      28.190   2.330  53.392  1.00  0.00    -0.224 NA
HETATM   20  C13 UNL     1      28.897   1.458  54.166  1.00  0.00     0.234 A 
HETATM   21  N3  UNL     1      28.347   0.329  54.688  1.00  0.00    -0.253 NA
HETATM   22  C14 UNL     1      27.060   0.039  54.445  1.00  0.00     0.133 A 
HETATM   23  C15 UNL     1      26.349   0.921  53.663  1.00  0.00     0.028 A 
BRANCH  23  24
HETATM   24  C16 UNL     1      24.946   0.604  53.399  1.00  0.00     0.024 C 
HETATM   25  C17 UNL     1      24.298  -0.366  54.008  1.00  0.00     0.057 C 
HETATM   26 BR1  UNL     1      22.496  -0.897  53.781  1.00  0.00    -0.064 Br
ENDBRANCH  23  24
ENDBRANCH   3  18
TORSDOF 8
ENDMDL
MODEL 4
REMARK VINA RESULT:      -6.9      3.649      7.088
REMARK  8 active torsions:
REMARK  status: ('A' for Active; 'I' for Inactive)
REMARK    1  A    between atoms: C1_2  and  C2_3 
REMARK       I    between atoms: C1_2  and  N1_16 
REMARK    2  A    between atoms: C2_3  and  C3_4 
REMARK    3  A    between atoms: C3_4  and  C4_6 
REMARK    4  A    between atoms: C4_6  and  O2_7 
REMARK    5  A    between atoms: O2_7  and  C5_8 
REMARK    6  A    between atoms: C5_8  and  C6_9 
REMARK    7  A    between atoms: N1_16  and  C12_17 
REMARK    8  A    between atoms: C15_22  and  C16_23 
ROOT
HETATM    1  O1  UNL     1      24.651   3.255  53.717  1.00  0.00    -0.268 OA
HETATM    2  C1  UNL     1      23.801   3.535  52.783  1.00  0.00     0.248 C 
HETATM    3  N1  UNL     1      24.169   2.416  51.942  1.00  0.00    -0.307 N 
HETATM    4  H10 UNL     1      23.989   1.898  51.025  1.00  0.00     0.170 HD
ENDROOT
BRANCH   2   5
HETATM    5  C2  UNL     1      22.721   4.226  52.014  1.00  0.00     0.096 C 
BRANCH   5   6
HETATM    6  C3  UNL     1      21.736   4.661  51.176  1.00  0.00     0.040 C 
HETATM    7 CL1  UNL     1      20.140   4.024  51.549  1.00  0.00    -0.086 Cl
BRANCH   6   8
HETATM    8  C4  UNL     1      22.182   5.603  50.145  1.00  0.00     0.219 C 
BRANCH   8   9
HETATM    9  O2  UNL     1      23.375   6.184  50.457  1.00  0.00    -0.381 OA
BRANCH   9  10
HETATM   10  C5  UNL     1      24.028   6.734  49.418  1.00  0.00     0.206 C 
BRANCH  10  11
HETATM   11  C6  UNL     1      25.343   6.049  49.143  1.00  0.00    -0.032 A 
HETATM   12  C7  UNL     1      26.390   6.783  48.635  1.00  0.00     0.009 A 
HETATM   13  C8  UNL     1      27.623   6.217  48.360  1.00  0.00     0.004 A 
HETATM   14  C9  UNL     1      27.789   4.855  48.613  1.00  0.00     0.042 A 
HETATM   15  C10 UNL     1      26.750   4.105  49.122  1.00  0.00     0.117 A 
HETATM   16  F1  UNL     1      26.911   2.769  49.372  1.00  0.00    -0.206 F 
HETATM   17  C11 UNL     1      25.529   4.691  49.389  1.00  0.00     0.051 A 
ENDBRANCH  10  11
ENDBRANCH   9  10
ENDBRANCH   8   9
ENDBRANCH   6   8
ENDBRANCH   5   6
ENDBRANCH   2   5
BRANCH   3  18
HETATM   18  C12 UNL     1      25.201   1.481  52.333  1.00  0.00     0.143 A 
HETATM   19  N2  UNL     1      26.523   1.765  52.213  1.00  0.00    -0.224 NA
HETATM   20  C13 UNL     1      27.448   0.842  52.600  1.00  0.00     0.234 A 
HETATM   21  N3  UNL     1      27.105  -0.371  53.110  1.00  0.00    -0.253 NA
HETATM   22  C14 UNL     1      25.811  -0.696  53.247  1.00  0.00     0.133 A 
HETATM   23  C15 UNL     1      24.879   0.238  52.855  1.00  0.00     0.028 A 
BRANCH  23  24
HETATM   24  C16 UNL     1      23.467  -0.118  53.005  1.00  0.00     0.024 C 
HETATM   25  C17 UNL     1      22.996  -0.785  54.037  1.00  0.00     0.057 C 
HETATM   26 BR1  UNL     1      21.212  -1.317  54.375  1.00  0.00    -0.064 Br
ENDBRANCH  23  24
ENDBRANCH   3  18
TORSDOF 8
ENDMDL
MODEL 5
REMARK VINA RESULT:      -6.8      4.771      6.520
REMARK  8 active torsions:
REMARK  status: ('A' for Active; 'I' for Inactive)
REMARK    1  A    between atoms: C1_2  and  C2_3 
REMARK       I    between atoms: C1_2  and  N1_16 
REMARK    2  A    between atoms: C2_3  and  C3_4 
REMARK    3  A    between atoms: C3_4  and  C4_6 
REMARK    4  A    between atoms: C4_6  and  O2_7 
REMARK    5  A    between atoms: O2_7  and  C5_8 
REMARK    6  A    between atoms: C5_8  and  C6_9 
REMARK    7  A    between atoms: N1_16  and  C12_17 
REMARK    8  A    between atoms: C15_22  and  C16_23 
ROOT
HETATM    1  O1  UNL     1      30.031   5.467  47.571  1.00  0.00    -0.268 OA
HETATM    2  C1  UNL     1      28.901   5.398  48.197  1.00  0.00     0.248 C 
HETATM    3  N1  UNL     1      29.022   6.704  48.813  1.00  0.00    -0.307 N 
HETATM    4  H10 UNL     1      28.570   7.427  49.457  1.00  0.00     0.170 HD
ENDROOT
BRANCH   2   5
HETATM    5  C2  UNL     1      27.589   4.884  48.696  1.00  0.00     0.096 C 
BRANCH   5   6
HETATM    6  C3  UNL     1      26.354   4.639  49.221  1.00  0.00     0.040 C 
HETATM    7 CL1  UNL     1      25.268   6.021  49.183  1.00  0.00    -0.086 Cl
BRANCH   6   8
HETATM    8  C4  UNL     1      26.149   3.263  49.686  1.00  0.00     0.219 C 
BRANCH   8   9
HETATM    9  O2  UNL     1      26.979   2.936  50.716  1.00  0.00    -0.381 OA
BRANCH   9  10
HETATM   10  C5  UNL     1      26.367   2.423  51.798  1.00  0.00     0.206 C 
BRANCH  10  11
HETATM   11  C6  UNL     1      27.158   1.302  52.422  1.00  0.00    -0.032 A 
HETATM   12  C7  UNL     1      28.261   1.603  53.190  1.00  0.00     0.009 A 
HETATM   13  C8  UNL     1      29.031   0.623  53.791  1.00  0.00     0.004 A 
HETATM   14  C9  UNL     1      28.661  -0.709  53.603  1.00  0.00     0.042 A 
HETATM   15  C10 UNL     1      27.560  -1.028  52.837  1.00  0.00     0.117 A 
HETATM   16  F1  UNL     1      27.194  -2.334  52.651  1.00  0.00    -0.206 F 
HETATM   17  C11 UNL     1      26.806  -0.033  52.246  1.00  0.00     0.051 A 
ENDBRANCH  10  11
ENDBRANCH   9  10
ENDBRANCH   8   9
ENDBRANCH   6   8
ENDBRANCH   5   6
ENDBRANCH   2   5
BRANCH   3  18
HETATM   18  C12 UNL     1      30.174   7.547  48.581  1.00  0.00     0.143 A 
HETATM   19  N2  UNL     1      31.347   7.374  49.242  1.00  0.00    -0.224 NA
HETATM   20  C13 UNL     1      32.397   8.202  48.978  1.00  0.00     0.234 A 
HETATM   21  N3  UNL     1      32.326   9.210  48.068  1.00  0.00    -0.253 NA
HETATM   22  C14 UNL     1      31.187   9.419  47.390  1.00  0.00     0.133 A 
HETATM   23  C15 UNL     1      30.129   8.582  47.659  1.00  0.00     0.028 A 
BRANCH  23  24
HETATM   24  C16 UNL     1      28.887   8.811  46.919  1.00  0.00     0.024 C 
HETATM   25  C17 UNL     1      28.680   8.361  45.700  1.00  0.00     0.057 C 
HETATM   26 BR1  UNL     1      27.142   8.570  44.617  1.00  0.00    -0.064 Br
ENDBRANCH  23  24
ENDBRANCH   3  18
TORSDOF 8
ENDMDL
MODEL 6
REMARK VINA RESULT:      -6.8      4.071      6.296
REMARK  8 active torsions:
REMARK  status: ('A' for Active; 'I' for Inactive)
REMARK    1  A    between atoms: C1_2  and  C2_3 
REMARK       I    between atoms: C1_2  and  N1_16 
REMARK    2  A    between atoms: C2_3  and  C3_4 
REMARK    3  A    between atoms: C3_4  and  C4_6 
REMARK    4  A    between atoms: C4_6  and  O2_7 
REMARK    5  A    between atoms: O2_7  and  C5_8 
REMARK    6  A    between atoms: C5_8  and  C6_9 
REMARK    7  A    between atoms: N1_16  and  C12_17 
REMARK    8  A    between atoms: C15_22  and  C16_23 
ROOT
HETATM    1  O1  UNL     1      21.370   0.421  49.851  1.00  0.00    -0.268 OA
HETATM    2  C1  UNL     1      22.096   1.412  50.256  1.00  0.00     0.248 C 
HETATM    3  N1  UNL     1      21.382   1.585  51.505  1.00  0.00    -0.307 N 
HETATM    4  H10 UNL     1      21.307   2.143  52.413  1.00  0.00     0.170 HD
ENDROOT
BRANCH   2   5
HETATM    5  C2  UNL     1      23.153   2.469  50.294  1.00  0.00     0.096 C 
BRANCH   5   6
HETATM    6  C3  UNL     1      23.986   3.528  50.503  1.00  0.00     0.040 C 
HETATM    7 CL1  UNL     1      24.664   4.212  49.031  1.00  0.00    -0.086 Cl
BRANCH   6   8
HETATM    8  C4  UNL     1      24.134   3.922  51.907  1.00  0.00     0.219 C 
BRANCH   8   9
HETATM    9  O2  UNL     1      23.971   2.871  52.759  1.00  0.00    -0.381 OA
BRANCH   9  10
HETATM   10  C5  UNL     1      24.931   2.740  53.691  1.00  0.00     0.206 C 
BRANCH  10  11
HETATM   11  C6  UNL     1      25.714   1.461  53.528  1.00  0.00    -0.032 A 
HETATM   12  C7  UNL     1      25.320   0.549  52.575  1.00  0.00     0.009 A 
HETATM   13  C8  UNL     1      25.993  -0.643  52.373  1.00  0.00     0.004 A 
HETATM   14  C9  UNL     1      27.105  -0.911  53.172  1.00  0.00     0.042 A 
HETATM   15  C10 UNL     1      27.512  -0.009  54.131  1.00  0.00     0.117 A 
HETATM   16  F1  UNL     1      28.604  -0.269  54.915  1.00  0.00    -0.206 F 
HETATM   17  C11 UNL     1      26.825   1.175  54.315  1.00  0.00     0.051 A 
ENDBRANCH  10  11
ENDBRANCH   9  10
ENDBRANCH   8   9
ENDBRANCH   6   8
ENDBRANCH   5   6
ENDBRANCH   2   5
BRANCH   3  18
HETATM   18  C12 UNL     1      20.263   0.742  51.861  1.00  0.00     0.143 A 
HETATM   19  N2  UNL     1      19.118   0.709  51.134  1.00  0.00    -0.224 NA
HETATM   20  C13 UNL     1      18.097  -0.108  51.521  1.00  0.00     0.234 A 
HETATM   21  N3  UNL     1      18.173  -0.906  52.620  1.00  0.00    -0.253 NA
HETATM   22  C14 UNL     1      19.285  -0.906  53.370  1.00  0.00     0.133 A 
HETATM   23  C15 UNL     1      20.314  -0.080  52.976  1.00  0.00     0.028 A 
BRANCH  23  24
HETATM   24  C16 UNL     1      21.527  -0.082  53.795  1.00  0.00     0.024 C 
HETATM   25  C17 UNL     1      21.976  -1.150  54.418  1.00  0.00     0.057 C 
HETATM   26 BR1  UNL     1      23.517  -1.314  55.505  1.00  0.00    -0.064 Br
ENDBRANCH  23  24
ENDBRANCH   3  18
TORSDOF 8
ENDMDL
MODEL 7
REMARK VINA RESULT:      -6.8      3.960      7.811
REMARK  8 active torsions:
REMARK  status: ('A' for Active; 'I' for Inactive)
REMARK    1  A    between atoms: C1_2  and  C2_3 
REMARK       I    between atoms: C1_2  and  N1_16 
REMARK    2  A    between atoms: C2_3  and  C3_4 
REMARK    3  A    between atoms: C3_4  and  C4_6 
REMARK    4  A    between atoms: C4_6  and  O2_7 
REMARK    5  A    between atoms: O2_7  and  C5_8 
REMARK    6  A    between atoms: C5_8  and  C6_9 
REMARK    7  A    between atoms: N1_16  and  C12_17 
REMARK    8  A    between atoms: C15_22  and  C16_23 
ROOT
HETATM    1  O1  UNL     1      27.147   2.251  51.010  1.00  0.00    -0.268 OA
HETATM    2  C1  UNL     1      26.078   2.963  51.170  1.00  0.00     0.248 C 
HETATM    3  N1  UNL     1      25.991   2.736  52.598  1.00  0.00    -0.307 N 
HETATM    4  H10 UNL     1      25.448   2.934  53.497  1.00  0.00     0.170 HD
ENDROOT
BRANCH   2   5
HETATM    5  C2  UNL     1      24.905   3.840  50.872  1.00  0.00     0.096 C 
BRANCH   5   6
HETATM    6  C3  UNL     1      23.946   4.685  50.394  1.00  0.00     0.040 C 
HETATM    7 CL1  UNL     1      23.351   4.266  48.793  1.00  0.00    -0.086 Cl
BRANCH   6   8
HETATM    8  C4  UNL     1      23.566   5.761  51.314  1.00  0.00     0.219 C 
BRANCH   8   9
HETATM    9  O2  UNL     1      24.538   6.708  51.433  1.00  0.00    -0.381 OA
BRANCH   9  10
HETATM   10  C5  UNL     1      24.562   7.625  50.450  1.00  0.00     0.206 C 
BRANCH  10  11
HETATM   11  C6  UNL     1      25.940   7.796  49.862  1.00  0.00    -0.032 A 
HETATM   12  C7  UNL     1      26.667   8.924  50.169  1.00  0.00     0.009 A 
HETATM   13  C8  UNL     1      27.936   9.144  49.663  1.00  0.00     0.004 A 
HETATM   14  C9  UNL     1      28.481   8.177  48.817  1.00  0.00     0.042 A 
HETATM   15  C10 UNL     1      27.766   7.042  48.500  1.00  0.00     0.117 A 
HETATM   16  F1  UNL     1      28.298   6.091  47.671  1.00  0.00    -0.206 F 
HETATM   17  C11 UNL     1      26.501   6.844  49.016  1.00  0.00     0.051 A 
ENDBRANCH  10  11
ENDBRANCH   9  10
ENDBRANCH   8   9
ENDBRANCH   6   8
ENDBRANCH   5   6
ENDBRANCH   2   5
BRANCH   3  18
HETATM   18  C12 UNL     1      26.961   1.920  53.296  1.00  0.00     0.143 A 
HETATM   19  N2  UNL     1      28.130   2.424  53.767  1.00  0.00    -0.224 NA
HETATM   20  C13 UNL     1      29.003   1.603  54.417  1.00  0.00     0.234 A 
HETATM   21  N3  UNL     1      28.755   0.281  54.620  1.00  0.00    -0.253 NA
HETATM   22  C14 UNL     1      27.613  -0.260  54.172  1.00  0.00     0.133 A 
HETATM   23  C15 UNL     1      26.733   0.570  53.516  1.00  0.00     0.028 A 
BRANCH  23  24
HETATM   24  C16 UNL     1      25.488  -0.022  53.027  1.00  0.00     0.024 C 
HETATM   25  C17 UNL     1      24.400  -0.122  53.760  1.00  0.00     0.057 C 
HETATM   26 BR1  UNL     1      22.723  -0.855  53.279  1.00  0.00    -0.064 Br
ENDBRANCH  23  24
ENDBRANCH   3  18
TORSDOF 8
ENDMDL
MODEL 8
REMARK VINA RESULT:      -6.8      4.219      7.884
REMARK  8 active torsions:
REMARK  status: ('A' for Active; 'I' for Inactive)
REMARK    1  A    between atoms: C1_2  and  C2_3 
REMARK       I    between atoms: C1_2  and  N1_16 
REMARK    2  A    between atoms: C2_3  and  C3_4 
REMARK    3  A    between atoms: C3_4  and  C4_6 
REMARK    4  A    between atoms: C4_6  and  O2_7 
REMARK    5  A    between atoms: O2_7  and  C5_8 
REMARK    6  A    between atoms: C5_8  and  C6_9 
REMARK    7  A    between atoms: N1_16  and  C12_17 
REMARK    8  A    between atoms: C15_22  and  C16_23 
ROOT
HETATM    1  O1  UNL     1      24.534   3.096  53.412  1.00  0.00    -0.268 OA
HETATM    2  C1  UNL     1      24.260   3.059  52.148  1.00  0.00     0.248 C 
HETATM    3  N1  UNL     1      24.674   1.682  51.973  1.00  0.00    -0.307 N 
HETATM    4  H10 UNL     1      24.786   0.870  51.288  1.00  0.00     0.170 HD
ENDROOT
BRANCH   2   5
HETATM    5  C2  UNL     1      23.813   3.479  50.784  1.00  0.00     0.096 C 
BRANCH   5   6
HETATM    6  C3  UNL     1      23.188   3.797  49.615  1.00  0.00     0.040 C 
HETATM    7 CL1  UNL     1      22.825   2.413  48.593  1.00  0.00    -0.086 Cl
BRANCH   6   8
HETATM    8  C4  UNL     1      22.903   5.225  49.442  1.00  0.00     0.219 C 
BRANCH   8   9
HETATM    9  O2  UNL     1      23.986   6.005  49.715  1.00  0.00    -0.381 OA
BRANCH   9  10
HETATM   10  C5  UNL     1      24.498   6.657  48.657  1.00  0.00     0.206 C 
BRANCH  10  11
HETATM   11  C6  UNL     1      25.970   6.384  48.475  1.00  0.00    -0.032 A 
HETATM   12  C7  UNL     1      26.480   5.165  48.860  1.00  0.00     0.009 A 
HETATM   13  C8  UNL     1      27.820   4.849  48.721  1.00  0.00     0.004 A 
HETATM   14  C9  UNL     1      28.667   5.811  48.170  1.00  0.00     0.042 A 
HETATM   15  C10 UNL     1      28.172   7.038  47.780  1.00  0.00     0.117 A 
HETATM   16  F1  UNL     1      29.000   7.984  47.239  1.00  0.00    -0.206 F 
HETATM   17  C11 UNL     1      26.831   7.331  47.928  1.00  0.00     0.051 A 
ENDBRANCH  10  11
ENDBRANCH   9  10
ENDBRANCH   8   9
ENDBRANCH   6   8
ENDBRANCH   5   6
ENDBRANCH   2   5
BRANCH   3  18
HETATM   18  C12 UNL     1      25.183   0.898  53.077  1.00  0.00     0.143 A 
HETATM   19  N2  UNL     1      26.435   1.066  53.571  1.00  0.00    -0.224 NA
HETATM   20  C13 UNL     1      26.857   0.295  54.614  1.00  0.00     0.234 A 
HETATM   21  N3  UNL     1      26.068  -0.650  55.193  1.00  0.00    -0.253 NA
HETATM   22  C14 UNL     1      24.823  -0.851  54.737  1.00  0.00     0.133 A 
HETATM   23  C15 UNL     1      24.400  -0.072  53.685  1.00  0.00     0.028 A 
BRANCH  23  24
HETATM   24  C16 UNL     1      23.041  -0.293  53.189  1.00  0.00     0.024 C 
HETATM   25  C17 UNL     1      21.963   0.042  53.864  1.00  0.00     0.057 C 
HETATM   26 BR1  UNL     1      20.151  -0.174  53.365  1.00  0.00    -0.064 Br
ENDBRANCH  23  24
ENDBRANCH   3  18
TORSDOF 8
ENDMDL
MODEL 9
REMARK VINA RESULT:      -6.6      4.706      8.438
REMARK  8 active torsions:
REMARK  status: ('A' for Active; 'I' for Inactive)
REMARK    1  A    between atoms: C1_2  and  C2_3 
REMARK       I    between atoms: C1_2  and  N1_16 
REMARK    2  A    between atoms: C2_3  and  C3_4 
REMARK    3  A    between atoms: C3_4  and  C4_6 
REMARK    4  A    between atoms: C4_6  and  O2_7 
REMARK    5  A    between atoms: O2_7  and  C5_8 
REMARK    6  A    between atoms: C5_8  and  C6_9 
REMARK    7  A    between atoms: N1_16  and  C12_17 
REMARK    8  A    between atoms: C15_22  and  C16_23 
ROOT
HETATM    1  O1  UNL     1      26.817   1.759  51.065  1.00  0.00    -0.268 OA
HETATM    2  C1  UNL     1      26.064   2.810  51.108  1.00  0.00     0.248 C 
HETATM    3  N1  UNL     1      25.988   2.848  52.554  1.00  0.00    -0.307 N 
HETATM    4  H10 UNL     1      25.598   3.356  53.409  1.00  0.00     0.170 HD
ENDROOT
BRANCH   2   5
HETATM    5  C2  UNL     1      25.242   3.981  50.672  1.00  0.00     0.096 C 
BRANCH   5   6
HETATM    6  C3  UNL     1      24.688   5.176  50.319  1.00  0.00     0.040 C 
HETATM    7 CL1  UNL     1      23.515   5.796  51.473  1.00  0.00    -0.086 Cl
BRANCH   6   8
HETATM    8  C4  UNL     1      25.198   5.739  49.065  1.00  0.00     0.219 C 
BRANCH   8   9
HETATM    9  O2  UNL     1      26.297   6.521  49.258  1.00  0.00    -0.381 OA
BRANCH   9  10
HETATM   10  C5  UNL     1      26.925   6.907  48.133  1.00  0.00     0.206 C 
BRANCH  10  11
HETATM   11  C6  UNL     1      28.426   6.887  48.283  1.00  0.00    -0.032 A 
HETATM   12  C7  UNL     1      29.107   5.710  48.068  1.00  0.00     0.009 A 
HETATM   13  C8  UNL     1      30.483   5.622  48.189  1.00  0.00     0.004 A 
HETATM   14  C9  UNL     1      31.185   6.776  48.539  1.00  0.00     0.042 A 
HETATM   15  C10 UNL     1      30.518   7.962  48.758  1.00  0.00     0.117 A 
HETATM   16  F1  UNL     1      31.205   9.096  49.101  1.00  0.00    -0.206 F 
HETATM   17  C11 UNL     1      29.145   8.027  48.632  1.00  0.00     0.051 A 
ENDBRANCH  10  11
ENDBRANCH   9  10
ENDBRANCH   8   9
ENDBRANCH   6   8
ENDBRANCH   5   6
ENDBRANCH   2   5
BRANCH   3  18
HETATM   18  C12 UNL     1      26.663   1.865  53.374  1.00  0.00     0.143 A 
HETATM   19  N2  UNL     1      27.972   1.977  53.712  1.00  0.00    -0.224 NA
HETATM   20  C13 UNL     1      28.552   1.017  54.488  1.00  0.00     0.234 A 
HETATM   21  N3  UNL     1      27.869  -0.065  54.948  1.00  0.00    -0.253 NA
HETATM   22  C14 UNL     1      26.572  -0.217  54.639  1.00  0.00     0.133 A 
HETATM   23  C15 UNL     1      25.990   0.753  53.855  1.00  0.00     0.028 A 
BRANCH  23  24
HETATM   24  C16 UNL     1      24.576   0.585  53.519  1.00  0.00     0.024 C 
HETATM   25  C17 UNL     1      23.926  -0.548  53.672  1.00  0.00     0.057 C 
HETATM   26 BR1  UNL     1      22.112  -0.924  53.288  1.00  0.00    -0.064 Br
ENDBRANCH  23  24
ENDBRANCH   3  18
TORSDOF 8
ENDMDL
