MODEL 1
REMARK VINA RESULT:      -7.1      0.000      0.000
REMARK  8 active torsions:
REMARK  status: ('A' for Active; 'I' for Inactive)
REMARK    1  A    between atoms: C2_2  and  C3_3 
REMARK    2  A    between atoms: C3_3  and  C4_4 
REMARK    3  A    between atoms: C4_4  and  N1_5 
REMARK    4  A    between atoms: N1_5  and  C5_6 
REMARK       I    between atoms: N1_5  and  C14_16 
REMARK    5  A    between atoms: C5_6  and  C6_7 
REMARK    6  A    between atoms: C13_14  and  O1_15 
REMARK       I    between atoms: C14_16  and  N2_18 
REMARK    7  A    between atoms: N2_18  and  C15_19 
REMARK    8  A    between atoms: C16_20  and  C17_21 
ROOT
HETATM    1  N1  UNL     1      24.307   2.327  51.621  1.00  0.00    -0.330 N 
HETATM    2  C14 UNL     1      24.882   3.153  50.623  1.00  0.00     0.322 C 
HETATM    3  O2  UNL     1      24.180   3.004  49.572  1.00  0.00    -0.247 OA
HETATM    4  N2  UNL     1      25.991   4.026  50.609  1.00  0.00    -0.319 N 
HETATM    5  H21 UNL     1      26.461   4.059  51.533  1.00  0.00     0.169 HD
ENDROOT
BRANCH   1   6
HETATM    6  C4  UNL     1      23.117   1.612  51.169  1.00  0.00     0.128 C 
BRANCH   6   7
HETATM    7  C3  UNL     1      22.086   1.437  52.251  1.00  0.00     0.020 C 
BRANCH   7   8
HETATM    8  C2  UNL     1      21.553   0.009  52.108  1.00  0.00    -0.003 C 
HETATM    9  C1  UNL     1      22.266  -0.903  53.102  1.00  0.00     0.005 C 
ENDBRANCH   7   8
ENDBRANCH   6   7
ENDBRANCH   1   6
BRANCH   1  10
HETATM   10  C5  UNL     1      24.653   2.005  53.015  1.00  0.00     0.169 C 
BRANCH  10  11
HETATM   11  C6  UNL     1      25.905   1.244  53.140  1.00  0.00    -0.006 A 
HETATM   12  C7  UNL     1      25.831  -0.081  52.687  1.00  0.00     0.018 A 
HETATM   13  C8  UNL     1      26.923  -0.928  52.729  1.00  0.00    -0.061 A 
HETATM   14  C9  UNL     1      26.822  -2.337  52.240  1.00  0.00     0.048 C 
HETATM   15  C10 UNL     1      28.137  -0.486  53.225  1.00  0.00     0.016 A 
HETATM   16  C11 UNL     1      28.258   0.814  53.684  1.00  0.00    -0.028 A 
HETATM   17  C12 UNL     1      29.516   1.369  54.229  1.00  0.00     0.051 C 
HETATM   18  C13 UNL     1      27.140   1.596  53.614  1.00  0.00     0.079 A 
BRANCH  18  19
HETATM   19  O1  UNL     1      27.236   2.901  54.068  1.00  0.00    -0.360 OA
HETATM   20  H20 UNL     1      27.852   3.524  53.555  1.00  0.00     0.217 HD
ENDBRANCH  18  19
ENDBRANCH  10  11
ENDBRANCH   1  10
BRANCH   4  21
HETATM   21  C15 UNL     1      26.420   4.777  49.491  1.00  0.00     0.089 C 
HETATM   22  C16 UNL     1      26.369   6.068  49.338  1.00  0.00     0.001 C 
BRANCH  22  23
HETATM   23  C17 UNL     1      26.855   6.779  48.103  1.00  0.00     0.113 C 
HETATM   24 BR1  UNL     1      28.761   6.350  48.004  1.00  0.00    -0.092 Br
ENDBRANCH  22  23
ENDBRANCH   4  21
TORSDOF 8
ENDMDL
MODEL 2
REMARK VINA RESULT:      -6.9      2.864      5.551
REMARK  8 active torsions:
REMARK  status: ('A' for Active; 'I' for Inactive)
REMARK    1  A    between atoms: C2_2  and  C3_3 
REMARK    2  A    between atoms: C3_3  and  C4_4 
REMARK    3  A    between atoms: C4_4  and  N1_5 
REMARK    4  A    between atoms: N1_5  and  C5_6 
REMARK       I    between atoms: N1_5  and  C14_16 
REMARK    5  A    between atoms: C5_6  and  C6_7 
REMARK    6  A    between atoms: C13_14  and  O1_15 
REMARK       I    between atoms: C14_16  and  N2_18 
REMARK    7  A    between atoms: N2_18  and  C15_19 
REMARK    8  A    between atoms: C16_20  and  C17_21 
ROOT
HETATM    1  N1  UNL     1      23.786   0.387  53.112  1.00  0.00    -0.330 N 
HETATM    2  C14 UNL     1      25.164   0.055  53.134  1.00  0.00     0.322 C 
HETATM    3  O2  UNL     1      25.243  -1.170  53.468  1.00  0.00    -0.247 OA
HETATM    4  N2  UNL     1      26.340   0.789  52.868  1.00  0.00    -0.319 N 
HETATM    5  H21 UNL     1      26.127   1.767  52.596  1.00  0.00     0.169 HD
ENDROOT
BRANCH   1   6
HETATM    6  C4  UNL     1      22.913  -0.737  53.435  1.00  0.00     0.128 C 
BRANCH   6   7
HETATM    7  C3  UNL     1      21.883  -0.405  54.480  1.00  0.00     0.020 C 
BRANCH   7   8
HETATM    8  C2  UNL     1      20.595  -1.116  54.056  1.00  0.00    -0.003 C 
HETATM    9  C1  UNL     1      19.847  -0.252  53.045  1.00  0.00     0.005 C 
ENDBRANCH   7   8
ENDBRANCH   6   7
ENDBRANCH   1   6
BRANCH   1  10
HETATM   10  C5  UNL     1      23.029   1.624  52.860  1.00  0.00     0.169 C 
BRANCH  10  11
HETATM   11  C6  UNL     1      23.242   2.168  51.510  1.00  0.00    -0.006 A 
HETATM   12  C7  UNL     1      22.333   1.709  50.546  1.00  0.00     0.018 A 
HETATM   13  C8  UNL     1      22.392   2.128  49.229  1.00  0.00    -0.061 A 
HETATM   14  C9  UNL     1      21.411   1.627  48.218  1.00  0.00     0.048 C 
HETATM   15  C10 UNL     1      23.363   3.025  48.821  1.00  0.00     0.016 A 
HETATM   16  C11 UNL     1      24.283   3.506  49.737  1.00  0.00    -0.028 A 
HETATM   17  C12 UNL     1      25.352   4.466  49.387  1.00  0.00     0.051 C 
HETATM   18  C13 UNL     1      24.166   3.049  51.019  1.00  0.00     0.079 A 
BRANCH  18  19
HETATM   19  O1  UNL     1      25.076   3.514  51.954  1.00  0.00    -0.360 OA
HETATM   20  H20 UNL     1      25.046   4.505  52.174  1.00  0.00     0.217 HD
ENDBRANCH  18  19
ENDBRANCH  10  11
ENDBRANCH   1  10
BRANCH   4  21
HETATM   21  C15 UNL     1      27.655   0.273  52.948  1.00  0.00     0.089 C 
HETATM   22  C16 UNL     1      28.652   0.749  53.635  1.00  0.00     0.001 C 
BRANCH  22  23
HETATM   23  C17 UNL     1      30.021   0.123  53.656  1.00  0.00     0.113 C 
HETATM   24 BR1  UNL     1      29.692  -1.791  53.420  1.00  0.00    -0.092 Br
ENDBRANCH  22  23
ENDBRANCH   4  21
TORSDOF 8
ENDMDL
MODEL 3
REMARK VINA RESULT:      -6.8      1.105      1.283
REMARK  8 active torsions:
REMARK  status: ('A' for Active; 'I' for Inactive)
REMARK    1  A    between atoms: C2_2  and  C3_3 
REMARK    2  A    between atoms: C3_3  and  C4_4 
REMARK    3  A    between atoms: C4_4  and  N1_5 
REMARK    4  A    between atoms: N1_5  and  C5_6 
REMARK       I    between atoms: N1_5  and  C14_16 
REMARK    5  A    between atoms: C5_6  and  C6_7 
REMARK    6  A    between atoms: C13_14  and  O1_15 
REMARK       I    between atoms: C14_16  and  N2_18 
REMARK    7  A    between atoms: N2_18  and  C15_19 
REMARK    8  A    between atoms: C16_20  and  C17_21 
ROOT
HETATM    1  N1  UNL     1      23.395   1.782  51.771  1.00  0.00    -0.330 N 
HETATM    2  C14 UNL     1      23.826   2.887  50.995  1.00  0.00     0.322 C 
HETATM    3  O2  UNL     1      23.139   2.876  49.924  1.00  0.00    -0.247 OA
HETATM    4  N2  UNL     1      24.794   3.895  51.199  1.00  0.00    -0.319 N 
HETATM    5  H21 UNL     1      25.267   3.789  52.115  1.00  0.00     0.169 HD
ENDROOT
BRANCH   1   6
HETATM    6  C4  UNL     1      22.319   1.019  51.149  1.00  0.00     0.128 C 
BRANCH   6   7
HETATM    7  C3  UNL     1      21.392   0.382  52.147  1.00  0.00     0.020 C 
BRANCH   7   8
HETATM    8  C2  UNL     1      20.023   1.038  51.943  1.00  0.00    -0.003 C 
HETATM    9  C1  UNL     1      18.933  -0.027  52.007  1.00  0.00     0.005 C 
ENDBRANCH   7   8
ENDBRANCH   6   7
ENDBRANCH   1   6
BRANCH   1  10
HETATM   10  C5  UNL     1      23.807   1.210  53.064  1.00  0.00     0.169 C 
BRANCH  10  11
HETATM   11  C6  UNL     1      25.238   0.877  53.120  1.00  0.00    -0.006 A 
HETATM   12  C7  UNL     1      25.539  -0.456  52.806  1.00  0.00     0.018 A 
HETATM   13  C8  UNL     1      26.839  -0.930  52.807  1.00  0.00    -0.061 A 
HETATM   14  C9  UNL     1      27.137  -2.355  52.468  1.00  0.00     0.048 C 
HETATM   15  C10 UNL     1      27.892  -0.090  53.122  1.00  0.00     0.016 A 
HETATM   16  C11 UNL     1      27.643   1.235  53.439  1.00  0.00    -0.028 A 
HETATM   17  C12 UNL     1      28.708   2.200  53.786  1.00  0.00     0.051 C 
HETATM   18  C13 UNL     1      26.338   1.634  53.419  1.00  0.00     0.079 A 
BRANCH  18  19
HETATM   19  O1  UNL     1      26.063   2.955  53.734  1.00  0.00    -0.360 OA
HETATM   20  H20 UNL     1      26.742   3.650  53.442  1.00  0.00     0.217 HD
ENDBRANCH  18  19
ENDBRANCH  10  11
ENDBRANCH   1  10
BRANCH   4  21
HETATM   21  C15 UNL     1      25.089   4.934  50.286  1.00  0.00     0.089 C 
HETATM   22  C16 UNL     1      26.127   5.033  49.507  1.00  0.00     0.001 C 
BRANCH  22  23
HETATM   23  C17 UNL     1      26.351   6.184  48.564  1.00  0.00     0.113 C 
HETATM   24 BR1  UNL     1      28.278   6.178  48.227  1.00  0.00    -0.092 Br
ENDBRANCH  22  23
ENDBRANCH   4  21
TORSDOF 8
ENDMDL
MODEL 4
REMARK VINA RESULT:      -6.6      1.331      4.366
REMARK  8 active torsions:
REMARK  status: ('A' for Active; 'I' for Inactive)
REMARK    1  A    between atoms: C2_2  and  C3_3 
REMARK    2  A    between atoms: C3_3  and  C4_4 
REMARK    3  A    between atoms: C4_4  and  N1_5 
REMARK    4  A    between atoms: N1_5  and  C5_6 
REMARK       I    between atoms: N1_5  and  C14_16 
REMARK    5  A    between atoms: C5_6  and  C6_7 
REMARK    6  A    between atoms: C13_14  and  O1_15 
REMARK       I    between atoms: C14_16  and  N2_18 
REMARK    7  A    between atoms: N2_18  and  C15_19 
REMARK    8  A    between atoms: C16_20  and  C17_21 
ROOT
HETATM    1  N1  UNL     1      25.784   2.387  51.846  1.00  0.00    -0.330 N 
HETATM    2  C14 UNL     1      26.108   3.316  50.825  1.00  0.00     0.322 C 
HETATM    3  O2  UNL     1      27.141   2.867  50.233  1.00  0.00    -0.247 OA
HETATM    4  N2  UNL     1      25.527   4.531  50.402  1.00  0.00    -0.319 N 
HETATM    5  H21 UNL     1      24.688   4.768  50.963  1.00  0.00     0.169 HD
ENDROOT
BRANCH   1   6
HETATM    6  C4  UNL     1      26.675   1.233  51.886  1.00  0.00     0.128 C 
BRANCH   6   7
HETATM    7  C3  UNL     1      27.214   0.948  53.261  1.00  0.00     0.020 C 
BRANCH   7   8
HETATM    8  C2  UNL     1      27.609  -0.531  53.270  1.00  0.00    -0.003 C 
HETATM    9  C1  UNL     1      26.512  -1.355  52.602  1.00  0.00     0.005 C 
ENDBRANCH   7   8
ENDBRANCH   6   7
ENDBRANCH   1   6
BRANCH   1  10
HETATM   10  C5  UNL     1      24.757   2.333  52.900  1.00  0.00     0.169 C 
BRANCH  10  11
HETATM   11  C6  UNL     1      23.599   1.502  52.538  1.00  0.00    -0.006 A 
HETATM   12  C7  UNL     1      23.318   0.467  53.441  1.00  0.00     0.018 A 
HETATM   13  C8  UNL     1      22.258  -0.401  53.249  1.00  0.00    -0.061 A 
HETATM   14  C9  UNL     1      21.976  -1.497  54.226  1.00  0.00     0.048 C 
HETATM   15  C10 UNL     1      21.434  -0.269  52.146  1.00  0.00     0.016 A 
HETATM   16  C11 UNL     1      21.672   0.738  51.226  1.00  0.00    -0.028 A 
HETATM   17  C12 UNL     1      20.842   0.951  50.022  1.00  0.00     0.051 C 
HETATM   18  C13 UNL     1      22.735   1.557  51.478  1.00  0.00     0.079 A 
BRANCH  18  19
HETATM   19  O1  UNL     1      22.996   2.572  50.572  1.00  0.00    -0.360 OA
HETATM   20  H20 UNL     1      23.232   2.295  49.624  1.00  0.00     0.217 HD
ENDBRANCH  18  19
ENDBRANCH  10  11
ENDBRANCH   1  10
BRANCH   4  21
HETATM   21  C15 UNL     1      26.007   5.335  49.343  1.00  0.00     0.089 C 
HETATM   22  C16 UNL     1      26.105   6.632  49.315  1.00  0.00     0.001 C 
BRANCH  22  23
HETATM   23  C17 UNL     1      26.634   7.400  48.133  1.00  0.00     0.113 C 
HETATM   24 BR1  UNL     1      28.466   6.756  47.904  1.00  0.00    -0.092 Br
ENDBRANCH  22  23
ENDBRANCH   4  21
TORSDOF 8
ENDMDL
MODEL 5
REMARK VINA RESULT:      -6.5      3.741      6.648
REMARK  8 active torsions:
REMARK  status: ('A' for Active; 'I' for Inactive)
REMARK    1  A    between atoms: C2_2  and  C3_3 
REMARK    2  A    between atoms: C3_3  and  C4_4 
REMARK    3  A    between atoms: C4_4  and  N1_5 
REMARK    4  A    between atoms: N1_5  and  C5_6 
REMARK       I    between atoms: N1_5  and  C14_16 
REMARK    5  A    between atoms: C5_6  and  C6_7 
REMARK    6  A    between atoms: C13_14  and  O1_15 
REMARK       I    between atoms: C14_16  and  N2_18 
REMARK    7  A    between atoms: N2_18  and  C15_19 
REMARK    8  A    between atoms: C16_20  and  C17_21 
ROOT
HETATM    1  N1  UNL     1      24.107   0.591  53.116  1.00  0.00    -0.330 N 
HETATM    2  C14 UNL     1      22.762   0.142  53.115  1.00  0.00     0.322 C 
HETATM    3  O2  UNL     1      22.798  -1.130  53.101  1.00  0.00    -0.247 OA
HETATM    4  N2  UNL     1      21.518   0.811  53.130  1.00  0.00    -0.319 N 
HETATM    5  H21 UNL     1      21.639   1.840  53.153  1.00  0.00     0.169 HD
ENDROOT
BRANCH   1   6
HETATM    6  C4  UNL     1      25.082  -0.495  53.131  1.00  0.00     0.128 C 
BRANCH   6   7
HETATM    7  C3  UNL     1      26.388  -0.107  53.767  1.00  0.00     0.020 C 
BRANCH   7   8
HETATM    8  C2  UNL     1      27.487  -0.553  52.798  1.00  0.00    -0.003 C 
HETATM    9  C1  UNL     1      28.783  -0.783  53.569  1.00  0.00     0.005 C 
ENDBRANCH   7   8
ENDBRANCH   6   7
ENDBRANCH   1   6
BRANCH   1  10
HETATM   10  C5  UNL     1      24.750   1.915  53.080  1.00  0.00     0.169 C 
BRANCH  10  11
HETATM   11  C6  UNL     1      24.833   2.481  51.725  1.00  0.00    -0.006 A 
HETATM   12  C7  UNL     1      23.620   2.493  51.022  1.00  0.00     0.018 A 
HETATM   13  C8  UNL     1      23.526   2.997  49.737  1.00  0.00    -0.061 A 
HETATM   14  C9  UNL     1      22.223   3.000  49.006  1.00  0.00     0.048 C 
HETATM   15  C10 UNL     1      24.642   3.513  49.102  1.00  0.00     0.016 A 
HETATM   16  C11 UNL     1      25.862   3.523  49.757  1.00  0.00    -0.028 A 
HETATM   17  C12 UNL     1      27.103   4.056  49.155  1.00  0.00     0.051 C 
HETATM   18  C13 UNL     1      25.882   3.009  51.022  1.00  0.00     0.079 A 
BRANCH  18  19
HETATM   19  O1  UNL     1      27.091   3.007  51.699  1.00  0.00    -0.360 OA
HETATM   20  H20 UNL     1      27.704   2.212  51.544  1.00  0.00     0.217 HD
ENDBRANCH  18  19
ENDBRANCH  10  11
ENDBRANCH   1  10
BRANCH   4  21
HETATM   21  C15 UNL     1      20.255   0.175  53.123  1.00  0.00     0.089 C 
HETATM   22  C16 UNL     1      19.404   0.115  52.140  1.00  0.00     0.001 C 
BRANCH  22  23
HETATM   23  C17 UNL     1      18.078  -0.590  52.232  1.00  0.00     0.113 C 
HETATM   24 BR1  UNL     1      18.336  -1.951  53.612  1.00  0.00    -0.092 Br
ENDBRANCH  22  23
ENDBRANCH   4  21
TORSDOF 8
ENDMDL
MODEL 6
REMARK VINA RESULT:      -6.4      1.736      4.630
REMARK  8 active torsions:
REMARK  status: ('A' for Active; 'I' for Inactive)
REMARK    1  A    between atoms: C2_2  and  C3_3 
REMARK    2  A    between atoms: C3_3  and  C4_4 
REMARK    3  A    between atoms: C4_4  and  N1_5 
REMARK    4  A    between atoms: N1_5  and  C5_6 
REMARK       I    between atoms: N1_5  and  C14_16 
REMARK    5  A    between atoms: C5_6  and  C6_7 
REMARK    6  A    between atoms: C13_14  and  O1_15 
REMARK       I    between atoms: C14_16  and  N2_18 
REMARK    7  A    between atoms: N2_18  and  C15_19 
REMARK    8  A    between atoms: C16_20  and  C17_21 
ROOT
HETATM    1  N1  UNL     1      25.856   1.737  52.098  1.00  0.00    -0.330 N 
HETATM    2  C14 UNL     1      25.998   2.814  51.187  1.00  0.00     0.322 C 
HETATM    3  O2  UNL     1      26.879   2.466  50.338  1.00  0.00    -0.247 OA
HETATM    4  N2  UNL     1      25.380   4.079  51.081  1.00  0.00    -0.319 N 
HETATM    5  H21 UNL     1      24.676   4.223  51.828  1.00  0.00     0.169 HD
ENDROOT
BRANCH   1   6
HETATM    6  C4  UNL     1      26.705   0.593  51.780  1.00  0.00     0.128 C 
BRANCH   6   7
HETATM    7  C3  UNL     1      27.189  -0.141  53.000  1.00  0.00     0.020 C 
BRANCH   7   8
HETATM    8  C2  UNL     1      28.576   0.425  53.320  1.00  0.00    -0.003 C 
HETATM    9  C1  UNL     1      29.488  -0.701  53.795  1.00  0.00     0.005 C 
ENDBRANCH   7   8
ENDBRANCH   6   7
ENDBRANCH   1   6
BRANCH   1  10
HETATM   10  C5  UNL     1      25.059   1.516  53.315  1.00  0.00     0.169 C 
BRANCH  10  11
HETATM   11  C6  UNL     1      23.794   0.812  53.058  1.00  0.00    -0.006 A 
HETATM   12  C7  UNL     1      23.073   1.289  51.954  1.00  0.00     0.018 A 
HETATM   13  C8  UNL     1      21.866   0.731  51.573  1.00  0.00    -0.061 A 
HETATM   14  C9  UNL     1      21.116   1.255  50.392  1.00  0.00     0.048 C 
HETATM   15  C10 UNL     1      21.328  -0.329  52.282  1.00  0.00     0.016 A 
HETATM   16  C11 UNL     1      22.003  -0.834  53.380  1.00  0.00    -0.028 A 
HETATM   17  C12 UNL     1      21.503  -1.964  54.191  1.00  0.00     0.051 C 
HETATM   18  C13 UNL     1      23.189  -0.235  53.699  1.00  0.00     0.079 A 
BRANCH  18  19
HETATM   19  O1  UNL     1      23.883  -0.722  54.795  1.00  0.00    -0.360 OA
HETATM   20  H20 UNL     1      24.896  -0.679  54.755  1.00  0.00     0.217 HD
ENDBRANCH  18  19
ENDBRANCH  10  11
ENDBRANCH   1  10
BRANCH   4  21
HETATM   21  C15 UNL     1      25.663   5.040  50.083  1.00  0.00     0.089 C 
HETATM   22  C16 UNL     1      24.818   5.631  49.289  1.00  0.00     0.001 C 
BRANCH  22  23
HETATM   23  C17 UNL     1      25.220   6.646  48.254  1.00  0.00     0.113 C 
HETATM   24 BR1  UNL     1      27.175   6.649  48.298  1.00  0.00    -0.092 Br
ENDBRANCH  22  23
ENDBRANCH   4  21
TORSDOF 8
ENDMDL
MODEL 7
REMARK VINA RESULT:      -6.2      3.090      4.253
REMARK  8 active torsions:
REMARK  status: ('A' for Active; 'I' for Inactive)
REMARK    1  A    between atoms: C2_2  and  C3_3 
REMARK    2  A    between atoms: C3_3  and  C4_4 
REMARK    3  A    between atoms: C4_4  and  N1_5 
REMARK    4  A    between atoms: N1_5  and  C5_6 
REMARK       I    between atoms: N1_5  and  C14_16 
REMARK    5  A    between atoms: C5_6  and  C6_7 
REMARK    6  A    between atoms: C13_14  and  O1_15 
REMARK       I    between atoms: C14_16  and  N2_18 
REMARK    7  A    between atoms: N2_18  and  C15_19 
REMARK    8  A    between atoms: C16_20  and  C17_21 
ROOT
HETATM    1  N1  UNL     1      21.604   1.274  51.783  1.00  0.00    -0.330 N 
HETATM    2  C14 UNL     1      21.257   1.579  50.443  1.00  0.00     0.322 C 
HETATM    3  O2  UNL     1      20.362   0.745  50.094  1.00  0.00    -0.247 OA
HETATM    4  N2  UNL     1      21.698   2.561  49.529  1.00  0.00    -0.319 N 
HETATM    5  H21 UNL     1      22.417   3.178  49.949  1.00  0.00     0.169 HD
ENDROOT
BRANCH   1   6
HETATM    6  C4  UNL     1      20.839   0.164  52.342  1.00  0.00     0.128 C 
BRANCH   6   7
HETATM    7  C3  UNL     1      20.792   0.176  53.846  1.00  0.00     0.020 C 
BRANCH   7   8
HETATM    8  C2  UNL     1      21.124  -1.249  54.297  1.00  0.00    -0.003 C 
HETATM    9  C1  UNL     1      22.479  -1.257  54.999  1.00  0.00     0.005 C 
ENDBRANCH   7   8
ENDBRANCH   6   7
ENDBRANCH   1   6
BRANCH   1  10
HETATM   10  C5  UNL     1      22.585   1.811  52.740  1.00  0.00     0.169 C 
BRANCH  10  11
HETATM   11  C6  UNL     1      23.971   1.731  52.255  1.00  0.00    -0.006 A 
HETATM   12  C7  UNL     1      24.672   0.591  52.675  1.00  0.00     0.018 A 
HETATM   13  C8  UNL     1      25.983   0.362  52.301  1.00  0.00    -0.061 A 
HETATM   14  C9  UNL     1      26.711  -0.861  52.759  1.00  0.00     0.048 C 
HETATM   15  C10 UNL     1      26.650   1.264  51.490  1.00  0.00     0.016 A 
HETATM   16  C11 UNL     1      25.999   2.404  51.050  1.00  0.00    -0.028 A 
HETATM   17  C12 UNL     1      26.635   3.418  50.182  1.00  0.00     0.051 C 
HETATM   18  C13 UNL     1      24.706   2.567  51.459  1.00  0.00     0.079 A 
BRANCH  18  19
HETATM   19  O1  UNL     1      24.033   3.700  51.033  1.00  0.00    -0.360 OA
HETATM   20  H20 UNL     1      24.590   4.432  50.601  1.00  0.00     0.217 HD
ENDBRANCH  18  19
ENDBRANCH  10  11
ENDBRANCH   1  10
BRANCH   4  21
HETATM   21  C15 UNL     1      21.225   2.708  48.204  1.00  0.00     0.089 C 
HETATM   22  C16 UNL     1      20.263   3.478  47.788  1.00  0.00     0.001 C 
BRANCH  22  23
HETATM   23  C17 UNL     1      19.832   3.565  46.348  1.00  0.00     0.113 C 
HETATM   24 BR1  UNL     1      21.481   3.928  45.360  1.00  0.00    -0.092 Br
ENDBRANCH  22  23
ENDBRANCH   4  21
TORSDOF 8
ENDMDL
MODEL 8
REMARK VINA RESULT:      -6.2      3.644      5.647
REMARK  8 active torsions:
REMARK  status: ('A' for Active; 'I' for Inactive)
REMARK    1  A    between atoms: C2_2  and  C3_3 
REMARK    2  A    between atoms: C3_3  and  C4_4 
REMARK    3  A    between atoms: C4_4  and  N1_5 
REMARK    4  A    between atoms: N1_5  and  C5_6 
REMARK       I    between atoms: N1_5  and  C14_16 
REMARK    5  A    between atoms: C5_6  and  C6_7 
REMARK    6  A    between atoms: C13_14  and  O1_15 
REMARK       I    between atoms: C14_16  and  N2_18 
REMARK    7  A    between atoms: N2_18  and  C15_19 
REMARK    8  A    between atoms: C16_20  and  C17_21 
ROOT
HETATM    1  N1  UNL     1      23.160   3.534  51.255  1.00  0.00    -0.330 N 
HETATM    2  C14 UNL     1      21.773   3.644  50.984  1.00  0.00     0.322 C 
HETATM    3  O2  UNL     1      21.647   3.684  49.718  1.00  0.00    -0.247 OA
HETATM    4  N2  UNL     1      20.628   3.706  51.807  1.00  0.00    -0.319 N 
HETATM    5  H21 UNL     1      20.877   3.651  52.811  1.00  0.00     0.169 HD
ENDROOT
BRANCH   1   6
HETATM    6  C4  UNL     1      23.984   3.471  50.052  1.00  0.00     0.128 C 
BRANCH   6   7
HETATM    7  C3  UNL     1      25.144   4.429  50.079  1.00  0.00     0.020 C 
BRANCH   7   8
HETATM    8  C2  UNL     1      26.342   3.668  49.505  1.00  0.00    -0.003 C 
HETATM    9  C1  UNL     1      27.317   4.657  48.871  1.00  0.00     0.005 C 
ENDBRANCH   7   8
ENDBRANCH   6   7
ENDBRANCH   1   6
BRANCH   1  10
HETATM   10  C5  UNL     1      23.968   3.492  52.485  1.00  0.00     0.169 C 
BRANCH  10  11
HETATM   11  C6  UNL     1      24.401   2.135  52.847  1.00  0.00    -0.006 A 
HETATM   12  C7  UNL     1      23.355   1.218  53.031  1.00  0.00     0.018 A 
HETATM   13  C8  UNL     1      23.593  -0.102  53.368  1.00  0.00    -0.061 A 
HETATM   14  C9  UNL     1      22.463  -1.062  53.558  1.00  0.00     0.048 C 
HETATM   15  C10 UNL     1      24.887  -0.562  53.536  1.00  0.00     0.016 A 
HETATM   16  C11 UNL     1      25.952   0.306  53.365  1.00  0.00    -0.028 A 
HETATM   17  C12 UNL     1      27.364  -0.101  53.523  1.00  0.00     0.051 C 
HETATM   18  C13 UNL     1      25.644   1.595  53.033  1.00  0.00     0.079 A 
BRANCH  18  19
HETATM   19  O1  UNL     1      26.693   2.483  52.858  1.00  0.00    -0.360 OA
HETATM   20  H20 UNL     1      26.503   3.318  52.312  1.00  0.00     0.217 HD
ENDBRANCH  18  19
ENDBRANCH  10  11
ENDBRANCH   1  10
BRANCH   4  21
HETATM   21  C15 UNL     1      19.298   3.821  51.340  1.00  0.00     0.089 C 
HETATM   22  C16 UNL     1      18.426   2.867  51.191  1.00  0.00     0.001 C 
BRANCH  22  23
HETATM   23  C17 UNL     1      17.026   3.092  50.685  1.00  0.00     0.113 C 
HETATM   24 BR1  UNL     1      16.163   4.160  52.078  1.00  0.00    -0.092 Br
ENDBRANCH  22  23
ENDBRANCH   4  21
TORSDOF 8
ENDMDL
MODEL 9
REMARK VINA RESULT:      -6.1      5.525      9.413
REMARK  8 active torsions:
REMARK  status: ('A' for Active; 'I' for Inactive)
REMARK    1  A    between atoms: C2_2  and  C3_3 
REMARK    2  A    between atoms: C3_3  and  C4_4 
REMARK    3  A    between atoms: C4_4  and  N1_5 
REMARK    4  A    between atoms: N1_5  and  C5_6 
REMARK       I    between atoms: N1_5  and  C14_16 
REMARK    5  A    between atoms: C5_6  and  C6_7 
REMARK    6  A    between atoms: C13_14  and  O1_15 
REMARK       I    between atoms: C14_16  and  N2_18 
REMARK    7  A    between atoms: N2_18  and  C15_19 
REMARK    8  A    between atoms: C16_20  and  C17_21 
ROOT
HETATM    1  N1  UNL     1      30.357   7.562  48.036  1.00  0.00    -0.330 N 
HETATM    2  C14 UNL     1      29.098   6.935  48.213  1.00  0.00     0.322 C 
HETATM    3  O2  UNL     1      28.211   7.797  47.913  1.00  0.00    -0.247 OA
HETATM    4  N2  UNL     1      28.710   5.641  48.623  1.00  0.00    -0.319 N 
HETATM    5  H21 UNL     1      29.532   5.042  48.823  1.00  0.00     0.169 HD
ENDROOT
BRANCH   1   6
HETATM    6  C4  UNL     1      30.259   8.936  47.554  1.00  0.00     0.128 C 
BRANCH   6   7
HETATM    7  C3  UNL     1      31.288   9.851  48.160  1.00  0.00     0.020 C 
BRANCH   7   8
HETATM    8  C2  UNL     1      30.589  10.579  49.312  1.00  0.00    -0.003 C 
HETATM    9  C1  UNL     1      30.677  12.086  49.089  1.00  0.00     0.005 C 
ENDBRANCH   7   8
ENDBRANCH   6   7
ENDBRANCH   1   6
BRANCH   1  10
HETATM   10  C5  UNL     1      31.753   7.147  48.253  1.00  0.00     0.169 C 
BRANCH  10  11
HETATM   11  C6  UNL     1      32.157   6.014  47.408  1.00  0.00    -0.006 A 
HETATM   12  C7  UNL     1      32.379   6.340  46.062  1.00  0.00     0.018 A 
HETATM   13  C8  UNL     1      32.771   5.390  45.136  1.00  0.00    -0.061 A 
HETATM   14  C9  UNL     1      33.003   5.760  43.706  1.00  0.00     0.048 C 
HETATM   15  C10 UNL     1      32.958   4.073  45.517  1.00  0.00     0.016 A 
HETATM   16  C11 UNL     1      32.751   3.704  46.835  1.00  0.00    -0.028 A 
HETATM   17  C12 UNL     1      32.929   2.321  47.329  1.00  0.00     0.051 C 
HETATM   18  C13 UNL     1      32.364   4.692  47.695  1.00  0.00     0.079 A 
BRANCH  18  19
HETATM   19  O1  UNL     1      32.149   4.347  49.019  1.00  0.00    -0.360 OA
HETATM   20  H20 UNL     1      32.864   3.786  49.472  1.00  0.00     0.217 HD
ENDBRANCH  18  19
ENDBRANCH  10  11
ENDBRANCH   1  10
BRANCH   4  21
HETATM   21  C15 UNL     1      27.374   5.194  48.744  1.00  0.00     0.089 C 
HETATM   22  C16 UNL     1      26.951   4.111  49.329  1.00  0.00     0.001 C 
BRANCH  22  23
HETATM   23  C17 UNL     1      25.499   3.721  49.406  1.00  0.00     0.113 C 
HETATM   24 BR1  UNL     1      24.523   5.371  49.016  1.00  0.00    -0.092 Br
ENDBRANCH  22  23
ENDBRANCH   4  21
TORSDOF 8
ENDMDL
