MODEL 1
REMARK VINA RESULT:      -7.8      0.000      0.000
REMARK  5 active torsions:
REMARK  status: ('A' for Active; 'I' for Inactive)
REMARK    1  A    between atoms: O1_2  and  C2_3 
REMARK    2  A    between atoms: C5_7  and  C6_8 
REMARK    3  A    between atoms: C6_8  and  N2_9 
REMARK    4  A    between atoms: N2_9  and  C7_10 
REMARK    5  A    between atoms: C10_13  and  O2_14 
ROOT
HETATM    1  C2  UNL     1      20.931  -0.432  53.309  1.00  0.00     0.082 C 
HETATM    2  C3  UNL     1      21.890   0.423  52.984  1.00  0.00     0.025 A 
HETATM    3  C4  UNL     1      21.866   1.545  52.051  1.00  0.00     0.132 A 
HETATM    4  N1  UNL     1      23.027   2.114  52.042  1.00  0.00    -0.262 NA
HETATM    5  C5  UNL     1      23.909   1.455  52.933  1.00  0.00     0.063 A 
HETATM    6  C13 UNL     1      23.256   0.453  53.500  1.00  0.00     0.006 A 
HETATM    7  C14 UNL     1      23.832  -0.472  54.489  1.00  0.00     0.038 C 
HETATM    8  C15 UNL     1      23.219  -1.383  55.263  1.00  0.00     0.136 C 
HETATM    9  O3  UNL     1      21.850  -1.590  55.228  1.00  0.00    -0.357 OA
HETATM   10  C16 UNL     1      20.884  -1.575  54.231  1.00  0.00     0.239 C 
ENDROOT
BRANCH   5  11
HETATM   11  C6  UNL     1      25.299   1.859  53.150  1.00  0.00     0.179 C 
BRANCH  11  12
HETATM   12  N2  UNL     1      26.192   1.241  52.159  1.00  0.00    -0.384 N 
HETATM   13  H7  UNL     1      26.304   1.630  51.200  1.00  0.00     0.160 HD
BRANCH  12  14
HETATM   14  C7  UNL     1      26.935   0.066  52.505  1.00  0.00     0.028 A 
HETATM   15  C8  UNL     1      28.144   0.091  53.176  1.00  0.00     0.032 A 
HETATM   16  C9  UNL     1      28.826  -1.049  53.492  1.00  0.00     0.039 A 
HETATM   17  C10 UNL     1      28.302  -2.270  53.134  1.00  0.00     0.065 A 
HETATM   18  C11 UNL     1      27.092  -2.353  52.459  1.00  0.00     0.039 A 
HETATM   19  C12 UNL     1      26.451  -1.185  52.170  1.00  0.00     0.032 A 
BRANCH  17  20
HETATM   20  O2  UNL     1      28.940  -3.463  53.422  1.00  0.00    -0.361 OA
HETATM   21  H10 UNL     1      29.913  -3.573  53.107  1.00  0.00     0.217 HD
ENDBRANCH  17  20
ENDBRANCH  12  14
ENDBRANCH  11  12
ENDBRANCH   5  11
BRANCH   1  22
HETATM   22  O1  UNL     1      19.741  -0.186  52.636  1.00  0.00    -0.357 OA
HETATM   23  C1  UNL     1      18.534  -0.843  52.984  1.00  0.00     0.209 C 
ENDBRANCH   1  22
TORSDOF 5
ENDMDL
MODEL 2
REMARK VINA RESULT:      -7.3      1.687      2.412
REMARK  5 active torsions:
REMARK  status: ('A' for Active; 'I' for Inactive)
REMARK    1  A    between atoms: O1_2  and  C2_3 
REMARK    2  A    between atoms: C5_7  and  C6_8 
REMARK    3  A    between atoms: C6_8  and  N2_9 
REMARK    4  A    between atoms: N2_9  and  C7_10 
REMARK    5  A    between atoms: C10_13  and  O2_14 
ROOT
HETATM    1  C2  UNL     1      22.038   1.220  50.575  1.00  0.00     0.082 C 
HETATM    2  C3  UNL     1      23.173   1.716  51.047  1.00  0.00     0.025 A 
HETATM    3  C4  UNL     1      24.092   2.680  50.450  1.00  0.00     0.132 A 
HETATM    4  N1  UNL     1      25.079   2.882  51.261  1.00  0.00    -0.262 NA
HETATM    5  C5  UNL     1      24.924   2.105  52.435  1.00  0.00     0.063 A 
HETATM    6  C13 UNL     1      23.803   1.409  52.328  1.00  0.00     0.006 A 
HETATM    7  C14 UNL     1      23.292   0.480  53.348  1.00  0.00     0.038 C 
HETATM    8  C15 UNL     1      22.092  -0.117  53.433  1.00  0.00     0.136 C 
HETATM    9  O3  UNL     1      21.094   0.079  52.492  1.00  0.00    -0.357 OA
HETATM   10  C16 UNL     1      21.070   0.255  51.115  1.00  0.00     0.239 C 
ENDROOT
BRANCH   5  11
HETATM   11  C6  UNL     1      25.876   2.112  53.547  1.00  0.00     0.179 C 
BRANCH  11  12
HETATM   12  N2  UNL     1      27.229   1.769  53.088  1.00  0.00    -0.384 N 
HETATM   13  H7  UNL     1      27.892   2.492  52.739  1.00  0.00     0.160 HD
BRANCH  12  14
HETATM   14  C7  UNL     1      27.665   0.405  53.113  1.00  0.00     0.028 A 
HETATM   15  C8  UNL     1      28.925   0.007  53.522  1.00  0.00     0.032 A 
HETATM   16  C9  UNL     1      29.309  -1.304  53.534  1.00  0.00     0.039 A 
HETATM   17  C10 UNL     1      28.417  -2.270  53.127  1.00  0.00     0.065 A 
HETATM   18  C11 UNL     1      27.140  -1.928  52.707  1.00  0.00     0.039 A 
HETATM   19  C12 UNL     1      26.809  -0.605  52.716  1.00  0.00     0.032 A 
BRANCH  17  20
HETATM   20  O2  UNL     1      28.739  -3.615  53.115  1.00  0.00    -0.361 OA
HETATM   21  H10 UNL     1      28.086  -4.269  53.568  1.00  0.00     0.217 HD
ENDBRANCH  17  20
ENDBRANCH  12  14
ENDBRANCH  11  12
ENDBRANCH   5  11
BRANCH   1  22
HETATM   22  O1  UNL     1      21.715   1.719  49.320  1.00  0.00    -0.357 OA
HETATM   23  C1  UNL     1      20.386   2.076  48.976  1.00  0.00     0.209 C 
ENDBRANCH   1  22
TORSDOF 5
ENDMDL
MODEL 3
REMARK VINA RESULT:      -7.2      1.561      2.058
REMARK  5 active torsions:
REMARK  status: ('A' for Active; 'I' for Inactive)
REMARK    1  A    between atoms: O1_2  and  C2_3 
REMARK    2  A    between atoms: C5_7  and  C6_8 
REMARK    3  A    between atoms: C6_8  and  N2_9 
REMARK    4  A    between atoms: N2_9  and  C7_10 
REMARK    5  A    between atoms: C10_13  and  O2_14 
ROOT
HETATM    1  C2  UNL     1      20.868   2.207  52.646  1.00  0.00     0.082 C 
HETATM    2  C3  UNL     1      22.095   2.519  52.255  1.00  0.00     0.025 A 
HETATM    3  C4  UNL     1      22.644   3.805  51.834  1.00  0.00     0.132 A 
HETATM    4  N1  UNL     1      23.893   3.655  51.535  1.00  0.00    -0.262 NA
HETATM    5  C5  UNL     1      24.289   2.308  51.719  1.00  0.00     0.063 A 
HETATM    6  C13 UNL     1      23.241   1.620  52.145  1.00  0.00     0.006 A 
HETATM    7  C14 UNL     1      23.250   0.181  52.451  1.00  0.00     0.038 C 
HETATM    8  C15 UNL     1      22.317  -0.565  53.065  1.00  0.00     0.136 C 
HETATM    9  O3  UNL     1      21.125  -0.035  53.529  1.00  0.00    -0.357 OA
HETATM   10  C16 UNL     1      20.251   0.945  53.080  1.00  0.00     0.239 C 
ENDROOT
BRANCH   5  11
HETATM   11  C6  UNL     1      25.644   1.816  51.466  1.00  0.00     0.179 C 
BRANCH  11  12
HETATM   12  N2  UNL     1      26.355   1.549  52.725  1.00  0.00    -0.384 N 
HETATM   13  H7  UNL     1      26.373   2.239  53.504  1.00  0.00     0.160 HD
BRANCH  12  14
HETATM   14  C7  UNL     1      27.049   0.309  52.900  1.00  0.00     0.028 A 
HETATM   15  C8  UNL     1      28.305   0.203  53.471  1.00  0.00     0.032 A 
HETATM   16  C9  UNL     1      28.938  -0.996  53.624  1.00  0.00     0.039 A 
HETATM   17  C10 UNL     1      28.315  -2.148  53.199  1.00  0.00     0.065 A 
HETATM   18  C11 UNL     1      27.055  -2.100  52.620  1.00  0.00     0.039 A 
HETATM   19  C12 UNL     1      26.466  -0.877  52.492  1.00  0.00     0.032 A 
BRANCH  17  20
HETATM   20  O2  UNL     1      28.899  -3.394  53.324  1.00  0.00    -0.361 OA
HETATM   21  H10 UNL     1      28.501  -4.043  54.017  1.00  0.00     0.217 HD
ENDBRANCH  17  20
ENDBRANCH  12  14
ENDBRANCH  11  12
ENDBRANCH   5  11
BRANCH   1  22
HETATM   22  O1  UNL     1      20.008   3.297  52.640  1.00  0.00    -0.357 OA
HETATM   23  C1  UNL     1      19.005   3.453  51.650  1.00  0.00     0.209 C 
ENDBRANCH   1  22
TORSDOF 5
ENDMDL
MODEL 4
REMARK VINA RESULT:      -7.1      3.765      6.640
REMARK  5 active torsions:
REMARK  status: ('A' for Active; 'I' for Inactive)
REMARK    1  A    between atoms: O1_2  and  C2_3 
REMARK    2  A    between atoms: C5_7  and  C6_8 
REMARK    3  A    between atoms: C6_8  and  N2_9 
REMARK    4  A    between atoms: N2_9  and  C7_10 
REMARK    5  A    between atoms: C10_13  and  O2_14 
ROOT
HETATM    1  C2  UNL     1      27.895  -0.647  53.433  1.00  0.00     0.082 C 
HETATM    2  C3  UNL     1      26.729  -0.041  53.259  1.00  0.00     0.025 A 
HETATM    3  C4  UNL     1      25.397  -0.610  53.080  1.00  0.00     0.132 A 
HETATM    4  N1  UNL     1      24.541   0.350  52.945  1.00  0.00    -0.262 NA
HETATM    5  C5  UNL     1      25.190   1.607  53.016  1.00  0.00     0.063 A 
HETATM    6  C13 UNL     1      26.484   1.397  53.203  1.00  0.00     0.006 A 
HETATM    7  C14 UNL     1      27.496   2.458  53.329  1.00  0.00     0.038 C 
HETATM    8  C15 UNL     1      28.781   2.369  53.710  1.00  0.00     0.136 C 
HETATM    9  O3  UNL     1      29.372   1.167  54.062  1.00  0.00    -0.357 OA
HETATM   10  C16 UNL     1      29.263  -0.144  53.618  1.00  0.00     0.239 C 
ENDROOT
BRANCH   5  11
HETATM   11  C6  UNL     1      24.495   2.890  52.899  1.00  0.00     0.179 C 
BRANCH  11  12
HETATM   12  N2  UNL     1      24.105   3.155  51.506  1.00  0.00    -0.384 N 
HETATM   13  H7  UNL     1      23.217   2.790  51.104  1.00  0.00     0.160 HD
BRANCH  12  14
HETATM   14  C7  UNL     1      24.961   3.936  50.664  1.00  0.00     0.028 A 
HETATM   15  C8  UNL     1      24.777   5.284  50.418  1.00  0.00     0.032 A 
HETATM   16  C9  UNL     1      25.613   5.999  49.610  1.00  0.00     0.039 A 
HETATM   17  C10 UNL     1      26.680   5.365  49.013  1.00  0.00     0.065 A 
HETATM   18  C11 UNL     1      26.912   4.014  49.226  1.00  0.00     0.039 A 
HETATM   19  C12 UNL     1      26.047   3.348  50.042  1.00  0.00     0.032 A 
BRANCH  17  20
HETATM   20  O2  UNL     1      27.565   6.029  48.184  1.00  0.00    -0.361 OA
HETATM   21  H10 UNL     1      28.568   5.964  48.404  1.00  0.00     0.217 HD
ENDBRANCH  17  20
ENDBRANCH  12  14
ENDBRANCH  11  12
ENDBRANCH   5  11
BRANCH   1  22
HETATM   22  O1  UNL     1      27.785  -2.032  53.438  1.00  0.00    -0.357 OA
HETATM   23  C1  UNL     1      28.894  -2.872  53.166  1.00  0.00     0.209 C 
ENDBRANCH   1  22
TORSDOF 5
ENDMDL
MODEL 5
REMARK VINA RESULT:      -7.0      2.391      3.360
REMARK  5 active torsions:
REMARK  status: ('A' for Active; 'I' for Inactive)
REMARK    1  A    between atoms: O1_2  and  C2_3 
REMARK    2  A    between atoms: C5_7  and  C6_8 
REMARK    3  A    between atoms: C6_8  and  N2_9 
REMARK    4  A    between atoms: N2_9  and  C7_10 
REMARK    5  A    between atoms: C10_13  and  O2_14 
ROOT
HETATM    1  C2  UNL     1      19.900   0.055  52.831  1.00  0.00     0.082 C 
HETATM    2  C3  UNL     1      20.879  -0.514  53.519  1.00  0.00     0.025 A 
HETATM    3  C4  UNL     1      20.881  -1.748  54.298  1.00  0.00     0.132 A 
HETATM    4  N1  UNL     1      22.056  -1.927  54.807  1.00  0.00    -0.262 NA
HETATM    5  C5  UNL     1      22.923  -0.872  54.434  1.00  0.00     0.063 A 
HETATM    6  C13 UNL     1      22.247  -0.027  53.672  1.00  0.00     0.006 A 
HETATM    7  C14 UNL     1      22.803   1.203  53.084  1.00  0.00     0.038 C 
HETATM    8  C15 UNL     1      22.278   2.016  52.153  1.00  0.00     0.136 C 
HETATM    9  O3  UNL     1      21.040   1.785  51.576  1.00  0.00    -0.357 OA
HETATM   10  C16 UNL     1      19.827   1.285  52.031  1.00  0.00     0.239 C 
ENDROOT
BRANCH   5  11
HETATM   11  C6  UNL     1      24.324  -0.784  54.850  1.00  0.00     0.179 C 
BRANCH  11  12
HETATM   12  N2  UNL     1      25.226  -0.839  53.691  1.00  0.00    -0.384 N 
HETATM   13  H7  UNL     1      25.117  -1.554  52.942  1.00  0.00     0.160 HD
BRANCH  12  14
HETATM   14  C7  UNL     1      26.293   0.109  53.573  1.00  0.00     0.028 A 
HETATM   15  C8  UNL     1      27.364   0.174  54.446  1.00  0.00     0.032 A 
HETATM   16  C9  UNL     1      28.366   1.092  54.304  1.00  0.00     0.039 A 
HETATM   17  C10 UNL     1      28.317   1.987  53.259  1.00  0.00     0.065 A 
HETATM   18  C11 UNL     1      27.266   1.966  52.354  1.00  0.00     0.039 A 
HETATM   19  C12 UNL     1      26.293   1.030  52.541  1.00  0.00     0.032 A 
BRANCH  17  20
HETATM   20  O2  UNL     1      29.297   2.941  53.057  1.00  0.00    -0.361 OA
HETATM   21  H10 UNL     1      29.083   3.721  52.421  1.00  0.00     0.217 HD
ENDBRANCH  17  20
ENDBRANCH  12  14
ENDBRANCH  11  12
ENDBRANCH   5  11
BRANCH   1  22
HETATM   22  O1  UNL     1      18.714  -0.667  52.887  1.00  0.00    -0.357 OA
HETATM   23  C1  UNL     1      17.673  -0.470  51.945  1.00  0.00     0.209 C 
ENDBRANCH   1  22
TORSDOF 5
ENDMDL
MODEL 6
REMARK VINA RESULT:      -7.0      2.627      7.539
REMARK  5 active torsions:
REMARK  status: ('A' for Active; 'I' for Inactive)
REMARK    1  A    between atoms: O1_2  and  C2_3 
REMARK    2  A    between atoms: C5_7  and  C6_8 
REMARK    3  A    between atoms: C6_8  and  N2_9 
REMARK    4  A    between atoms: N2_9  and  C7_10 
REMARK    5  A    between atoms: C10_13  and  O2_14 
ROOT
HETATM    1  C2  UNL     1      25.615  -0.353  53.412  1.00  0.00     0.082 C 
HETATM    2  C3  UNL     1      24.492  -0.576  54.079  1.00  0.00     0.025 A 
HETATM    3  C4  UNL     1      24.270  -1.320  55.315  1.00  0.00     0.132 A 
HETATM    4  N1  UNL     1      23.012  -1.284  55.612  1.00  0.00    -0.262 NA
HETATM    5  C5  UNL     1      22.295  -0.541  54.642  1.00  0.00     0.063 A 
HETATM    6  C13 UNL     1      23.152  -0.114  53.728  1.00  0.00     0.006 A 
HETATM    7  C14 UNL     1      22.791   0.695  52.553  1.00  0.00     0.038 C 
HETATM    8  C15 UNL     1      23.588   1.339  51.684  1.00  0.00     0.136 C 
HETATM    9  O3  UNL     1      24.969   1.324  51.788  1.00  0.00    -0.357 OA
HETATM   10  C16 UNL     1      25.911   0.379  52.173  1.00  0.00     0.239 C 
ENDROOT
BRANCH   5  11
HETATM   11  C6  UNL     1      20.849  -0.317  54.694  1.00  0.00     0.179 C 
BRANCH  11  12
HETATM   12  N2  UNL     1      20.117  -1.437  54.088  1.00  0.00    -0.384 N 
HETATM   13  H7  UNL     1      20.404  -2.427  54.236  1.00  0.00     0.160 HD
BRANCH  12  14
HETATM   14  C7  UNL     1      18.973  -1.179  53.265  1.00  0.00     0.028 A 
HETATM   15  C8  UNL     1      17.759  -1.825  53.410  1.00  0.00     0.032 A 
HETATM   16  C9  UNL     1      16.688  -1.553  52.608  1.00  0.00     0.039 A 
HETATM   17  C10 UNL     1      16.810  -0.605  51.618  1.00  0.00     0.065 A 
HETATM   18  C11 UNL     1      18.005   0.075  51.429  1.00  0.00     0.039 A 
HETATM   19  C12 UNL     1      19.042  -0.234  52.258  1.00  0.00     0.032 A 
BRANCH  17  20
HETATM   20  O2  UNL     1      15.766  -0.280  50.772  1.00  0.00    -0.361 OA
HETATM   21  H10 UNL     1      15.860  -0.530  49.777  1.00  0.00     0.217 HD
ENDBRANCH  17  20
ENDBRANCH  12  14
ENDBRANCH  11  12
ENDBRANCH   5  11
BRANCH   1  22
HETATM   22  O1  UNL     1      26.723  -0.934  54.016  1.00  0.00    -0.357 OA
HETATM   23  C1  UNL     1      27.863  -0.173  54.378  1.00  0.00     0.209 C 
ENDBRANCH   1  22
TORSDOF 5
ENDMDL
MODEL 7
REMARK VINA RESULT:      -6.9      3.813      5.134
REMARK  5 active torsions:
REMARK  status: ('A' for Active; 'I' for Inactive)
REMARK    1  A    between atoms: O1_2  and  C2_3 
REMARK    2  A    between atoms: C5_7  and  C6_8 
REMARK    3  A    between atoms: C6_8  and  N2_9 
REMARK    4  A    between atoms: N2_9  and  C7_10 
REMARK    5  A    between atoms: C10_13  and  O2_14 
ROOT
HETATM    1  C2  UNL     1      23.568  -0.167  53.461  1.00  0.00     0.082 C 
HETATM    2  C3  UNL     1      23.129   0.992  52.990  1.00  0.00     0.025 A 
HETATM    3  C4  UNL     1      21.807   1.358  52.491  1.00  0.00     0.132 A 
HETATM    4  N1  UNL     1      21.819   2.599  52.129  1.00  0.00    -0.262 NA
HETATM    5  C5  UNL     1      23.100   3.164  52.341  1.00  0.00     0.063 A 
HETATM    6  C13 UNL     1      23.889   2.231  52.850  1.00  0.00     0.006 A 
HETATM    7  C14 UNL     1      25.302   2.430  53.208  1.00  0.00     0.038 C 
HETATM    8  C15 UNL     1      26.127   1.627  53.901  1.00  0.00     0.136 C 
HETATM    9  O3  UNL     1      25.722   0.405  54.411  1.00  0.00    -0.357 OA
HETATM   10  C16 UNL     1      24.874  -0.604  53.975  1.00  0.00     0.239 C 
ENDROOT
BRANCH   5  11
HETATM   11  C6  UNL     1      23.438   4.555  52.031  1.00  0.00     0.179 C 
BRANCH  11  12
HETATM   12  N2  UNL     1      23.558   4.760  50.580  1.00  0.00    -0.384 N 
HETATM   13  H7  UNL     1      22.723   4.852  49.966  1.00  0.00     0.160 HD
BRANCH  12  14
HETATM   14  C7  UNL     1      24.855   4.837  49.977  1.00  0.00     0.028 A 
HETATM   15  C8  UNL     1      25.411   6.007  49.492  1.00  0.00     0.032 A 
HETATM   16  C9  UNL     1      26.652   6.044  48.923  1.00  0.00     0.039 A 
HETATM   17  C10 UNL     1      27.384   4.883  48.825  1.00  0.00     0.065 A 
HETATM   18  C11 UNL     1      26.876   3.681  49.296  1.00  0.00     0.039 A 
HETATM   19  C12 UNL     1      25.633   3.699  49.855  1.00  0.00     0.032 A 
BRANCH  17  20
HETATM   20  O2  UNL     1      28.646   4.850  48.261  1.00  0.00    -0.361 OA
HETATM   21  H10 UNL     1      29.451   4.755  48.895  1.00  0.00     0.217 HD
ENDBRANCH  17  20
ENDBRANCH  12  14
ENDBRANCH  11  12
ENDBRANCH   5  11
BRANCH   1  22
HETATM   22  O1  UNL     1      22.589  -1.152  53.462  1.00  0.00    -0.357 OA
HETATM   23  C1  UNL     1      21.931  -1.552  54.652  1.00  0.00     0.209 C 
ENDBRANCH   1  22
TORSDOF 5
ENDMDL
MODEL 8
REMARK VINA RESULT:      -6.9      2.060      2.851
REMARK  5 active torsions:
REMARK  status: ('A' for Active; 'I' for Inactive)
REMARK    1  A    between atoms: O1_2  and  C2_3 
REMARK    2  A    between atoms: C5_7  and  C6_8 
REMARK    3  A    between atoms: C6_8  and  N2_9 
REMARK    4  A    between atoms: N2_9  and  C7_10 
REMARK    5  A    between atoms: C10_13  and  O2_14 
ROOT
HETATM    1  C2  UNL     1      20.260   0.667  51.890  1.00  0.00     0.082 C 
HETATM    2  C3  UNL     1      21.574   0.651  52.058  1.00  0.00     0.025 A 
HETATM    3  C4  UNL     1      22.605   1.486  51.449  1.00  0.00     0.132 A 
HETATM    4  N1  UNL     1      23.762   1.126  51.898  1.00  0.00    -0.262 NA
HETATM    5  C5  UNL     1      23.626   0.056  52.817  1.00  0.00     0.063 A 
HETATM    6  C13 UNL     1      22.340  -0.238  52.926  1.00  0.00     0.006 A 
HETATM    7  C14 UNL     1      21.792  -1.298  53.788  1.00  0.00     0.038 C 
HETATM    8  C15 UNL     1      20.515  -1.550  54.120  1.00  0.00     0.136 C 
HETATM    9  O3  UNL     1      19.459  -0.783  53.658  1.00  0.00    -0.357 OA
HETATM   10  C16 UNL     1      19.170  -0.135  52.464  1.00  0.00     0.239 C 
ENDROOT
BRANCH   5  11
HETATM   11  C6  UNL     1      24.755  -0.577  53.502  1.00  0.00     0.179 C 
BRANCH  11  12
HETATM   12  N2  UNL     1      25.986  -0.467  52.708  1.00  0.00    -0.384 N 
HETATM   13  H7  UNL     1      26.077  -0.909  51.769  1.00  0.00     0.160 HD
BRANCH  12  14
HETATM   14  C7  UNL     1      27.105   0.262  53.225  1.00  0.00     0.028 A 
HETATM   15  C8  UNL     1      28.250  -0.335  53.720  1.00  0.00     0.032 A 
HETATM   16  C9  UNL     1      29.300   0.391  54.206  1.00  0.00     0.039 A 
HETATM   17  C10 UNL     1      29.226   1.766  54.207  1.00  0.00     0.065 A 
HETATM   18  C11 UNL     1      28.100   2.417  53.722  1.00  0.00     0.039 A 
HETATM   19  C12 UNL     1      27.082   1.644  53.248  1.00  0.00     0.032 A 
BRANCH  17  20
HETATM   20  O2  UNL     1      30.251   2.561  54.684  1.00  0.00    -0.361 OA
HETATM   21  H10 UNL     1      30.059   3.564  54.814  1.00  0.00     0.217 HD
ENDBRANCH  17  20
ENDBRANCH  12  14
ENDBRANCH  11  12
ENDBRANCH   5  11
BRANCH   1  22
HETATM   22  O1  UNL     1      19.845   1.641  50.990  1.00  0.00    -0.357 OA
HETATM   23  C1  UNL     1      19.242   2.850  51.420  1.00  0.00     0.209 C 
ENDBRANCH   1  22
TORSDOF 5
ENDMDL
MODEL 9
REMARK VINA RESULT:      -6.9      4.674      5.944
REMARK  5 active torsions:
REMARK  status: ('A' for Active; 'I' for Inactive)
REMARK    1  A    between atoms: O1_2  and  C2_3 
REMARK    2  A    between atoms: C5_7  and  C6_8 
REMARK    3  A    between atoms: C6_8  and  N2_9 
REMARK    4  A    between atoms: N2_9  and  C7_10 
REMARK    5  A    between atoms: C10_13  and  O2_14 
ROOT
HETATM    1  C2  UNL     1      23.948  -0.286  53.652  1.00  0.00     0.082 C 
HETATM    2  C3  UNL     1      24.294   0.626  52.754  1.00  0.00     0.025 A 
HETATM    3  C4  UNL     1      23.475   1.330  51.774  1.00  0.00     0.132 A 
HETATM    4  N1  UNL     1      24.225   2.137  51.096  1.00  0.00    -0.262 NA
HETATM    5  C5  UNL     1      25.567   2.055  51.538  1.00  0.00     0.063 A 
HETATM    6  C13 UNL     1      25.630   1.167  52.518  1.00  0.00     0.006 A 
HETATM    7  C14 UNL     1      26.858   0.800  53.241  1.00  0.00     0.038 C 
HETATM    8  C15 UNL     1      27.002   0.073  54.362  1.00  0.00     0.136 C 
HETATM    9  O3  UNL     1      25.925  -0.471  55.041  1.00  0.00    -0.357 OA
HETATM   10  C16 UNL     1      24.712  -1.032  54.662  1.00  0.00     0.239 C 
ENDROOT
BRANCH   5  11
HETATM   11  C6  UNL     1      26.661   2.844  50.970  1.00  0.00     0.179 C 
BRANCH  11  12
HETATM   12  N2  UNL     1      26.363   3.245  49.587  1.00  0.00    -0.384 N 
HETATM   13  H7  UNL     1      25.948   2.583  48.900  1.00  0.00     0.160 HD
BRANCH  12  14
HETATM   14  C7  UNL     1      26.648   4.581  49.156  1.00  0.00     0.028 A 
HETATM   15  C8  UNL     1      25.752   5.630  49.259  1.00  0.00     0.032 A 
HETATM   16  C9  UNL     1      26.056   6.893  48.839  1.00  0.00     0.039 A 
HETATM   17  C10 UNL     1      27.294   7.142  48.292  1.00  0.00     0.065 A 
HETATM   18  C11 UNL     1      28.232   6.127  48.165  1.00  0.00     0.039 A 
HETATM   19  C12 UNL     1      27.877   4.885  48.601  1.00  0.00     0.032 A 
BRANCH  17  20
HETATM   20  O2  UNL     1      27.668   8.396  47.847  1.00  0.00    -0.361 OA
HETATM   21  H10 UNL     1      28.093   8.466  46.911  1.00  0.00     0.217 HD
ENDBRANCH  17  20
ENDBRANCH  12  14
ENDBRANCH  11  12
ENDBRANCH   5  11
BRANCH   1  22
HETATM   22  O1  UNL     1      22.592  -0.585  53.619  1.00  0.00    -0.357 OA
HETATM   23  C1  UNL     1      21.792  -0.559  54.789  1.00  0.00     0.209 C 
ENDBRANCH   1  22
TORSDOF 5
ENDMDL
