MODEL 1
REMARK VINA RESULT:      -7.2      0.000      0.000
REMARK  5 active torsions:
REMARK  status: ('A' for Active; 'I' for Inactive)
REMARK    1  A    between atoms: C3_3  and  O1_4 
REMARK    2  A    between atoms: O1_4  and  C4_5 
REMARK    3  A    between atoms: C7_8  and  N1_9 
REMARK    4  A    between atoms: N1_9  and  C8_10 
REMARK    5  A    between atoms: C15_20  and  O2_21 
ROOT
HETATM    1  C1  UNL     1      26.676   3.898  49.449  1.00  0.00     0.014 C 
HETATM    2  C2  UNL     1      25.480   3.761  49.345  1.00  0.00    -0.091 C 
HETATM    3  C3  UNL     1      23.998   3.565  49.217  1.00  0.00     0.268 C 
ENDROOT
BRANCH   3   4
HETATM    4  O1  UNL     1      23.513   2.666  50.033  1.00  0.00    -0.337 OA
BRANCH   4   5
HETATM    5  C4  UNL     1      23.010   1.826  50.833  1.00  0.00     0.104 A 
HETATM    6  C5  UNL     1      23.780   1.292  51.873  1.00  0.00     0.057 A 
HETATM    7  C6  UNL     1      23.274   0.374  52.769  1.00  0.00     0.042 A 
HETATM    8  C7  UNL     1      24.068  -0.123  53.779  1.00  0.00     0.141 A 
HETATM    9  C13 UNL     1      21.962  -0.009  52.603  1.00  0.00     0.075 A 
HETATM   10  N3  UNL     1      23.480  -1.015  54.607  1.00  0.00    -0.224 NA
HETATM   11  C12 UNL     1      22.191  -1.391  54.447  1.00  0.00     0.236 A 
HETATM   12  N4  UNL     1      21.438  -0.891  53.450  1.00  0.00    -0.241 NA
HETATM   13  C14 UNL     1      21.140   0.471  51.604  1.00  0.00     0.072 A 
HETATM   14  C15 UNL     1      21.686   1.396  50.720  1.00  0.00     0.103 A 
BRANCH   8  15
HETATM   15  N1  UNL     1      25.423   0.261  53.959  1.00  0.00    -0.344 N 
HETATM   16  H5  UNL     1      25.343   1.213  54.416  1.00  0.00     0.167 HD
BRANCH  15  17
HETATM   17  C8  UNL     1      26.712  -0.276  53.698  1.00  0.00     0.017 C 
HETATM   18  C9  UNL     1      26.786  -1.311  52.630  1.00  0.00     0.069 C 
HETATM   19  C10 UNL     1      27.783   0.116  54.360  1.00  0.00     0.118 C 
HETATM   20  C11 UNL     1      29.042  -0.482  54.025  1.00  0.00     0.089 C 
HETATM   21  N2  UNL     1      30.052  -0.969  53.738  1.00  0.00    -0.192 NA
ENDBRANCH  15  17
ENDBRANCH   8  15
BRANCH  14  22
HETATM   22  O2  UNL     1      20.937   1.933  49.687  1.00  0.00    -0.353 OA
HETATM   23  C16 UNL     1      20.041   2.994  49.779  1.00  0.00     0.210 C 
ENDBRANCH  14  22
ENDBRANCH   4   5
ENDBRANCH   3   4
TORSDOF 5
ENDMDL
MODEL 2
REMARK VINA RESULT:      -7.1      2.189      4.406
REMARK  5 active torsions:
REMARK  status: ('A' for Active; 'I' for Inactive)
REMARK    1  A    between atoms: C3_3  and  O1_4 
REMARK    2  A    between atoms: O1_4  and  C4_5 
REMARK    3  A    between atoms: C7_8  and  N1_9 
REMARK    4  A    between atoms: N1_9  and  C8_10 
REMARK    5  A    between atoms: C15_20  and  O2_21 
ROOT
HETATM    1  C1  UNL     1      22.613  -1.589  55.334  1.00  0.00     0.014 C 
HETATM    2  C2  UNL     1      21.970  -0.743  54.757  1.00  0.00    -0.091 C 
HETATM    3  C3  UNL     1      21.192   0.323  54.044  1.00  0.00     0.268 C 
ENDROOT
BRANCH   3   4
HETATM    4  O1  UNL     1      21.897   1.001  53.179  1.00  0.00    -0.337 OA
BRANCH   4   5
HETATM    5  C4  UNL     1      22.613   1.628  52.346  1.00  0.00     0.104 A 
HETATM    6  C5  UNL     1      24.010   1.575  52.433  1.00  0.00     0.057 A 
HETATM    7  C6  UNL     1      24.830   2.242  51.546  1.00  0.00     0.042 A 
HETATM    8  C7  UNL     1      26.199   2.158  51.669  1.00  0.00     0.141 A 
HETATM    9  C13 UNL     1      24.218   2.976  50.556  1.00  0.00     0.075 A 
HETATM   10  N3  UNL     1      26.916   2.844  50.751  1.00  0.00    -0.224 NA
HETATM   11  C12 UNL     1      26.318   3.565  49.776  1.00  0.00     0.236 A 
HETATM   12  N4  UNL     1      24.978   3.630  49.680  1.00  0.00    -0.241 NA
HETATM   13  C14 UNL     1      22.851   3.078  50.404  1.00  0.00     0.072 A 
HETATM   14  C15 UNL     1      22.056   2.391  51.318  1.00  0.00     0.103 A 
BRANCH   8  15
HETATM   15  N1  UNL     1      26.842   1.406  52.688  1.00  0.00    -0.344 N 
HETATM   16  H5  UNL     1      26.885   2.089  53.497  1.00  0.00     0.167 HD
BRANCH  15  17
HETATM   17  C8  UNL     1      27.377   0.101  52.853  1.00  0.00     0.017 C 
HETATM   18  C9  UNL     1      26.484  -1.027  52.468  1.00  0.00     0.069 C 
HETATM   19  C10 UNL     1      28.594  -0.105  53.320  1.00  0.00     0.118 C 
HETATM   20  C11 UNL     1      29.048  -1.458  53.450  1.00  0.00     0.089 C 
HETATM   21  N2  UNL     1      29.403  -2.556  53.542  1.00  0.00    -0.192 NA
ENDBRANCH  15  17
ENDBRANCH   8  15
BRANCH  14  22
HETATM   22  O2  UNL     1      20.675   2.434  51.244  1.00  0.00    -0.353 OA
HETATM   23  C16 UNL     1      19.850   3.431  51.754  1.00  0.00     0.210 C 
ENDBRANCH  14  22
ENDBRANCH   4   5
ENDBRANCH   3   4
TORSDOF 5
ENDMDL
MODEL 3
REMARK VINA RESULT:      -7.1      1.959      2.757
REMARK  5 active torsions:
REMARK  status: ('A' for Active; 'I' for Inactive)
REMARK    1  A    between atoms: C3_3  and  O1_4 
REMARK    2  A    between atoms: O1_4  and  C4_5 
REMARK    3  A    between atoms: C7_8  and  N1_9 
REMARK    4  A    between atoms: N1_9  and  C8_10 
REMARK    5  A    between atoms: C15_20  and  O2_21 
ROOT
HETATM    1  C1  UNL     1      22.907   2.516  48.343  1.00  0.00     0.014 C 
HETATM    2  C2  UNL     1      21.909   2.055  48.845  1.00  0.00    -0.091 C 
HETATM    3  C3  UNL     1      20.683   1.461  49.474  1.00  0.00     0.268 C 
ENDROOT
BRANCH   3   4
HETATM    4  O1  UNL     1      20.905   0.902  50.634  1.00  0.00    -0.337 OA
BRANCH   4   5
HETATM    5  C4  UNL     1      21.152   0.338  51.738  1.00  0.00     0.104 A 
HETATM    6  C5  UNL     1      22.473   0.208  52.185  1.00  0.00     0.057 A 
HETATM    7  C6  UNL     1      22.789  -0.399  53.383  1.00  0.00     0.042 A 
HETATM    8  C7  UNL     1      24.104  -0.502  53.783  1.00  0.00     0.141 A 
HETATM    9  C13 UNL     1      21.745  -0.884  54.137  1.00  0.00     0.075 A 
HETATM   10  N3  UNL     1      24.311  -1.111  54.973  1.00  0.00    -0.224 NA
HETATM   11  C12 UNL     1      23.287  -1.586  55.716  1.00  0.00     0.236 A 
HETATM   12  N4  UNL     1      22.012  -1.473  55.300  1.00  0.00    -0.241 NA
HETATM   13  C14 UNL     1      20.419  -0.793  53.766  1.00  0.00     0.072 A 
HETATM   14  C15 UNL     1      20.139  -0.174  52.551  1.00  0.00     0.103 A 
BRANCH   8  15
HETATM   15  N1  UNL     1      25.189  -0.010  53.013  1.00  0.00    -0.344 N 
HETATM   16  H5  UNL     1      24.844  -0.118  52.018  1.00  0.00     0.167 HD
BRANCH  15  17
HETATM   17  C8  UNL     1      26.482   0.532  53.244  1.00  0.00     0.017 C 
HETATM   18  C9  UNL     1      27.630  -0.384  53.001  1.00  0.00     0.069 C 
HETATM   19  C10 UNL     1      26.660   1.775  53.649  1.00  0.00     0.118 C 
HETATM   20  C11 UNL     1      28.002   2.235  53.854  1.00  0.00     0.089 C 
HETATM   21  N2  UNL     1      29.092   2.592  54.007  1.00  0.00    -0.192 NA
ENDBRANCH  15  17
ENDBRANCH   8  15
BRANCH  14  22
HETATM   22  O2  UNL     1      18.839  -0.038  52.097  1.00  0.00    -0.353 OA
HETATM   23  C16 UNL     1      17.735  -0.777  52.513  1.00  0.00     0.210 C 
ENDBRANCH  14  22
ENDBRANCH   4   5
ENDBRANCH   3   4
TORSDOF 5
ENDMDL
MODEL 4
REMARK VINA RESULT:      -7.0      2.922      6.990
REMARK  5 active torsions:
REMARK  status: ('A' for Active; 'I' for Inactive)
REMARK    1  A    between atoms: C3_3  and  O1_4 
REMARK    2  A    between atoms: O1_4  and  C4_5 
REMARK    3  A    between atoms: C7_8  and  N1_9 
REMARK    4  A    between atoms: N1_9  and  C8_10 
REMARK    5  A    between atoms: C15_20  and  O2_21 
ROOT
HETATM    1  C1  UNL     1      21.203  -1.434  54.552  1.00  0.00     0.014 C 
HETATM    2  C2  UNL     1      22.380  -1.316  54.799  1.00  0.00    -0.091 C 
HETATM    3  C3  UNL     1      23.847  -1.173  55.082  1.00  0.00     0.268 C 
ENDROOT
BRANCH   3   4
HETATM    4  O1  UNL     1      24.474  -0.401  54.234  1.00  0.00    -0.337 OA
BRANCH   4   5
HETATM    5  C4  UNL     1      25.051   0.333  53.382  1.00  0.00     0.104 A 
HETATM    6  C5  UNL     1      24.301   1.141  52.520  1.00  0.00     0.057 A 
HETATM    7  C6  UNL     1      24.888   1.957  51.575  1.00  0.00     0.042 A 
HETATM    8  C7  UNL     1      24.109   2.738  50.750  1.00  0.00     0.141 A 
HETATM    9  C13 UNL     1      26.263   1.950  51.506  1.00  0.00     0.075 A 
HETATM   10  N3  UNL     1      24.778   3.505  49.861  1.00  0.00    -0.224 NA
HETATM   11  C12 UNL     1      26.128   3.501  49.792  1.00  0.00     0.236 A 
HETATM   12  N4  UNL     1      26.865   2.727  50.610  1.00  0.00    -0.241 NA
HETATM   13  C14 UNL     1      27.071   1.183  52.320  1.00  0.00     0.072 A 
HETATM   14  C15 UNL     1      26.442   0.372  53.260  1.00  0.00     0.103 A 
BRANCH   8  15
HETATM   15  N1  UNL     1      22.690   2.752  50.809  1.00  0.00    -0.344 N 
HETATM   16  H5  UNL     1      22.467   3.778  50.943  1.00  0.00     0.167 HD
BRANCH  15  17
HETATM   17  C8  UNL     1      21.626   1.814  50.738  1.00  0.00     0.017 C 
HETATM   18  C9  UNL     1      21.549   1.003  49.491  1.00  0.00     0.069 C 
HETATM   19  C10 UNL     1      20.753   1.667  51.717  1.00  0.00     0.118 C 
HETATM   20  C11 UNL     1      19.714   0.694  51.555  1.00  0.00     0.089 C 
HETATM   21  N2  UNL     1      18.885  -0.102  51.412  1.00  0.00    -0.192 NA
ENDBRANCH  15  17
ENDBRANCH   8  15
BRANCH  14  22
HETATM   22  O2  UNL     1      27.172  -0.432  54.119  1.00  0.00    -0.353 OA
HETATM   23  C16 UNL     1      28.320  -0.070  54.816  1.00  0.00     0.210 C 
ENDBRANCH  14  22
ENDBRANCH   4   5
ENDBRANCH   3   4
TORSDOF 5
ENDMDL
MODEL 5
REMARK VINA RESULT:      -6.9      2.278      5.756
REMARK  5 active torsions:
REMARK  status: ('A' for Active; 'I' for Inactive)
REMARK    1  A    between atoms: C3_3  and  O1_4 
REMARK    2  A    between atoms: O1_4  and  C4_5 
REMARK    3  A    between atoms: C7_8  and  N1_9 
REMARK    4  A    between atoms: N1_9  and  C8_10 
REMARK    5  A    between atoms: C15_20  and  O2_21 
ROOT
HETATM    1  C1  UNL     1      24.671   4.420  49.618  1.00  0.00     0.014 C 
HETATM    2  C2  UNL     1      25.565   3.681  49.956  1.00  0.00    -0.091 C 
HETATM    3  C3  UNL     1      26.670   2.768  50.400  1.00  0.00     0.268 C 
ENDROOT
BRANCH   3   4
HETATM    4  O1  UNL     1      26.353   2.014  51.419  1.00  0.00    -0.337 OA
BRANCH   4   5
HETATM    5  C4  UNL     1      26.012   1.269  52.381  1.00  0.00     0.104 A 
HETATM    6  C5  UNL     1      24.698   0.796  52.479  1.00  0.00     0.057 A 
HETATM    7  C6  UNL     1      24.281  -0.019  53.511  1.00  0.00     0.042 A 
HETATM    8  C7  UNL     1      22.978  -0.462  53.564  1.00  0.00     0.141 A 
HETATM    9  C13 UNL     1      25.219  -0.359  54.460  1.00  0.00     0.075 A 
HETATM   10  N3  UNL     1      22.669  -1.259  54.611  1.00  0.00    -0.224 NA
HETATM   11  C12 UNL     1      23.587  -1.595  55.544  1.00  0.00     0.236 A 
HETATM   12  N4  UNL     1      24.854  -1.147  55.469  1.00  0.00    -0.241 NA
HETATM   13  C14 UNL     1      26.531   0.065  54.434  1.00  0.00     0.072 A 
HETATM   14  C15 UNL     1      26.913   0.886  53.377  1.00  0.00     0.103 A 
BRANCH   8  15
HETATM   15  N1  UNL     1      22.002  -0.116  52.593  1.00  0.00    -0.344 N 
HETATM   16  H5  UNL     1      22.278  -0.705  51.757  1.00  0.00     0.167 HD
BRANCH  15  17
HETATM   17  C8  UNL     1      20.871   0.738  52.497  1.00  0.00     0.017 C 
HETATM   18  C9  UNL     1      19.558   0.130  52.845  1.00  0.00     0.069 C 
HETATM   19  C10 UNL     1      20.974   1.999  52.121  1.00  0.00     0.118 C 
HETATM   20  C11 UNL     1      19.777   2.785  52.055  1.00  0.00     0.089 C 
HETATM   21  N2  UNL     1      18.802   3.408  52.014  1.00  0.00    -0.192 NA
ENDBRANCH  15  17
ENDBRANCH   8  15
BRANCH  14  22
HETATM   22  O2  UNL     1      28.210   1.360  53.268  1.00  0.00    -0.353 OA
HETATM   23  C16 UNL     1      29.348   0.792  53.830  1.00  0.00     0.210 C 
ENDBRANCH  14  22
ENDBRANCH   4   5
ENDBRANCH   3   4
TORSDOF 5
ENDMDL
MODEL 6
REMARK VINA RESULT:      -6.7      2.229      2.604
REMARK  5 active torsions:
REMARK  status: ('A' for Active; 'I' for Inactive)
REMARK    1  A    between atoms: C3_3  and  O1_4 
REMARK    2  A    between atoms: O1_4  and  C4_5 
REMARK    3  A    between atoms: C7_8  and  N1_9 
REMARK    4  A    between atoms: N1_9  and  C8_10 
REMARK    5  A    between atoms: C15_20  and  O2_21 
ROOT
HETATM    1  C1  UNL     1      27.527   4.748  48.703  1.00  0.00     0.014 C 
HETATM    2  C2  UNL     1      26.498   5.279  49.047  1.00  0.00    -0.091 C 
HETATM    3  C3  UNL     1      25.207   5.917  49.468  1.00  0.00     0.268 C 
ENDROOT
BRANCH   3   4
HETATM    4  O1  UNL     1      24.419   5.120  50.139  1.00  0.00    -0.337 OA
BRANCH   4   5
HETATM    5  C4  UNL     1      23.664   4.316  50.758  1.00  0.00     0.104 A 
HETATM    6  C5  UNL     1      24.198   3.181  51.381  1.00  0.00     0.057 A 
HETATM    7  C6  UNL     1      23.413   2.278  52.067  1.00  0.00     0.042 A 
HETATM    8  C7  UNL     1      23.984   1.177  52.667  1.00  0.00     0.141 A 
HETATM    9  C13 UNL     1      22.061   2.533  52.119  1.00  0.00     0.075 A 
HETATM   10  N3  UNL     1      23.132   0.353  53.317  1.00  0.00    -0.224 NA
HETATM   11  C12 UNL     1      21.804   0.602  53.372  1.00  0.00     0.236 A 
HETATM   12  N4  UNL     1      21.273   1.685  52.776  1.00  0.00    -0.241 NA
HETATM   13  C14 UNL     1      21.460   3.628  51.533  1.00  0.00     0.072 A 
HETATM   14  C15 UNL     1      22.285   4.517  50.849  1.00  0.00     0.103 A 
BRANCH   8  15
HETATM   15  N1  UNL     1      25.375   0.901  52.617  1.00  0.00    -0.344 N 
HETATM   16  H5  UNL     1      25.481   0.370  51.707  1.00  0.00     0.167 HD
BRANCH  15  17
HETATM   17  C8  UNL     1      26.525   1.146  53.414  1.00  0.00     0.017 C 
HETATM   18  C9  UNL     1      26.610   0.389  54.693  1.00  0.00     0.069 C 
HETATM   19  C10 UNL     1      27.466   1.995  53.047  1.00  0.00     0.118 C 
HETATM   20  C11 UNL     1      28.591   2.176  53.916  1.00  0.00     0.089 C 
HETATM   21  N2  UNL     1      29.497   2.305  54.626  1.00  0.00    -0.192 NA
ENDBRANCH  15  17
ENDBRANCH   8  15
BRANCH  14  22
HETATM   22  O2  UNL     1      21.771   5.642  50.229  1.00  0.00    -0.353 OA
HETATM   23  C16 UNL     1      21.534   6.878  50.823  1.00  0.00     0.210 C 
ENDBRANCH  14  22
ENDBRANCH   4   5
ENDBRANCH   3   4
TORSDOF 5
ENDMDL
MODEL 7
REMARK VINA RESULT:      -6.4      2.936      6.070
REMARK  5 active torsions:
REMARK  status: ('A' for Active; 'I' for Inactive)
REMARK    1  A    between atoms: C3_3  and  O1_4 
REMARK    2  A    between atoms: O1_4  and  C4_5 
REMARK    3  A    between atoms: C7_8  and  N1_9 
REMARK    4  A    between atoms: N1_9  and  C8_10 
REMARK    5  A    between atoms: C15_20  and  O2_21 
ROOT
HETATM    1  C1  UNL     1      18.484  -0.615  52.702  1.00  0.00     0.014 C 
HETATM    2  C2  UNL     1      19.249   0.019  52.014  1.00  0.00    -0.091 C 
HETATM    3  C3  UNL     1      20.210   0.815  51.182  1.00  0.00     0.268 C 
ENDROOT
BRANCH   3   4
HETATM    4  O1  UNL     1      21.447   0.753  51.600  1.00  0.00    -0.337 OA
BRANCH   4   5
HETATM    5  C4  UNL     1      22.633   0.724  52.036  1.00  0.00     0.104 A 
HETATM    6  C5  UNL     1      23.602   1.584  51.505  1.00  0.00     0.057 A 
HETATM    7  C6  UNL     1      24.908   1.588  51.950  1.00  0.00     0.042 A 
HETATM    8  C7  UNL     1      25.827   2.454  51.399  1.00  0.00     0.141 A 
HETATM    9  C13 UNL     1      25.234   0.700  52.950  1.00  0.00     0.075 A 
HETATM   10  N3  UNL     1      27.079   2.384  51.904  1.00  0.00    -0.224 NA
HETATM   11  C12 UNL     1      27.401   1.515  52.887  1.00  0.00     0.236 A 
HETATM   12  N4  UNL     1      26.484   0.678  53.406  1.00  0.00    -0.241 NA
HETATM   13  C14 UNL     1      24.337  -0.177  53.524  1.00  0.00     0.072 A 
HETATM   14  C15 UNL     1      23.029  -0.151  53.049  1.00  0.00     0.103 A 
BRANCH   8  15
HETATM   15  N1  UNL     1      25.504   3.372  50.365  1.00  0.00    -0.344 N 
HETATM   16  H5  UNL     1      25.745   2.833  49.485  1.00  0.00     0.167 HD
BRANCH  15  17
HETATM   17  C8  UNL     1      24.992   4.691  50.252  1.00  0.00     0.017 C 
HETATM   18  C9  UNL     1      25.260   5.391  48.965  1.00  0.00     0.069 C 
HETATM   19  C10 UNL     1      24.317   5.269  51.228  1.00  0.00     0.118 C 
HETATM   20  C11 UNL     1      23.838   6.603  51.021  1.00  0.00     0.089 C 
HETATM   21  N2  UNL     1      23.451   7.679  50.836  1.00  0.00    -0.192 NA
ENDBRANCH  15  17
ENDBRANCH   8  15
BRANCH  14  22
HETATM   22  O2  UNL     1      22.061  -0.996  53.565  1.00  0.00    -0.353 OA
HETATM   23  C16 UNL     1      22.092  -1.633  54.801  1.00  0.00     0.210 C 
ENDBRANCH  14  22
ENDBRANCH   4   5
ENDBRANCH   3   4
TORSDOF 5
ENDMDL
MODEL 8
REMARK VINA RESULT:      -6.3      7.081     10.968
REMARK  5 active torsions:
REMARK  status: ('A' for Active; 'I' for Inactive)
REMARK    1  A    between atoms: C3_3  and  O1_4 
REMARK    2  A    between atoms: O1_4  and  C4_5 
REMARK    3  A    between atoms: C7_8  and  N1_9 
REMARK    4  A    between atoms: N1_9  and  C8_10 
REMARK    5  A    between atoms: C15_20  and  O2_21 
ROOT
HETATM    1  C1  UNL     1      32.021   0.332  46.611  1.00  0.00     0.014 C 
HETATM    2  C2  UNL     1      32.557   1.242  47.198  1.00  0.00    -0.091 C 
HETATM    3  C3  UNL     1      33.221   2.387  47.905  1.00  0.00     0.268 C 
ENDROOT
BRANCH   3   4
HETATM    4  O1  UNL     1      32.706   3.554  47.619  1.00  0.00    -0.337 OA
BRANCH   4   5
HETATM    5  C4  UNL     1      32.215   4.674  47.298  1.00  0.00     0.104 A 
HETATM    6  C5  UNL     1      30.957   5.057  47.778  1.00  0.00     0.057 A 
HETATM    7  C6  UNL     1      30.383   6.269  47.455  1.00  0.00     0.042 A 
HETATM    8  C7  UNL     1      29.143   6.605  47.952  1.00  0.00     0.141 A 
HETATM    9  C13 UNL     1      31.101   7.104  46.629  1.00  0.00     0.075 A 
HETATM   10  N3  UNL     1      28.667   7.815  47.581  1.00  0.00    -0.224 NA
HETATM   11  C12 UNL     1      29.371   8.638  46.772  1.00  0.00     0.236 A 
HETATM   12  N4  UNL     1      30.580   8.284  46.298  1.00  0.00    -0.241 NA
HETATM   13  C14 UNL     1      32.345   6.799  46.117  1.00  0.00     0.072 A 
HETATM   14  C15 UNL     1      32.892   5.567  46.465  1.00  0.00     0.103 A 
BRANCH   8  15
HETATM   15  N1  UNL     1      28.391   5.751  48.802  1.00  0.00    -0.344 N 
HETATM   16  H5  UNL     1      29.105   5.441  49.520  1.00  0.00     0.167 HD
BRANCH  15  17
HETATM   17  C8  UNL     1      27.057   5.273  48.898  1.00  0.00     0.017 C 
HETATM   18  C9  UNL     1      26.901   3.828  49.220  1.00  0.00     0.069 C 
HETATM   19  C10 UNL     1      26.014   6.060  48.714  1.00  0.00     0.118 C 
HETATM   20  C11 UNL     1      24.706   5.488  48.834  1.00  0.00     0.089 C 
HETATM   21  N2  UNL     1      23.656   5.012  48.941  1.00  0.00    -0.192 NA
ENDBRANCH  15  17
ENDBRANCH   8  15
BRANCH  14  22
HETATM   22  O2  UNL     1      34.135   5.175  45.999  1.00  0.00    -0.353 OA
HETATM   23  C16 UNL     1      34.392   4.440  44.846  1.00  0.00     0.210 C 
ENDBRANCH  14  22
ENDBRANCH   4   5
ENDBRANCH   3   4
TORSDOF 5
ENDMDL
MODEL 9
REMARK VINA RESULT:      -6.3      3.047      5.609
REMARK  5 active torsions:
REMARK  status: ('A' for Active; 'I' for Inactive)
REMARK    1  A    between atoms: C3_3  and  O1_4 
REMARK    2  A    between atoms: O1_4  and  C4_5 
REMARK    3  A    between atoms: C7_8  and  N1_9 
REMARK    4  A    between atoms: N1_9  and  C8_10 
REMARK    5  A    between atoms: C15_20  and  O2_21 
ROOT
HETATM    1  C1  UNL     1      28.755   2.476  53.616  1.00  0.00     0.014 C 
HETATM    2  C2  UNL     1      28.261   1.389  53.427  1.00  0.00    -0.091 C 
HETATM    3  C3  UNL     1      27.629   0.046  53.212  1.00  0.00     0.268 C 
ENDROOT
BRANCH   3   4
HETATM    4  O1  UNL     1      26.324   0.079  53.163  1.00  0.00    -0.337 OA
BRANCH   4   5
HETATM    5  C4  UNL     1      25.063   0.155  53.116  1.00  0.00     0.104 A 
HETATM    6  C5  UNL     1      24.438   0.961  52.156  1.00  0.00     0.057 A 
HETATM    7  C6  UNL     1      23.066   1.074  52.068  1.00  0.00     0.042 A 
HETATM    8  C7  UNL     1      22.495   1.877  51.105  1.00  0.00     0.141 A 
HETATM    9  C13 UNL     1      22.317   0.356  52.974  1.00  0.00     0.075 A 
HETATM   10  N3  UNL     1      21.144   1.919  51.098  1.00  0.00    -0.224 NA
HETATM   11  C12 UNL     1      20.406   1.215  51.985  1.00  0.00     0.236 A 
HETATM   12  N4  UNL     1      20.990   0.439  52.917  1.00  0.00    -0.241 NA
HETATM   13  C14 UNL     1      22.857  -0.458  53.947  1.00  0.00     0.072 A 
HETATM   14  C15 UNL     1      24.245  -0.547  54.004  1.00  0.00     0.103 A 
BRANCH   8  15
HETATM   15  N1  UNL     1      23.257   2.624  50.169  1.00  0.00    -0.344 N 
HETATM   16  H5  UNL     1      23.207   2.031  49.293  1.00  0.00     0.167 HD
BRANCH  15  17
HETATM   17  C8  UNL     1      23.985   3.843  50.140  1.00  0.00     0.017 C 
HETATM   18  C9  UNL     1      25.264   3.825  49.376  1.00  0.00     0.069 C 
HETATM   19  C10 UNL     1      23.559   4.931  50.753  1.00  0.00     0.118 C 
HETATM   20  C11 UNL     1      24.362   6.115  50.666  1.00  0.00     0.089 C 
HETATM   21  N2  UNL     1      25.018   7.065  50.580  1.00  0.00    -0.192 NA
ENDBRANCH  15  17
ENDBRANCH   8  15
BRANCH  14  22
HETATM   22  O2  UNL     1      24.876  -1.339  54.948  1.00  0.00    -0.353 OA
HETATM   23  C16 UNL     1      25.122  -1.008  56.277  1.00  0.00     0.210 C 
ENDBRANCH  14  22
ENDBRANCH   4   5
ENDBRANCH   3   4
TORSDOF 5
ENDMDL
