MODEL 1
REMARK VINA RESULT:      -8.4      0.000      0.000
REMARK  1 active torsions:
REMARK  status: ('A' for Active; 'I' for Inactive)
REMARK    1  A    between atoms: C11_15  and  O3_16 
ROOT
HETATM    1  O1  UNL     1      24.647   2.659  53.775  1.00  0.00    -0.101 OA
HETATM    2  C1  UNL     1      23.912   2.244  52.954  1.00  0.00     0.398 A 
HETATM    3  N1  UNL     1      24.750   1.182  53.388  1.00  0.00     0.154 N 
HETATM    4  C2  UNL     1      25.859   0.731  54.194  1.00  0.00     0.392 C 
HETATM    5  C3  UNL     1      26.444  -0.281  53.146  1.00  0.00     0.038 C 
HETATM    6  C4  UNL     1      26.627   0.080  51.803  1.00  0.00     0.012 C 
HETATM    7  C5  UNL     1      26.600   1.501  51.493  1.00  0.00    -0.028 C 
HETATM    8  C6  UNL     1      27.474   2.288  52.218  1.00  0.00     0.011 C 
HETATM    9  C7  UNL     1      27.854   1.966  53.675  1.00  0.00     0.199 C 
HETATM   10  O2  UNL     1      26.808   1.647  54.499  1.00  0.00    -0.350 OA
HETATM   11  C8  UNL     1      26.114   2.707  50.814  1.00  0.00    -0.024 A 
HETATM   12  C9  UNL     1      26.700   3.597  49.979  1.00  0.00     0.039 A 
HETATM   13  C10 UNL     1      25.936   4.698  49.651  1.00  0.00     0.068 A 
HETATM   14 CL1  UNL     1      26.701   5.841  48.560  1.00  0.00    -0.081 Cl
HETATM   15  C11 UNL     1      24.662   5.031  50.057  1.00  0.00     0.095 A 
HETATM   16  C12 UNL     1      23.892   4.273  50.914  1.00  0.00    -0.003 A 
HETATM   17  C13 UNL     1      24.918   3.367  50.979  1.00  0.00     0.024 A 
HETATM   18  C14 UNL     1      22.745   3.924  51.845  1.00  0.00     0.188 C 
HETATM   19  N2  UNL     1      22.875   2.447  52.004  1.00  0.00    -0.240 N 
HETATM   20 CL2  UNL     1      22.466   0.824  51.691  1.00  0.00     0.017 Cl
HETATM   21  H1  UNL     1      24.240   0.424  52.819  1.00  0.00     0.334 HD
ENDROOT
BRANCH  15  22
HETATM   22  O3  UNL     1      23.820   6.080  49.797  1.00  0.00    -0.358 OA
HETATM   23  H9  UNL     1      23.030   5.937  49.182  1.00  0.00     0.217 HD
ENDBRANCH  15  22
TORSDOF 1
ENDMDL
MODEL 2
REMARK VINA RESULT:      -8.4      2.712      5.895
REMARK  1 active torsions:
REMARK  status: ('A' for Active; 'I' for Inactive)
REMARK    1  A    between atoms: C11_15  and  O3_16 
ROOT
HETATM    1  O1  UNL     1      24.791   2.558  53.489  1.00  0.00    -0.101 OA
HETATM    2  C1  UNL     1      25.300   1.595  53.040  1.00  0.00     0.398 A 
HETATM    3  N1  UNL     1      25.082   2.524  51.987  1.00  0.00     0.154 N 
HETATM    4  C2  UNL     1      24.542   3.786  51.542  1.00  0.00     0.392 C 
HETATM    5  C3  UNL     1      24.027   3.280  50.148  1.00  0.00     0.038 C 
HETATM    6  C4  UNL     1      23.287   2.095  50.027  1.00  0.00     0.012 C 
HETATM    7  C5  UNL     1      22.711   1.549  51.247  1.00  0.00    -0.028 C 
HETATM    8  C6  UNL     1      21.920   2.417  51.975  1.00  0.00     0.011 C 
HETATM    9  C7  UNL     1      22.193   3.932  52.026  1.00  0.00     0.199 C 
HETATM   10  O2  UNL     1      23.497   4.287  52.242  1.00  0.00    -0.350 OA
HETATM   11  C8  UNL     1      22.488   0.524  52.271  1.00  0.00    -0.024 A 
HETATM   12  C9  UNL     1      21.385  -0.137  52.692  1.00  0.00     0.039 A 
HETATM   13  C10 UNL     1      21.559  -0.947  53.794  1.00  0.00     0.068 A 
HETATM   14 CL1  UNL     1      20.124  -1.808  54.326  1.00  0.00    -0.081 Cl
HETATM   15  C11 UNL     1      22.696  -1.178  54.540  1.00  0.00     0.095 A 
HETATM   16  C12 UNL     1      23.922  -0.598  54.293  1.00  0.00    -0.003 A 
HETATM   17  C13 UNL     1      23.361   0.052  53.225  1.00  0.00     0.024 A 
HETATM   18  C14 UNL     1      25.361  -0.184  54.538  1.00  0.00     0.188 C 
HETATM   19  N2  UNL     1      25.815   0.280  53.195  1.00  0.00    -0.240 N 
HETATM   20 CL2  UNL     1      26.629   0.125  51.708  1.00  0.00     0.017 Cl
HETATM   21  H1  UNL     1      25.599   1.942  51.243  1.00  0.00     0.334 HD
ENDROOT
BRANCH  15  22
HETATM   22  O3  UNL     1      22.980  -1.951  55.634  1.00  0.00    -0.358 OA
HETATM   23  H9  UNL     1      22.615  -2.893  55.680  1.00  0.00     0.217 HD
ENDBRANCH  15  22
TORSDOF 1
ENDMDL
MODEL 3
REMARK VINA RESULT:      -8.0      2.605      4.747
REMARK  1 active torsions:
REMARK  status: ('A' for Active; 'I' for Inactive)
REMARK    1  A    between atoms: C11_15  and  O3_16 
ROOT
HETATM    1  O1  UNL     1      24.627   2.178  50.908  1.00  0.00    -0.101 OA
HETATM    2  C1  UNL     1      24.121   2.913  51.676  1.00  0.00     0.398 A 
HETATM    3  N1  UNL     1      25.506   2.820  51.984  1.00  0.00     0.154 N 
HETATM    4  C2  UNL     1      26.793   2.222  51.725  1.00  0.00     0.392 C 
HETATM    5  C3  UNL     1      27.256   2.134  53.223  1.00  0.00     0.038 C 
HETATM    6  C4  UNL     1      26.412   1.625  54.220  1.00  0.00     0.012 C 
HETATM    7  C5  UNL     1      25.254   0.861  53.779  1.00  0.00    -0.028 C 
HETATM    8  C6  UNL     1      25.524  -0.199  52.935  1.00  0.00     0.011 C 
HETATM    9  C7  UNL     1      26.685  -0.170  51.924  1.00  0.00     0.199 C 
HETATM   10  O2  UNL     1      26.796   0.979  51.188  1.00  0.00    -0.350 OA
HETATM   11  C8  UNL     1      23.825   0.553  53.672  1.00  0.00    -0.024 A 
HETATM   12  C9  UNL     1      23.078  -0.510  54.051  1.00  0.00     0.039 A 
HETATM   13  C10 UNL     1      21.760  -0.487  53.648  1.00  0.00     0.068 A 
HETATM   14 CL1  UNL     1      20.797  -1.865  54.153  1.00  0.00    -0.081 Cl
HETATM   15  C11 UNL     1      21.088   0.461  52.904  1.00  0.00     0.095 A 
HETATM   16  C12 UNL     1      21.662   1.613  52.407  1.00  0.00    -0.003 A 
HETATM   17  C13 UNL     1      22.844   1.233  52.987  1.00  0.00     0.024 A 
HETATM   18  C14 UNL     1      21.797   2.875  51.577  1.00  0.00     0.188 C 
HETATM   19  N2  UNL     1      22.969   3.563  52.193  1.00  0.00    -0.240 N 
HETATM   20 CL2  UNL     1      23.726   4.721  53.185  1.00  0.00     0.017 Cl
HETATM   21  H1  UNL     1      25.481   3.578  52.748  1.00  0.00     0.334 HD
ENDROOT
BRANCH  15  22
HETATM   22  O3  UNL     1      19.801   0.586  52.455  1.00  0.00    -0.358 OA
HETATM   23  H9  UNL     1      19.118  -0.113  52.714  1.00  0.00     0.217 HD
ENDBRANCH  15  22
TORSDOF 1
ENDMDL
MODEL 4
REMARK VINA RESULT:      -7.7      2.707      5.195
REMARK  1 active torsions:
REMARK  status: ('A' for Active; 'I' for Inactive)
REMARK    1  A    between atoms: C11_15  and  O3_16 
ROOT
HETATM    1  O1  UNL     1      22.470   1.037  50.888  1.00  0.00    -0.101 OA
HETATM    2  C1  UNL     1      22.034   0.924  51.975  1.00  0.00     0.398 A 
HETATM    3  N1  UNL     1      21.658   2.197  51.468  1.00  0.00     0.154 N 
HETATM    4  C2  UNL     1      21.735   3.181  50.415  1.00  0.00     0.392 C 
HETATM    5  C3  UNL     1      21.789   4.441  51.350  1.00  0.00     0.038 C 
HETATM    6  C4  UNL     1      22.651   4.497  52.455  1.00  0.00     0.012 C 
HETATM    7  C5  UNL     1      23.732   3.524  52.498  1.00  0.00    -0.028 C 
HETATM    8  C6  UNL     1      24.547   3.486  51.383  1.00  0.00     0.011 C 
HETATM    9  C7  UNL     1      24.018   3.782  49.968  1.00  0.00     0.199 C 
HETATM   10  O2  UNL     1      22.843   3.162  49.637  1.00  0.00    -0.350 OA
HETATM   11  C8  UNL     1      24.515   2.429  53.079  1.00  0.00    -0.024 A 
HETATM   12  C9  UNL     1      25.803   2.327  53.482  1.00  0.00     0.039 A 
HETATM   13  C10 UNL     1      26.212   1.065  53.858  1.00  0.00     0.068 A 
HETATM   14 CL1  UNL     1      27.881   0.945  54.388  1.00  0.00    -0.081 Cl
HETATM   15  C11 UNL     1      25.501  -0.116  53.878  1.00  0.00     0.095 A 
HETATM   16  C12 UNL     1      24.181  -0.238  53.497  1.00  0.00    -0.003 A 
HETATM   17  C13 UNL     1      24.167   1.106  53.234  1.00  0.00     0.024 A 
HETATM   18  C14 UNL     1      22.883  -0.922  53.109  1.00  0.00     0.188 C 
HETATM   19  N2  UNL     1      21.884   0.183  53.178  1.00  0.00    -0.240 N 
HETATM   20 CL2  UNL     1      20.626   1.078  53.898  1.00  0.00     0.017 Cl
HETATM   21  H1  UNL     1      21.030   2.448  52.305  1.00  0.00     0.334 HD
ENDROOT
BRANCH  15  22
HETATM   22  O3  UNL     1      25.800  -1.405  54.229  1.00  0.00    -0.358 OA
HETATM   23  H9  UNL     1      26.603  -1.583  54.818  1.00  0.00     0.217 HD
ENDBRANCH  15  22
TORSDOF 1
ENDMDL
MODEL 5
REMARK VINA RESULT:      -7.5      2.852      4.921
REMARK  1 active torsions:
REMARK  status: ('A' for Active; 'I' for Inactive)
REMARK    1  A    between atoms: C11_15  and  O3_16 
ROOT
HETATM    1  O1  UNL     1      22.171   3.866  51.519  1.00  0.00    -0.101 OA
HETATM    2  C1  UNL     1      22.655   3.510  50.506  1.00  0.00     0.398 A 
HETATM    3  N1  UNL     1      21.371   2.913  50.628  1.00  0.00     0.154 N 
HETATM    4  C2  UNL     1      20.181   2.687  51.412  1.00  0.00     0.392 C 
HETATM    5  C3  UNL     1      19.976   1.186  51.001  1.00  0.00     0.038 C 
HETATM    6  C4  UNL     1      21.038   0.270  51.022  1.00  0.00     0.012 C 
HETATM    7  C5  UNL     1      22.228   0.657  51.766  1.00  0.00    -0.028 C 
HETATM    8  C6  UNL     1      22.018   1.022  53.082  1.00  0.00     0.011 C 
HETATM    9  C7  UNL     1      20.727   1.724  53.544  1.00  0.00     0.199 C 
HETATM   10  O2  UNL     1      20.309   2.763  52.758  1.00  0.00    -0.350 OA
HETATM   11  C8  UNL     1      23.655   0.944  51.939  1.00  0.00    -0.024 A 
HETATM   12  C9  UNL     1      24.623   0.391  52.707  1.00  0.00     0.039 A 
HETATM   13  C10 UNL     1      25.839   1.040  52.691  1.00  0.00     0.068 A 
HETATM   14 CL1  UNL     1      27.090   0.309  53.683  1.00  0.00    -0.081 Cl
HETATM   15  C11 UNL     1      26.216   2.178  52.012  1.00  0.00     0.095 A 
HETATM   16  C12 UNL     1      25.384   2.905  51.185  1.00  0.00    -0.003 A 
HETATM   17  C13 UNL     1      24.388   2.002  51.452  1.00  0.00     0.024 A 
HETATM   18  C14 UNL     1      24.908   4.064  50.330  1.00  0.00     0.188 C 
HETATM   19  N2  UNL     1      23.745   3.489  49.595  1.00  0.00    -0.240 N 
HETATM   20 CL2  UNL     1      22.961   2.811  48.244  1.00  0.00     0.017 Cl
HETATM   21  H1  UNL     1      21.383   2.470  49.647  1.00  0.00     0.334 HD
ENDROOT
BRANCH  15  22
HETATM   22  O3  UNL     1      27.378   2.897  51.922  1.00  0.00    -0.358 OA
HETATM   23  H9  UNL     1      27.436   3.659  51.259  1.00  0.00     0.217 HD
ENDBRANCH  15  22
TORSDOF 1
ENDMDL
MODEL 6
REMARK VINA RESULT:      -7.4      2.408      5.813
REMARK  1 active torsions:
REMARK  status: ('A' for Active; 'I' for Inactive)
REMARK    1  A    between atoms: C11_15  and  O3_16 
ROOT
HETATM    1  O1  UNL     1      23.999   3.980  52.435  1.00  0.00    -0.101 OA
HETATM    2  C1  UNL     1      24.782   3.297  51.881  1.00  0.00     0.398 A 
HETATM    3  N1  UNL     1      24.032   4.007  50.905  1.00  0.00     0.154 N 
HETATM    4  C2  UNL     1      22.951   4.912  50.592  1.00  0.00     0.392 C 
HETATM    5  C3  UNL     1      22.477   4.180  49.286  1.00  0.00     0.038 C 
HETATM    6  C4  UNL     1      22.288   2.790  49.254  1.00  0.00     0.012 C 
HETATM    7  C5  UNL     1      22.196   2.107  50.536  1.00  0.00    -0.028 C 
HETATM    8  C6  UNL     1      21.244   2.598  51.408  1.00  0.00     0.011 C 
HETATM    9  C7  UNL     1      20.867   4.090  51.458  1.00  0.00     0.199 C 
HETATM   10  O2  UNL     1      21.921   4.964  51.468  1.00  0.00    -0.350 OA
HETATM   11  C8  UNL     1      22.587   1.125  51.552  1.00  0.00    -0.024 A 
HETATM   12  C9  UNL     1      21.942   0.084  52.128  1.00  0.00     0.039 A 
HETATM   13  C10 UNL     1      22.612  -0.533  53.162  1.00  0.00     0.068 A 
HETATM   14 CL1  UNL     1      21.771  -1.889  53.896  1.00  0.00    -0.081 Cl
HETATM   15  C11 UNL     1      23.845  -0.241  53.705  1.00  0.00     0.095 A 
HETATM   16  C12 UNL     1      24.662   0.785  53.278  1.00  0.00    -0.003 A 
HETATM   17  C13 UNL     1      23.718   1.099  52.335  1.00  0.00     0.024 A 
HETATM   18  C14 UNL     1      25.818   1.768  53.296  1.00  0.00     0.188 C 
HETATM   19  N2  UNL     1      25.814   2.322  51.912  1.00  0.00    -0.240 N 
HETATM   20 CL2  UNL     1      26.369   2.457  50.307  1.00  0.00     0.017 Cl
HETATM   21  H1  UNL     1      24.616   3.661  50.070  1.00  0.00     0.334 HD
ENDROOT
BRANCH  15  22
HETATM   22  O3  UNL     1      24.597  -0.780  54.715  1.00  0.00    -0.358 OA
HETATM   23  H9  UNL     1      25.584  -0.565  54.763  1.00  0.00     0.217 HD
ENDBRANCH  15  22
TORSDOF 1
ENDMDL
MODEL 7
REMARK VINA RESULT:      -7.3      2.620      3.443
REMARK  1 active torsions:
REMARK  status: ('A' for Active; 'I' for Inactive)
REMARK    1  A    between atoms: C11_15  and  O3_16 
ROOT
HETATM    1  O1  UNL     1      23.190   4.472  52.669  1.00  0.00    -0.101 OA
HETATM    2  C1  UNL     1      22.687   5.065  51.785  1.00  0.00     0.398 A 
HETATM    3  N1  UNL     1      22.079   3.783  51.873  1.00  0.00     0.154 N 
HETATM    4  C2  UNL     1      22.030   2.477  52.485  1.00  0.00     0.392 C 
HETATM    5  C3  UNL     1      21.698   1.677  51.175  1.00  0.00     0.038 C 
HETATM    6  C4  UNL     1      22.412   1.891  49.987  1.00  0.00     0.012 C 
HETATM    7  C5  UNL     1      23.678   2.599  50.096  1.00  0.00    -0.028 C 
HETATM    8  C6  UNL     1      24.586   2.066  50.991  1.00  0.00     0.011 C 
HETATM    9  C7  UNL     1      24.145   1.355  52.284  1.00  0.00     0.199 C 
HETATM   10  O2  UNL     1      23.183   2.002  53.012  1.00  0.00    -0.350 OA
HETATM   11  C8  UNL     1      24.632   3.674  49.804  1.00  0.00    -0.024 A 
HETATM   12  C9  UNL     1      25.863   3.689  49.242  1.00  0.00     0.039 A 
HETATM   13  C10 UNL     1      26.514   4.905  49.264  1.00  0.00     0.068 A 
HETATM   14 CL1  UNL     1      28.105   4.916  48.523  1.00  0.00    -0.081 Cl
HETATM   15  C11 UNL     1      26.096   6.111  49.784  1.00  0.00     0.095 A 
HETATM   16  C12 UNL     1      24.884   6.314  50.411  1.00  0.00    -0.003 A 
HETATM   17  C13 UNL     1      24.586   4.995  50.185  1.00  0.00     0.024 A 
HETATM   18  C14 UNL     1      23.824   7.019  51.235  1.00  0.00     0.188 C 
HETATM   19  N2  UNL     1      22.595   6.220  50.963  1.00  0.00    -0.240 N 
HETATM   20 CL2  UNL     1      21.100   5.904  50.210  1.00  0.00     0.017 Cl
HETATM   21  H1  UNL     1      21.331   3.985  51.126  1.00  0.00     0.334 HD
ENDROOT
BRANCH  15  22
HETATM   22  O3  UNL     1      26.649   7.362  49.858  1.00  0.00    -0.358 OA
HETATM   23  H9  UNL     1      26.470   8.025  49.115  1.00  0.00     0.217 HD
ENDBRANCH  15  22
TORSDOF 1
ENDMDL
MODEL 8
REMARK VINA RESULT:      -7.3     16.962     18.912
REMARK  1 active torsions:
REMARK  status: ('A' for Active; 'I' for Inactive)
REMARK    1  A    between atoms: C11_15  and  O3_16 
ROOT
HETATM    1  O1  UNL     1      45.033   6.161  53.669  1.00  0.00    -0.101 OA
HETATM    2  C1  UNL     1      44.865   7.223  54.147  1.00  0.00     0.398 A 
HETATM    3  N1  UNL     1      45.514   6.395  55.102  1.00  0.00     0.154 N 
HETATM    4  C2  UNL     1      46.026   5.096  55.470  1.00  0.00     0.392 C 
HETATM    5  C3  UNL     1      45.587   5.149  56.976  1.00  0.00     0.038 C 
HETATM    6  C4  UNL     1      44.294   5.547  57.348  1.00  0.00     0.012 C 
HETATM    7  C5  UNL     1      43.282   5.561  56.303  1.00  0.00    -0.028 C 
HETATM    8  C6  UNL     1      43.127   4.379  55.605  1.00  0.00     0.011 C 
HETATM    9  C7  UNL     1      44.305   3.426  55.332  1.00  0.00     0.199 C 
HETATM   10  O2  UNL     1      45.451   4.021  54.880  1.00  0.00    -0.350 OA
HETATM   11  C8  UNL     1      42.252   6.170  55.455  1.00  0.00    -0.024 A 
HETATM   12  C9  UNL     1      40.931   5.929  55.289  1.00  0.00     0.039 A 
HETATM   13  C10 UNL     1      40.319   6.640  54.278  1.00  0.00     0.068 A 
HETATM   14 CL1  UNL     1      38.603   6.328  54.077  1.00  0.00    -0.081 Cl
HETATM   15  C11 UNL     1      40.858   7.558  53.402  1.00  0.00     0.095 A 
HETATM   16  C12 UNL     1      42.184   7.939  53.389  1.00  0.00    -0.003 A 
HETATM   17  C13 UNL     1      42.402   7.092  54.444  1.00  0.00     0.024 A 
HETATM   18  C14 UNL     1      43.461   8.580  52.881  1.00  0.00     0.188 C 
HETATM   19  N2  UNL     1      44.355   8.547  54.075  1.00  0.00    -0.240 N 
HETATM   20 CL2  UNL     1      45.138   9.219  55.429  1.00  0.00     0.017 Cl
HETATM   21  H1  UNL     1      45.656   7.181  55.824  1.00  0.00     0.334 HD
ENDROOT
BRANCH  15  22
HETATM   22  O3  UNL     1      40.351   8.313  52.379  1.00  0.00    -0.358 OA
HETATM   23  H9  UNL     1      40.861   9.131  52.070  1.00  0.00     0.217 HD
ENDBRANCH  15  22
TORSDOF 1
ENDMDL
MODEL 9
REMARK VINA RESULT:      -7.3      5.002      8.226
REMARK  1 active torsions:
REMARK  status: ('A' for Active; 'I' for Inactive)
REMARK    1  A    between atoms: C11_15  and  O3_16 
ROOT
HETATM    1  O1  UNL     1      19.983   3.077  52.659  1.00  0.00    -0.101 OA
HETATM    2  C1  UNL     1      20.765   2.416  52.078  1.00  0.00     0.398 A 
HETATM    3  N1  UNL     1      20.012   3.163  51.131  1.00  0.00     0.154 N 
HETATM    4  C2  UNL     1      18.932   4.078  50.855  1.00  0.00     0.392 C 
HETATM    5  C3  UNL     1      18.454   3.396  49.524  1.00  0.00     0.038 C 
HETATM    6  C4  UNL     1      18.264   2.009  49.440  1.00  0.00     0.012 C 
HETATM    7  C5  UNL     1      18.175   1.278  50.695  1.00  0.00    -0.028 C 
HETATM    8  C6  UNL     1      17.225   1.735  51.587  1.00  0.00     0.011 C 
HETATM    9  C7  UNL     1      16.849   3.224  51.695  1.00  0.00     0.199 C 
HETATM   10  O2  UNL     1      17.903   4.097  51.735  1.00  0.00    -0.350 OA
HETATM   11  C8  UNL     1      18.569   0.258  51.672  1.00  0.00    -0.024 A 
HETATM   12  C9  UNL     1      17.925  -0.804  52.210  1.00  0.00     0.039 A 
HETATM   13  C10 UNL     1      18.598  -1.460  53.218  1.00  0.00     0.068 A 
HETATM   14 CL1  UNL     1      17.759  -2.843  53.902  1.00  0.00    -0.081 Cl
HETATM   15  C11 UNL     1      19.833  -1.189  53.769  1.00  0.00     0.095 A 
HETATM   16  C12 UNL     1      20.649  -0.147  53.379  1.00  0.00    -0.003 A 
HETATM   17  C13 UNL     1      19.702   0.202  52.451  1.00  0.00     0.024 A 
HETATM   18  C14 UNL     1      21.804   0.835  53.432  1.00  0.00     0.188 C 
HETATM   19  N2  UNL     1      21.797   1.441  52.069  1.00  0.00    -0.240 N 
HETATM   20 CL2  UNL     1      22.348   1.636  50.469  1.00  0.00     0.017 Cl
HETATM   21  H1  UNL     1      20.595   2.848  50.283  1.00  0.00     0.334 HD
ENDROOT
BRANCH  15  22
HETATM   22  O3  UNL     1      20.587  -1.765  54.756  1.00  0.00    -0.358 OA
HETATM   23  H9  UNL     1      21.411  -2.293  54.501  1.00  0.00     0.217 HD
ENDBRANCH  15  22
TORSDOF 1
ENDMDL
