MODEL 1
REMARK VINA RESULT:      -6.7      0.000      0.000
REMARK  5 active torsions:
REMARK  status: ('A' for Active; 'I' for Inactive)
REMARK    1  A    between atoms: O1_2  and  C2_3 
REMARK    2  A    between atoms: C2_3  and  C3_4 
REMARK    3  A    between atoms: C7_9  and  N1_10 
REMARK    4  A    between atoms: C8_11  and  C9_12 
REMARK    5  A    between atoms: C9_12  and  O3_13 
ROOT
HETATM    1  C3  UNL     1      25.747   0.811  53.483  1.00  0.00     0.209 C 
HETATM    2  O2  UNL     1      24.737   0.140  52.744  1.00  0.00    -0.349 OA
HETATM    3  C4  UNL     1      23.739  -0.549  53.445  1.00  0.00     0.132 C 
HETATM    4  C5  UNL     1      22.480  -0.759  53.118  1.00  0.00     0.003 C 
HETATM    5  C6  UNL     1      21.943  -0.229  51.842  1.00  0.00     0.091 C 
HETATM    6  C7  UNL     1      20.787   0.651  52.102  1.00  0.00     0.075 C 
HETATM    7  C10 UNL     1      20.642   1.941  51.859  1.00  0.00     0.128 C 
HETATM    8 CL1  UNL     1      19.588   3.335  51.957  1.00  0.00    -0.062 Cl
HETATM    9  N2  UNL     1      21.750   2.626  51.285  1.00  0.00    -0.355 N 
HETATM   10  C11 UNL     1      22.574   3.627  51.899  1.00  0.00     0.086 C 
HETATM   11  C12 UNL     1      23.655   3.950  52.587  1.00  0.00     0.003 C 
HETATM   12  C13 UNL     1      24.346   2.659  52.854  1.00  0.00     0.084 C 
HETATM   13  C14 UNL     1      25.488   2.301  53.497  1.00  0.00     0.111 C 
HETATM   14  F1  UNL     1      26.659   2.586  54.217  1.00  0.00    -0.212 F 
HETATM   15  H15 UNL     1      21.836   2.244  50.321  1.00  0.00     0.166 HD
ENDROOT
BRANCH   6  16
HETATM   16  N1  UNL     1      19.522   0.426  52.664  1.00  0.00    -0.264 NA
HETATM   17  C8  UNL     1      18.639  -0.417  52.200  1.00  0.00     0.115 C 
BRANCH  17  18
HETATM   18  C9  UNL     1      17.284  -0.670  52.784  1.00  0.00     0.210 C 
BRANCH  18  19
HETATM   19  O3  UNL     1      17.427  -1.293  54.019  1.00  0.00    -0.396 OA
HETATM   20  H14 UNL     1      16.534  -1.341  54.457  1.00  0.00     0.209 HD
ENDBRANCH  18  19
ENDBRANCH  17  18
ENDBRANCH   6  16
BRANCH   1  21
HETATM   21  C2  UNL     1      27.070   0.670  52.776  1.00  0.00     0.206 C 
BRANCH  21  22
HETATM   22  O1  UNL     1      27.775  -0.423  53.217  1.00  0.00    -0.393 OA
HETATM   23  C1  UNL     1      28.533  -0.161  54.329  1.00  0.00     0.201 C 
ENDBRANCH  21  22
ENDBRANCH   1  21
TORSDOF 5
ENDMDL
MODEL 2
REMARK VINA RESULT:      -6.4      3.478      6.864
REMARK  5 active torsions:
REMARK  status: ('A' for Active; 'I' for Inactive)
REMARK    1  A    between atoms: O1_2  and  C2_3 
REMARK    2  A    between atoms: C2_3  and  C3_4 
REMARK    3  A    between atoms: C7_9  and  N1_10 
REMARK    4  A    between atoms: C8_11  and  C9_12 
REMARK    5  A    between atoms: C9_12  and  O3_13 
ROOT
HETATM    1  C3  UNL     1      21.241   3.154  51.459  1.00  0.00     0.209 C 
HETATM    2  O2  UNL     1      22.473   2.497  51.200  1.00  0.00    -0.349 OA
HETATM    3  C4  UNL     1      23.648   3.045  51.730  1.00  0.00     0.132 C 
HETATM    4  C5  UNL     1      24.750   2.439  52.123  1.00  0.00     0.003 C 
HETATM    5  C6  UNL     1      24.862   0.964  52.034  1.00  0.00     0.091 C 
HETATM    6  C7  UNL     1      25.149   0.392  53.364  1.00  0.00     0.075 C 
HETATM    7  C10 UNL     1      24.425  -0.433  54.098  1.00  0.00     0.128 C 
HETATM    8 CL1  UNL     1      24.306  -1.333  55.594  1.00  0.00    -0.062 Cl
HETATM    9  N2  UNL     1      23.164  -0.836  53.575  1.00  0.00    -0.355 N 
HETATM   10  C11 UNL     1      21.862  -0.494  54.069  1.00  0.00     0.086 C 
HETATM   11  C12 UNL     1      20.805   0.300  54.046  1.00  0.00     0.003 C 
HETATM   12  C13 UNL     1      21.116   1.332  53.020  1.00  0.00     0.084 C 
HETATM   13  C14 UNL     1      20.461   2.412  52.522  1.00  0.00     0.111 C 
HETATM   14  F1  UNL     1      19.360   3.280  52.443  1.00  0.00    -0.212 F 
HETATM   15  H15 UNL     1      23.389  -1.435  52.753  1.00  0.00     0.166 HD
ENDROOT
BRANCH   6  16
HETATM   16  N1  UNL     1      26.229   0.527  54.249  1.00  0.00    -0.264 NA
HETATM   17  C8  UNL     1      27.455   0.157  53.992  1.00  0.00     0.115 C 
BRANCH  17  18
HETATM   18  C9  UNL     1      28.619   0.291  54.922  1.00  0.00     0.210 C 
BRANCH  18  19
HETATM   19  O3  UNL     1      29.081   1.602  54.892  1.00  0.00    -0.396 OA
HETATM   20  H14 UNL     1      28.791   2.062  55.726  1.00  0.00     0.209 HD
ENDBRANCH  18  19
ENDBRANCH  17  18
ENDBRANCH   6  16
BRANCH   1  21
HETATM   21  C2  UNL     1      20.362   3.083  50.236  1.00  0.00     0.206 C 
BRANCH  21  22
HETATM   22  O1  UNL     1      20.628   1.972  49.475  1.00  0.00    -0.393 OA
HETATM   23  C1  UNL     1      20.714   2.247  48.134  1.00  0.00     0.201 C 
ENDBRANCH  21  22
ENDBRANCH   1  21
TORSDOF 5
ENDMDL
MODEL 3
REMARK VINA RESULT:      -6.4      2.468      3.373
REMARK  5 active torsions:
REMARK  status: ('A' for Active; 'I' for Inactive)
REMARK    1  A    between atoms: O1_2  and  C2_3 
REMARK    2  A    between atoms: C2_3  and  C3_4 
REMARK    3  A    between atoms: C7_9  and  N1_10 
REMARK    4  A    between atoms: C8_11  and  C9_12 
REMARK    5  A    between atoms: C9_12  and  O3_13 
ROOT
HETATM    1  C3  UNL     1      24.951   0.797  52.802  1.00  0.00     0.209 C 
HETATM    2  O2  UNL     1      23.796   1.592  52.577  1.00  0.00    -0.349 OA
HETATM    3  C4  UNL     1      23.186   1.545  51.317  1.00  0.00     0.132 C 
HETATM    4  C5  UNL     1      21.916   1.691  50.997  1.00  0.00     0.003 C 
HETATM    5  C6  UNL     1      20.906   1.943  52.051  1.00  0.00     0.091 C 
HETATM    6  C7  UNL     1      19.861   0.900  52.017  1.00  0.00     0.075 C 
HETATM    7  C10 UNL     1      19.535   0.008  52.934  1.00  0.00     0.128 C 
HETATM    8 CL1  UNL     1      18.484  -1.324  53.366  1.00  0.00    -0.062 Cl
HETATM    9  N2  UNL     1      20.295   0.001  54.138  1.00  0.00    -0.355 N 
HETATM   10  C11 UNL     1      21.205  -1.010  54.593  1.00  0.00     0.086 C 
HETATM   11  C12 UNL     1      22.434  -1.489  54.665  1.00  0.00     0.003 C 
HETATM   12  C13 UNL     1      23.275  -0.517  53.914  1.00  0.00     0.084 C 
HETATM   13  C14 UNL     1      24.598  -0.425  53.621  1.00  0.00     0.111 C 
HETATM   14  F1  UNL     1      25.925  -0.878  53.677  1.00  0.00    -0.212 F 
HETATM   15  H15 UNL     1      20.048   0.890  54.620  1.00  0.00     0.166 HD
ENDROOT
BRANCH   6  16
HETATM   16  N1  UNL     1      18.915   0.527  51.052  1.00  0.00    -0.264 NA
HETATM   17  C8  UNL     1      17.887   1.250  50.696  1.00  0.00     0.115 C 
BRANCH  17  18
HETATM   18  C9  UNL     1      16.867   0.869  49.669  1.00  0.00     0.210 C 
BRANCH  18  19
HETATM   19  O3  UNL     1      17.033  -0.471  49.334  1.00  0.00    -0.396 OA
HETATM   20  H14 UNL     1      17.984  -0.722  49.488  1.00  0.00     0.209 HD
ENDBRANCH  18  19
ENDBRANCH  17  18
ENDBRANCH   6  16
BRANCH   1  21
HETATM   21  C2  UNL     1      25.927   1.554  53.666  1.00  0.00     0.206 C 
BRANCH  21  22
HETATM   22  O1  UNL     1      26.904   2.167  52.922  1.00  0.00    -0.393 OA
HETATM   23  C1  UNL     1      28.118   2.205  53.557  1.00  0.00     0.201 C 
ENDBRANCH  21  22
ENDBRANCH   1  21
TORSDOF 5
ENDMDL
MODEL 4
REMARK VINA RESULT:      -6.4      3.659      4.889
REMARK  5 active torsions:
REMARK  status: ('A' for Active; 'I' for Inactive)
REMARK    1  A    between atoms: O1_2  and  C2_3 
REMARK    2  A    between atoms: C2_3  and  C3_4 
REMARK    3  A    between atoms: C7_9  and  N1_10 
REMARK    4  A    between atoms: C8_11  and  C9_12 
REMARK    5  A    between atoms: C9_12  and  O3_13 
ROOT
HETATM    1  C3  UNL     1      25.477   4.516  49.322  1.00  0.00     0.209 C 
HETATM    2  O2  UNL     1      24.413   4.502  50.262  1.00  0.00    -0.349 OA
HETATM    3  C4  UNL     1      23.224   3.845  49.918  1.00  0.00     0.132 C 
HETATM    4  C5  UNL     1      22.361   3.218  50.691  1.00  0.00     0.003 C 
HETATM    5  C6  UNL     1      22.591   3.137  52.153  1.00  0.00     0.091 C 
HETATM    6  C7  UNL     1      22.631   1.726  52.586  1.00  0.00     0.075 C 
HETATM    7  C10 UNL     1      23.623   1.040  53.124  1.00  0.00     0.128 C 
HETATM    8 CL1  UNL     1      24.154  -0.501  53.763  1.00  0.00    -0.062 Cl
HETATM    9  N2  UNL     1      24.861   1.718  53.309  1.00  0.00    -0.355 N 
HETATM   10  C11 UNL     1      26.099   1.481  52.625  1.00  0.00     0.086 C 
HETATM   11  C12 UNL     1      26.924   1.757  51.629  1.00  0.00     0.003 C 
HETATM   12  C13 UNL     1      26.241   2.819  50.841  1.00  0.00     0.084 C 
HETATM   13  C14 UNL     1      26.547   3.524  49.722  1.00  0.00     0.111 C 
HETATM   14  F1  UNL     1      27.389   3.869  48.653  1.00  0.00    -0.212 F 
HETATM   15  H15 UNL     1      24.676   2.426  54.049  1.00  0.00     0.166 HD
ENDROOT
BRANCH   6  16
HETATM   16  N1  UNL     1      21.681   0.695  52.571  1.00  0.00    -0.264 NA
HETATM   17  C8  UNL     1      20.646   0.624  53.365  1.00  0.00     0.115 C 
BRANCH  17  18
HETATM   18  C9  UNL     1      19.622  -0.468  53.366  1.00  0.00     0.210 C 
BRANCH  18  19
HETATM   19  O3  UNL     1      20.035  -1.483  54.223  1.00  0.00    -0.396 OA
HETATM   20  H14 UNL     1      19.232  -1.980  54.539  1.00  0.00     0.209 HD
ENDBRANCH  18  19
ENDBRANCH  17  18
ENDBRANCH   6  16
BRANCH   1  21
HETATM   21  C2  UNL     1      26.173   5.852  49.366  1.00  0.00     0.206 C 
BRANCH  21  22
HETATM   22  O1  UNL     1      25.491   6.763  50.132  1.00  0.00    -0.393 OA
HETATM   23  C1  UNL     1      26.113   7.983  50.199  1.00  0.00     0.201 C 
ENDBRANCH  21  22
ENDBRANCH   1  21
TORSDOF 5
ENDMDL
MODEL 5
REMARK VINA RESULT:      -6.2      2.721      3.128
REMARK  5 active torsions:
REMARK  status: ('A' for Active; 'I' for Inactive)
REMARK    1  A    between atoms: O1_2  and  C2_3 
REMARK    2  A    between atoms: C2_3  and  C3_4 
REMARK    3  A    between atoms: C7_9  and  N1_10 
REMARK    4  A    between atoms: C8_11  and  C9_12 
REMARK    5  A    between atoms: C9_12  and  O3_13 
ROOT
HETATM    1  C3  UNL     1      26.472   1.189  52.973  1.00  0.00     0.209 C 
HETATM    2  O2  UNL     1      25.200   0.835  52.451  1.00  0.00    -0.349 OA
HETATM    3  C4  UNL     1      24.054   1.318  53.094  1.00  0.00     0.132 C 
HETATM    4  C5  UNL     1      22.876   1.624  52.588  1.00  0.00     0.003 C 
HETATM    5  C6  UNL     1      22.627   1.471  51.135  1.00  0.00     0.091 C 
HETATM    6  C7  UNL     1      22.206   2.760  50.551  1.00  0.00     0.075 C 
HETATM    7  C10 UNL     1      22.801   3.501  49.635  1.00  0.00     0.128 C 
HETATM    8 CL1  UNL     1      22.741   4.966  48.678  1.00  0.00    -0.062 Cl
HETATM    9  N2  UNL     1      24.047   3.036  49.126  1.00  0.00    -0.355 N 
HETATM   10  C11 UNL     1      25.344   3.616  49.321  1.00  0.00     0.086 C 
HETATM   11  C12 UNL     1      26.471   3.684  50.007  1.00  0.00     0.003 C 
HETATM   12  C13 UNL     1      26.325   2.683  51.098  1.00  0.00     0.084 C 
HETATM   13  C14 UNL     1      27.110   2.266  52.124  1.00  0.00     0.111 C 
HETATM   14  F1  UNL     1      28.293   2.284  52.880  1.00  0.00    -0.212 F 
HETATM   15  H15 UNL     1      23.815   2.180  48.580  1.00  0.00     0.166 HD
ENDROOT
BRANCH   6  16
HETATM   16  N1  UNL     1      21.093   3.586  50.762  1.00  0.00    -0.264 NA
HETATM   17  C8  UNL     1      19.849   3.196  50.686  1.00  0.00     0.115 C 
BRANCH  17  18
HETATM   18  C9  UNL     1      18.649   4.063  50.906  1.00  0.00     0.210 C 
BRANCH  18  19
HETATM   19  O3  UNL     1      17.965   3.619  52.033  1.00  0.00    -0.396 OA
HETATM   20  H14 UNL     1      18.535   2.959  52.513  1.00  0.00     0.209 HD
ENDBRANCH  18  19
ENDBRANCH  17  18
ENDBRANCH   6  16
BRANCH   1  21
HETATM   21  C2  UNL     1      27.412   0.017  52.856  1.00  0.00     0.206 C 
BRANCH  21  22
HETATM   22  O1  UNL     1      27.581  -0.629  54.056  1.00  0.00    -0.393 OA
HETATM   23  C1  UNL     1      28.520  -0.035  54.858  1.00  0.00     0.201 C 
ENDBRANCH  21  22
ENDBRANCH   1  21
TORSDOF 5
ENDMDL
MODEL 6
REMARK VINA RESULT:      -6.1      4.238      5.885
REMARK  5 active torsions:
REMARK  status: ('A' for Active; 'I' for Inactive)
REMARK    1  A    between atoms: O1_2  and  C2_3 
REMARK    2  A    between atoms: C2_3  and  C3_4 
REMARK    3  A    between atoms: C7_9  and  N1_10 
REMARK    4  A    between atoms: C8_11  and  C9_12 
REMARK    5  A    between atoms: C9_12  and  O3_13 
ROOT
HETATM    1  C3  UNL     1      23.275   5.898  49.569  1.00  0.00     0.209 C 
HETATM    2  O2  UNL     1      23.131   5.359  50.875  1.00  0.00    -0.349 OA
HETATM    3  C4  UNL     1      22.189   4.343  51.080  1.00  0.00     0.132 C 
HETATM    4  C5  UNL     1      22.211   3.342  51.936  1.00  0.00     0.003 C 
HETATM    5  C6  UNL     1      23.358   3.176  52.860  1.00  0.00     0.091 C 
HETATM    6  C7  UNL     1      23.975   1.848  52.675  1.00  0.00     0.075 C 
HETATM    7  C10 UNL     1      25.192   1.537  52.268  1.00  0.00     0.128 C 
HETATM    8 CL1  UNL     1      26.327   0.254  51.908  1.00  0.00    -0.062 Cl
HETATM    9  N2  UNL     1      26.061   2.612  51.923  1.00  0.00    -0.355 N 
HETATM   10  C11 UNL     1      26.553   2.956  50.621  1.00  0.00     0.086 C 
HETATM   11  C12 UNL     1      26.432   3.648  49.502  1.00  0.00     0.003 C 
HETATM   12  C13 UNL     1      25.192   4.453  49.674  1.00  0.00     0.084 C 
HETATM   13  C14 UNL     1      24.523   5.354  48.909  1.00  0.00     0.111 C 
HETATM   14  F1  UNL     1      24.351   6.126  47.749  1.00  0.00    -0.212 F 
HETATM   15  H15 UNL     1      26.263   3.097  52.822  1.00  0.00     0.166 HD
ENDROOT
BRANCH   6  16
HETATM   16  N1  UNL     1      23.503   0.541  52.859  1.00  0.00    -0.264 NA
HETATM   17  C8  UNL     1      22.761   0.150  53.860  1.00  0.00     0.115 C 
BRANCH  17  18
HETATM   18  C9  UNL     1      22.248  -1.240  54.074  1.00  0.00     0.210 C 
BRANCH  18  19
HETATM   19  O3  UNL     1      21.196  -1.204  54.984  1.00  0.00    -0.396 OA
HETATM   20  H14 UNL     1      21.277  -1.986  55.595  1.00  0.00     0.209 HD
ENDBRANCH  18  19
ENDBRANCH  17  18
ENDBRANCH   6  16
BRANCH   1  21
HETATM   21  C2  UNL     1      23.519   7.383  49.658  1.00  0.00     0.206 C 
BRANCH  21  22
HETATM   22  O1  UNL     1      24.494   7.691  50.574  1.00  0.00    -0.393 OA
HETATM   23  C1  UNL     1      25.339   8.681  50.146  1.00  0.00     0.201 C 
ENDBRANCH  21  22
ENDBRANCH   1  21
TORSDOF 5
ENDMDL
MODEL 7
REMARK VINA RESULT:      -6.1      2.687      4.080
REMARK  5 active torsions:
REMARK  status: ('A' for Active; 'I' for Inactive)
REMARK    1  A    between atoms: O1_2  and  C2_3 
REMARK    2  A    between atoms: C2_3  and  C3_4 
REMARK    3  A    between atoms: C7_9  and  N1_10 
REMARK    4  A    between atoms: C8_11  and  C9_12 
REMARK    5  A    between atoms: C9_12  and  O3_13 
ROOT
HETATM    1  C3  UNL     1      26.157   0.564  53.388  1.00  0.00     0.209 C 
HETATM    2  O2  UNL     1      25.417   1.775  53.412  1.00  0.00    -0.349 OA
HETATM    3  C4  UNL     1      25.334   2.533  52.237  1.00  0.00     0.132 C 
HETATM    4  C5  UNL     1      24.361   3.313  51.811  1.00  0.00     0.003 C 
HETATM    5  C6  UNL     1      23.130   3.478  52.620  1.00  0.00     0.091 C 
HETATM    6  C7  UNL     1      21.945   3.088  51.831  1.00  0.00     0.075 C 
HETATM    7  C10 UNL     1      21.081   2.111  52.039  1.00  0.00     0.128 C 
HETATM    8 CL1  UNL     1      19.641   1.290  51.476  1.00  0.00    -0.062 Cl
HETATM    9  N2  UNL     1      21.304   1.272  53.168  1.00  0.00    -0.355 N 
HETATM   10  C11 UNL     1      21.685  -0.111  53.170  1.00  0.00     0.086 C 
HETATM   11  C12 UNL     1      22.630  -1.034  53.204  1.00  0.00     0.003 C 
HETATM   12  C13 UNL     1      23.910  -0.278  53.272  1.00  0.00     0.084 C 
HETATM   13  C14 UNL     1      25.222  -0.624  53.333  1.00  0.00     0.111 C 
HETATM   14  F1  UNL     1      26.267  -1.560  53.388  1.00  0.00    -0.212 F 
HETATM   15  H15 UNL     1      21.132   1.879  53.996  1.00  0.00     0.166 HD
ENDROOT
BRANCH   6  16
HETATM   16  N1  UNL     1      21.369   3.595  50.658  1.00  0.00    -0.264 NA
HETATM   17  C8  UNL     1      20.614   4.659  50.597  1.00  0.00     0.115 C 
BRANCH  17  18
HETATM   18  C9  UNL     1      19.989   5.216  49.356  1.00  0.00     0.210 C 
BRANCH  18  19
HETATM   19  O3  UNL     1      19.602   6.531  49.589  1.00  0.00    -0.396 OA
HETATM   20  H14 UNL     1      19.111   6.865  48.789  1.00  0.00     0.209 HD
ENDBRANCH  18  19
ENDBRANCH  17  18
ENDBRANCH   6  16
BRANCH   1  21
HETATM   21  C2  UNL     1      26.896   0.395  54.690  1.00  0.00     0.206 C 
BRANCH  21  22
HETATM   22  O1  UNL     1      28.054   1.132  54.724  1.00  0.00    -0.393 OA
HETATM   23  C1  UNL     1      29.001   0.687  53.839  1.00  0.00     0.201 C 
ENDBRANCH  21  22
ENDBRANCH   1  21
TORSDOF 5
ENDMDL
MODEL 8
REMARK VINA RESULT:      -6.1      3.473      6.751
REMARK  5 active torsions:
REMARK  status: ('A' for Active; 'I' for Inactive)
REMARK    1  A    between atoms: O1_2  and  C2_3 
REMARK    2  A    between atoms: C2_3  and  C3_4 
REMARK    3  A    between atoms: C7_9  and  N1_10 
REMARK    4  A    between atoms: C8_11  and  C9_12 
REMARK    5  A    between atoms: C9_12  and  O3_13 
ROOT
HETATM    1  C3  UNL     1      20.774   0.452  53.580  1.00  0.00     0.209 C 
HETATM    2  O2  UNL     1      21.126   1.087  52.360  1.00  0.00    -0.349 OA
HETATM    3  C4  UNL     1      21.196   2.485  52.328  1.00  0.00     0.132 C 
HETATM    4  C5  UNL     1      21.969   3.268  51.603  1.00  0.00     0.003 C 
HETATM    5  C6  UNL     1      22.943   2.682  50.653  1.00  0.00     0.091 C 
HETATM    6  C7  UNL     1      24.308   3.142  50.972  1.00  0.00     0.075 C 
HETATM    7  C10 UNL     1      25.362   2.445  51.356  1.00  0.00     0.128 C 
HETATM    8 CL1  UNL     1      27.050   2.486  51.818  1.00  0.00    -0.062 Cl
HETATM    9  N2  UNL     1      25.191   1.041  51.522  1.00  0.00    -0.355 N 
HETATM   10  C11 UNL     1      25.221   0.294  52.746  1.00  0.00     0.086 C 
HETATM   11  C12 UNL     1      24.584  -0.236  53.775  1.00  0.00     0.003 C 
HETATM   12  C13 UNL     1      23.151   0.107  53.563  1.00  0.00     0.084 C 
HETATM   13  C14 UNL     1      22.000  -0.136  54.242  1.00  0.00     0.111 C 
HETATM   14  F1  UNL     1      21.268  -0.691  55.304  1.00  0.00    -0.212 F 
HETATM   15  H15 UNL     1      25.038   0.670  50.561  1.00  0.00     0.166 HD
ENDROOT
BRANCH   6  16
HETATM   16  N1  UNL     1      24.914   4.407  50.976  1.00  0.00    -0.264 NA
HETATM   17  C8  UNL     1      24.929   5.229  49.961  1.00  0.00     0.115 C 
BRANCH  17  18
HETATM   18  C9  UNL     1      25.570   6.582  49.944  1.00  0.00     0.210 C 
BRANCH  18  19
HETATM   19  O3  UNL     1      25.326   7.219  51.156  1.00  0.00    -0.396 OA
HETATM   20  H14 UNL     1      24.720   7.992  50.993  1.00  0.00     0.209 HD
ENDBRANCH  18  19
ENDBRANCH  17  18
ENDBRANCH   6  16
BRANCH   1  21
HETATM   21  C2  UNL     1      19.896  -0.740  53.296  1.00  0.00     0.206 C 
BRANCH  21  22
HETATM   22  O1  UNL     1      18.866  -0.429  52.444  1.00  0.00    -0.393 OA
HETATM   23  C1  UNL     1      17.663  -0.952  52.842  1.00  0.00     0.201 C 
ENDBRANCH  21  22
ENDBRANCH   1  21
TORSDOF 5
ENDMDL
MODEL 9
REMARK VINA RESULT:      -5.9      5.224      6.828
REMARK  5 active torsions:
REMARK  status: ('A' for Active; 'I' for Inactive)
REMARK    1  A    between atoms: O1_2  and  C2_3 
REMARK    2  A    between atoms: C2_3  and  C3_4 
REMARK    3  A    between atoms: C7_9  and  N1_10 
REMARK    4  A    between atoms: C8_11  and  C9_12 
REMARK    5  A    between atoms: C9_12  and  O3_13 
ROOT
HETATM    1  C3  UNL     1      26.130   7.788  49.079  1.00  0.00     0.209 C 
HETATM    2  O2  UNL     1      25.316   7.528  50.214  1.00  0.00    -0.349 OA
HETATM    3  C4  UNL     1      23.929   7.447  50.039  1.00  0.00     0.132 C 
HETATM    4  C5  UNL     1      23.043   6.727  50.697  1.00  0.00     0.003 C 
HETATM    5  C6  UNL     1      23.477   5.838  51.800  1.00  0.00     0.091 C 
HETATM    6  C7  UNL     1      23.067   4.446  51.526  1.00  0.00     0.075 C 
HETATM    7  C10 UNL     1      23.812   3.373  51.338  1.00  0.00     0.128 C 
HETATM    8 CL1  UNL     1      23.837   1.653  51.012  1.00  0.00    -0.062 Cl
HETATM    9  N2  UNL     1      25.225   3.543  51.373  1.00  0.00    -0.355 N 
HETATM   10  C11 UNL     1      26.149   3.423  50.282  1.00  0.00     0.086 C 
HETATM   11  C12 UNL     1      26.830   3.981  49.297  1.00  0.00     0.003 C 
HETATM   12  C13 UNL     1      26.462   5.423  49.339  1.00  0.00     0.084 C 
HETATM   13  C14 UNL     1      26.808   6.519  48.615  1.00  0.00     0.111 C 
HETATM   14  F1  UNL     1      27.519   7.169  47.594  1.00  0.00    -0.212 F 
HETATM   15  H15 UNL     1      25.446   3.776  52.363  1.00  0.00     0.166 HD
ENDROOT
BRANCH   6  16
HETATM   16  N1  UNL     1      21.816   3.830  51.380  1.00  0.00    -0.264 NA
HETATM   17  C8  UNL     1      21.110   3.333  52.360  1.00  0.00     0.115 C 
BRANCH  17  18
HETATM   18  C9  UNL     1      19.775   2.671  52.225  1.00  0.00     0.210 C 
BRANCH  18  19
HETATM   19  O3  UNL     1      18.795   3.646  52.065  1.00  0.00    -0.396 OA
HETATM   20  H14 UNL     1      19.209   4.540  52.208  1.00  0.00     0.209 HD
ENDBRANCH  18  19
ENDBRANCH  17  18
ENDBRANCH   6  16
BRANCH   1  21
HETATM   21  C2  UNL     1      27.267   8.697  49.469  1.00  0.00     0.206 C 
BRANCH  21  22
HETATM   22  O1  UNL     1      26.836   9.970  49.748  1.00  0.00    -0.393 OA
HETATM   23  C1  UNL     1      26.278  10.599  48.665  1.00  0.00     0.201 C 
ENDBRANCH  21  22
ENDBRANCH   1  21
TORSDOF 5
ENDMDL
