MODEL 1
REMARK VINA RESULT:      -8.8      0.000      0.000
REMARK  4 active torsions:
REMARK  status: ('A' for Active; 'I' for Inactive)
REMARK    1  A    between atoms: O1_1  and  C1_2 
REMARK    2  A    between atoms: C4_5  and  C5_6 
REMARK    3  A    between atoms: N2_18  and  C15_19 
REMARK    4  A    between atoms: C16_21  and  O2_22 
ROOT
HETATM    1  C5  UNL     1      24.388   1.997  52.933  1.00  0.00     0.146 C 
HETATM    2  C6  UNL     1      24.812   3.142  52.068  1.00  0.00     0.038 C 
HETATM    3  C7  UNL     1      24.494   2.948  50.600  1.00  0.00     0.064 C 
HETATM    4  C8  UNL     1      23.101   2.463  50.424  1.00  0.00     0.065 C 
HETATM    5  C9  UNL     1      22.331   2.797  49.247  1.00  0.00    -0.010 A 
HETATM    6  C10 UNL     1      21.042   2.321  49.133  1.00  0.00     0.015 A 
HETATM    7  C11 UNL     1      20.218   2.585  48.041  1.00  0.00     0.024 A 
HETATM    8  C12 UNL     1      20.725   3.360  47.028  1.00  0.00     0.034 A 
HETATM    9 CL1  UNL     1      19.737   3.724  45.633  1.00  0.00    -0.084 Cl
HETATM   10  C13 UNL     1      22.019   3.848  47.124  1.00  0.00     0.024 A 
HETATM   11  C14 UNL     1      22.828   3.576  48.221  1.00  0.00     0.015 A 
HETATM   12  N1  UNL     1      22.548   1.729  51.328  1.00  0.00    -0.173 NA
HETATM   13  N2  UNL     1      23.192   1.342  52.507  1.00  0.00    -0.237 N 
ENDROOT
BRANCH   1  14
HETATM   14  C4  UNL     1      25.538   1.040  53.093  1.00  0.00    -0.033 A 
HETATM   15  C3  UNL     1      25.902   0.115  52.136  1.00  0.00     0.012 A 
HETATM   16  C2  UNL     1      26.980  -0.734  52.365  1.00  0.00     0.037 A 
HETATM   17  C1  UNL     1      27.706  -0.672  53.543  1.00  0.00     0.065 A 
HETATM   18  C19 UNL     1      27.373   0.230  54.509  1.00  0.00     0.037 A 
HETATM   19  C18 UNL     1      26.311   1.042  54.244  1.00  0.00     0.012 A 
BRANCH  17  20
HETATM   20  O1  UNL     1      28.770  -1.546  53.708  1.00  0.00    -0.361 OA
HETATM   21  H1  UNL     1      29.237  -1.890  52.895  1.00  0.00     0.217 HD
ENDBRANCH  17  20
ENDBRANCH   1  14
BRANCH  13  22
HETATM   22  C15 UNL     1      22.712   0.287  53.351  1.00  0.00     0.192 A 
HETATM   23  N3  UNL     1      23.243  -0.335  54.328  1.00  0.00    -0.198 NA
HETATM   24  C16 UNL     1      22.530  -1.287  54.926  1.00  0.00     0.171 A 
HETATM   25  C17 UNL     1      21.191  -1.621  54.497  1.00  0.00     0.111 A 
HETATM   26  S1  UNL     1      21.056  -0.376  53.087  1.00  0.00    -0.058 SA
BRANCH  24  27
HETATM   27  O2  UNL     1      23.265  -1.872  55.982  1.00  0.00    -0.344 OA
HETATM   28  H13 UNL     1      22.835  -2.407  56.712  1.00  0.00     0.219 HD
ENDBRANCH  24  27
ENDBRANCH  13  22
TORSDOF 4
ENDMDL
MODEL 2
REMARK VINA RESULT:      -8.8      4.709      7.896
REMARK  4 active torsions:
REMARK  status: ('A' for Active; 'I' for Inactive)
REMARK    1  A    between atoms: O1_1  and  C1_2 
REMARK    2  A    between atoms: C4_5  and  C5_6 
REMARK    3  A    between atoms: N2_18  and  C15_19 
REMARK    4  A    between atoms: C16_21  and  O2_22 
ROOT
HETATM    1  C5  UNL     1      22.657   2.903  51.989  1.00  0.00     0.146 C 
HETATM    2  C6  UNL     1      22.578   1.591  52.706  1.00  0.00     0.038 C 
HETATM    3  C7  UNL     1      23.693   0.632  52.349  1.00  0.00     0.064 C 
HETATM    4  C8  UNL     1      25.008   1.323  52.373  1.00  0.00     0.065 C 
HETATM    5  C9  UNL     1      26.222   0.619  52.718  1.00  0.00    -0.010 A 
HETATM    6  C10 UNL     1      27.417   1.309  52.726  1.00  0.00     0.015 A 
HETATM    7  C11 UNL     1      28.641   0.723  53.044  1.00  0.00     0.024 A 
HETATM    8  C12 UNL     1      28.649  -0.612  53.364  1.00  0.00     0.034 A 
HETATM    9 CL1  UNL     1      30.155  -1.399  53.771  1.00  0.00    -0.084 Cl
HETATM   10  C13 UNL     1      27.458  -1.321  53.361  1.00  0.00     0.024 A 
HETATM   11  C14 UNL     1      26.245  -0.722  53.042  1.00  0.00     0.015 A 
HETATM   12  N1  UNL     1      25.090   2.577  52.086  1.00  0.00    -0.173 NA
HETATM   13  N2  UNL     1      23.986   3.362  51.738  1.00  0.00    -0.237 N 
ENDROOT
BRANCH   1  14
HETATM   14  C4  UNL     1      21.828   2.837  50.735  1.00  0.00    -0.033 A 
HETATM   15  C3  UNL     1      20.738   3.648  50.495  1.00  0.00     0.012 A 
HETATM   16  C2  UNL     1      20.026   3.522  49.307  1.00  0.00     0.037 A 
HETATM   17  C1  UNL     1      20.388   2.592  48.347  1.00  0.00     0.065 A 
HETATM   18  C19 UNL     1      21.460   1.775  48.552  1.00  0.00     0.037 A 
HETATM   19  C18 UNL     1      22.129   1.932  49.729  1.00  0.00     0.012 A 
BRANCH  17  20
HETATM   20  O1  UNL     1      19.636   2.518  47.184  1.00  0.00    -0.361 OA
HETATM   21  H1  UNL     1      18.735   2.946  47.169  1.00  0.00     0.217 HD
ENDBRANCH  17  20
ENDBRANCH   1  14
BRANCH  13  22
HETATM   22  C15 UNL     1      24.105   4.650  51.119  1.00  0.00     0.192 A 
HETATM   23  N3  UNL     1      23.907   5.830  51.556  1.00  0.00    -0.198 NA
HETATM   24  C16 UNL     1      24.107   6.848  50.722  1.00  0.00     0.171 A 
HETATM   25  C17 UNL     1      24.537   6.644  49.357  1.00  0.00     0.111 A 
HETATM   26  S1  UNL     1      24.627   4.761  49.396  1.00  0.00    -0.058 SA
BRANCH  24  27
HETATM   27  O2  UNL     1      23.842   8.079  51.365  1.00  0.00    -0.344 OA
HETATM   28  H13 UNL     1      23.048   8.649  51.141  1.00  0.00     0.219 HD
ENDBRANCH  24  27
ENDBRANCH  13  22
TORSDOF 4
ENDMDL
MODEL 3
REMARK VINA RESULT:      -8.5      5.057      7.470
REMARK  4 active torsions:
REMARK  status: ('A' for Active; 'I' for Inactive)
REMARK    1  A    between atoms: O1_1  and  C1_2 
REMARK    2  A    between atoms: C4_5  and  C5_6 
REMARK    3  A    between atoms: N2_18  and  C15_19 
REMARK    4  A    between atoms: C16_21  and  O2_22 
ROOT
HETATM    1  C5  UNL     1      25.193   4.168  49.202  1.00  0.00     0.146 C 
HETATM    2  C6  UNL     1      26.111   3.234  49.927  1.00  0.00     0.038 C 
HETATM    3  C7  UNL     1      25.565   2.749  51.254  1.00  0.00     0.064 C 
HETATM    4  C8  UNL     1      24.152   2.314  51.113  1.00  0.00     0.065 C 
HETATM    5  C9  UNL     1      23.602   1.264  51.940  1.00  0.00    -0.010 A 
HETATM    6  C10 UNL     1      22.282   0.898  51.768  1.00  0.00     0.015 A 
HETATM    7  C11 UNL     1      21.658  -0.099  52.514  1.00  0.00     0.024 A 
HETATM    8  C12 UNL     1      22.401  -0.747  53.469  1.00  0.00     0.034 A 
HETATM    9 CL1  UNL     1      21.670  -2.007  54.434  1.00  0.00    -0.084 Cl
HETATM   10  C13 UNL     1      23.728  -0.393  53.657  1.00  0.00     0.024 A 
HETATM   11  C14 UNL     1      24.337   0.605  52.904  1.00  0.00     0.015 A 
HETATM   12  N1  UNL     1      23.384   2.869  50.239  1.00  0.00    -0.173 NA
HETATM   13  N2  UNL     1      23.803   3.893  49.384  1.00  0.00    -0.237 N 
ENDROOT
BRANCH   1  14
HETATM   14  C4  UNL     1      25.546   5.587  49.554  1.00  0.00    -0.033 A 
HETATM   15  C3  UNL     1      24.921   6.305  50.553  1.00  0.00     0.012 A 
HETATM   16  C2  UNL     1      25.310   7.616  50.813  1.00  0.00     0.037 A 
HETATM   17  C1  UNL     1      26.319   8.224  50.087  1.00  0.00     0.065 A 
HETATM   18  C19 UNL     1      26.957   7.542  49.093  1.00  0.00     0.037 A 
HETATM   19  C18 UNL     1      26.545   6.262  48.871  1.00  0.00     0.012 A 
BRANCH  17  20
HETATM   20  O1  UNL     1      26.659   9.532  50.397  1.00  0.00    -0.361 OA
HETATM   21  H1  UNL     1      26.889  10.156  49.652  1.00  0.00     0.217 HD
ENDBRANCH  17  20
ENDBRANCH   1  14
BRANCH  13  22
HETATM   22  C15 UNL     1      22.893   4.719  48.646  1.00  0.00     0.192 A 
HETATM   23  N3  UNL     1      22.906   5.147  47.446  1.00  0.00    -0.198 NA
HETATM   24  C16 UNL     1      21.894   5.912  47.043  1.00  0.00     0.171 A 
HETATM   25  C17 UNL     1      20.803   6.261  47.924  1.00  0.00     0.111 A 
HETATM   26  S1  UNL     1      21.404   5.338  49.454  1.00  0.00    -0.058 SA
BRANCH  24  27
HETATM   27  O2  UNL     1      22.067   6.298  45.694  1.00  0.00    -0.344 OA
HETATM   28  H13 UNL     1      21.872   7.224  45.365  1.00  0.00     0.219 HD
ENDBRANCH  24  27
ENDBRANCH  13  22
TORSDOF 4
ENDMDL
MODEL 4
REMARK VINA RESULT:      -8.4      8.988     10.742
REMARK  4 active torsions:
REMARK  status: ('A' for Active; 'I' for Inactive)
REMARK    1  A    between atoms: O1_1  and  C1_2 
REMARK    2  A    between atoms: C4_5  and  C5_6 
REMARK    3  A    between atoms: N2_18  and  C15_19 
REMARK    4  A    between atoms: C16_21  and  O2_22 
ROOT
HETATM    1  C5  UNL     1      31.454   7.076  47.812  1.00  0.00     0.146 C 
HETATM    2  C6  UNL     1      30.360   8.054  48.108  1.00  0.00     0.038 C 
HETATM    3  C7  UNL     1      28.982   7.563  47.719  1.00  0.00     0.064 C 
HETATM    4  C8  UNL     1      28.770   6.169  48.186  1.00  0.00     0.065 C 
HETATM    5  C9  UNL     1      27.455   5.688  48.548  1.00  0.00    -0.010 A 
HETATM    6  C10 UNL     1      27.314   4.384  48.975  1.00  0.00     0.015 A 
HETATM    7  C11 UNL     1      26.093   3.825  49.346  1.00  0.00     0.024 A 
HETATM    8  C12 UNL     1      24.976   4.621  49.278  1.00  0.00     0.034 A 
HETATM    9 CL1  UNL     1      23.417   3.973  49.731  1.00  0.00    -0.084 Cl
HETATM   10  C13 UNL     1      25.099   5.934  48.851  1.00  0.00     0.024 A 
HETATM   11  C14 UNL     1      26.325   6.477  48.485  1.00  0.00     0.015 A 
HETATM   12  N1  UNL     1      29.765   5.355  48.279  1.00  0.00    -0.173 NA
HETATM   13  N2  UNL     1      31.080   5.705  47.957  1.00  0.00    -0.237 N 
ENDROOT
BRANCH   1  14
HETATM   14  C4  UNL     1      32.033   7.370  46.455  1.00  0.00    -0.033 A 
HETATM   15  C3  UNL     1      31.327   7.234  45.277  1.00  0.00     0.012 A 
HETATM   16  C2  UNL     1      31.940   7.528  44.063  1.00  0.00     0.037 A 
HETATM   17  C1  UNL     1      33.255   7.958  44.006  1.00  0.00     0.065 A 
HETATM   18  C19 UNL     1      33.981   8.102  45.152  1.00  0.00     0.037 A 
HETATM   19  C18 UNL     1      33.342   7.804  46.318  1.00  0.00     0.012 A 
BRANCH  17  20
HETATM   20  O1  UNL     1      33.806   8.234  42.764  1.00  0.00    -0.361 OA
HETATM   21  H1  UNL     1      33.546   7.662  41.987  1.00  0.00     0.217 HD
ENDBRANCH  17  20
ENDBRANCH   1  14
BRANCH  13  22
HETATM   22  C15 UNL     1      32.120   4.739  47.755  1.00  0.00     0.192 A 
HETATM   23  N3  UNL     1      33.258   4.580  48.305  1.00  0.00    -0.198 NA
HETATM   24  C16 UNL     1      34.017   3.567  47.893  1.00  0.00     0.171 A 
HETATM   25  C17 UNL     1      33.582   2.661  46.854  1.00  0.00     0.111 A 
HETATM   26  S1  UNL     1      31.902   3.448  46.515  1.00  0.00    -0.058 SA
BRANCH  24  27
HETATM   27  O2  UNL     1      35.238   3.537  48.604  1.00  0.00    -0.344 OA
HETATM   28  H13 UNL     1      35.769   2.697  48.737  1.00  0.00     0.219 HD
ENDBRANCH  24  27
ENDBRANCH  13  22
TORSDOF 4
ENDMDL
MODEL 5
REMARK VINA RESULT:      -8.2      4.572      7.772
REMARK  4 active torsions:
REMARK  status: ('A' for Active; 'I' for Inactive)
REMARK    1  A    between atoms: O1_1  and  C1_2 
REMARK    2  A    between atoms: C4_5  and  C5_6 
REMARK    3  A    between atoms: N2_18  and  C15_19 
REMARK    4  A    between atoms: C16_21  and  O2_22 
ROOT
HETATM    1  C5  UNL     1      20.938   2.376  52.777  1.00  0.00     0.146 C 
HETATM    2  C6  UNL     1      21.177   1.175  53.639  1.00  0.00     0.038 C 
HETATM    3  C7  UNL     1      22.282   0.272  53.133  1.00  0.00     0.064 C 
HETATM    4  C8  UNL     1      23.479   1.066  52.755  1.00  0.00     0.065 C 
HETATM    5  C9  UNL     1      24.812   0.520  52.872  1.00  0.00    -0.010 A 
HETATM    6  C10 UNL     1      25.889   1.301  52.508  1.00  0.00     0.015 A 
HETATM    7  C11 UNL     1      27.212   0.869  52.582  1.00  0.00     0.024 A 
HETATM    8  C12 UNL     1      27.446  -0.402  53.043  1.00  0.00     0.034 A 
HETATM    9 CL1  UNL     1      29.085  -0.998  53.158  1.00  0.00    -0.084 Cl
HETATM   10  C13 UNL     1      26.376  -1.202  53.414  1.00  0.00     0.024 A 
HETATM   11  C14 UNL     1      25.062  -0.756  53.334  1.00  0.00     0.015 A 
HETATM   12  N1  UNL     1      23.348   2.270  52.313  1.00  0.00    -0.173 NA
HETATM   13  N2  UNL     1      22.112   2.904  52.157  1.00  0.00    -0.237 N 
ENDROOT
BRANCH   1  14
HETATM   14  C4  UNL     1      19.854   2.067  51.780  1.00  0.00    -0.033 A 
HETATM   15  C3  UNL     1      18.700   2.812  51.650  1.00  0.00     0.012 A 
HETATM   16  C2  UNL     1      17.747   2.457  50.701  1.00  0.00     0.037 A 
HETATM   17  C1  UNL     1      17.931   1.362  49.873  1.00  0.00     0.065 A 
HETATM   18  C19 UNL     1      19.060   0.604  49.976  1.00  0.00     0.037 A 
HETATM   19  C18 UNL     1      19.966   0.988  50.919  1.00  0.00     0.012 A 
BRANCH  17  20
HETATM   20  O1  UNL     1      16.943   1.062  48.947  1.00  0.00    -0.361 OA
HETATM   21  H1  UNL     1      16.056   0.745  49.279  1.00  0.00     0.217 HD
ENDBRANCH  17  20
ENDBRANCH   1  14
BRANCH  13  22
HETATM   22  C15 UNL     1      21.936   4.099  51.383  1.00  0.00     0.192 A 
HETATM   23  N3  UNL     1      21.780   5.318  51.716  1.00  0.00    -0.198 NA
HETATM   24  C16 UNL     1      21.641   6.219  50.746  1.00  0.00     0.171 A 
HETATM   25  C17 UNL     1      21.662   5.847  49.350  1.00  0.00     0.111 A 
HETATM   26  S1  UNL     1      21.914   3.993  49.583  1.00  0.00    -0.058 SA
BRANCH  24  27
HETATM   27  O2  UNL     1      21.478   7.515  51.288  1.00  0.00    -0.344 OA
HETATM   28  H13 UNL     1      21.123   7.677  52.211  1.00  0.00     0.219 HD
ENDBRANCH  24  27
ENDBRANCH  13  22
TORSDOF 4
ENDMDL
MODEL 6
REMARK VINA RESULT:      -8.0      4.814      7.042
REMARK  4 active torsions:
REMARK  status: ('A' for Active; 'I' for Inactive)
REMARK    1  A    between atoms: O1_1  and  C1_2 
REMARK    2  A    between atoms: C4_5  and  C5_6 
REMARK    3  A    between atoms: N2_18  and  C15_19 
REMARK    4  A    between atoms: C16_21  and  O2_22 
ROOT
HETATM    1  C5  UNL     1      22.149   1.707  50.198  1.00  0.00     0.146 C 
HETATM    2  C6  UNL     1      22.112   0.714  51.318  1.00  0.00     0.038 C 
HETATM    3  C7  UNL     1      20.783   0.660  52.042  1.00  0.00     0.064 C 
HETATM    4  C8  UNL     1      19.659   0.608  51.072  1.00  0.00     0.065 C 
HETATM    5  C9  UNL     1      18.424  -0.073  51.388  1.00  0.00    -0.010 A 
HETATM    6  C10 UNL     1      17.411  -0.091  50.451  1.00  0.00     0.015 A 
HETATM    7  C11 UNL     1      16.184  -0.719  50.657  1.00  0.00     0.024 A 
HETATM    8  C12 UNL     1      15.980  -1.349  51.860  1.00  0.00     0.034 A 
HETATM    9 CL1  UNL     1      14.461  -2.153  52.174  1.00  0.00    -0.084 Cl
HETATM   10  C13 UNL     1      16.986  -1.341  52.814  1.00  0.00     0.024 A 
HETATM   11  C14 UNL     1      18.205  -0.711  52.592  1.00  0.00     0.015 A 
HETATM   12  N1  UNL     1      19.767   1.174  49.919  1.00  0.00    -0.173 NA
HETATM   13  N2  UNL     1      20.911   1.861  49.502  1.00  0.00    -0.237 N 
ENDROOT
BRANCH   1  14
HETATM   14  C4  UNL     1      22.685   3.016  50.709  1.00  0.00    -0.033 A 
HETATM   15  C3  UNL     1      22.002   3.832  51.587  1.00  0.00     0.012 A 
HETATM   16  C2  UNL     1      22.571   5.029  52.009  1.00  0.00     0.037 A 
HETATM   17  C1  UNL     1      23.822   5.426  51.566  1.00  0.00     0.065 A 
HETATM   18  C19 UNL     1      24.523   4.643  50.697  1.00  0.00     0.037 A 
HETATM   19  C18 UNL     1      23.928   3.480  50.309  1.00  0.00     0.012 A 
BRANCH  17  20
HETATM   20  O1  UNL     1      24.333   6.631  52.026  1.00  0.00    -0.361 OA
HETATM   21  H1  UNL     1      25.212   6.944  51.671  1.00  0.00     0.217 HD
ENDBRANCH  17  20
ENDBRANCH   1  14
BRANCH  13  22
HETATM   22  C15 UNL     1      20.925   2.747  48.375  1.00  0.00     0.192 A 
HETATM   23  N3  UNL     1      21.574   2.727  47.278  1.00  0.00    -0.198 NA
HETATM   24  C16 UNL     1      21.365   3.713  46.409  1.00  0.00     0.171 A 
HETATM   25  C17 UNL     1      20.435   4.786  46.680  1.00  0.00     0.111 A 
HETATM   26  S1  UNL     1      19.867   4.208  48.383  1.00  0.00    -0.058 SA
BRANCH  24  27
HETATM   27  O2  UNL     1      22.162   3.537  45.254  1.00  0.00    -0.344 OA
HETATM   28  H13 UNL     1      21.772   3.355  44.349  1.00  0.00     0.219 HD
ENDBRANCH  24  27
ENDBRANCH  13  22
TORSDOF 4
ENDMDL
MODEL 7
REMARK VINA RESULT:      -7.7      4.015      5.444
REMARK  4 active torsions:
REMARK  status: ('A' for Active; 'I' for Inactive)
REMARK    1  A    between atoms: O1_1  and  C1_2 
REMARK    2  A    between atoms: C4_5  and  C5_6 
REMARK    3  A    between atoms: N2_18  and  C15_19 
REMARK    4  A    between atoms: C16_21  and  O2_22 
ROOT
HETATM    1  C5  UNL     1      22.520   1.834  50.414  1.00  0.00     0.146 C 
HETATM    2  C6  UNL     1      21.524   0.725  50.274  1.00  0.00     0.038 C 
HETATM    3  C7  UNL     1      20.308   0.880  51.162  1.00  0.00     0.064 C 
HETATM    4  C8  UNL     1      19.775   2.265  51.084  1.00  0.00     0.065 C 
HETATM    5  C9  UNL     1      18.365   2.538  51.254  1.00  0.00    -0.010 A 
HETATM    6  C10 UNL     1      17.922   3.842  51.171  1.00  0.00     0.015 A 
HETATM    7  C11 UNL     1      16.587   4.211  51.320  1.00  0.00     0.024 A 
HETATM    8  C12 UNL     1      15.670   3.218  51.562  1.00  0.00     0.034 A 
HETATM    9 CL1  UNL     1      13.981   3.622  51.757  1.00  0.00    -0.084 Cl
HETATM   10  C13 UNL     1      16.097   1.902  51.648  1.00  0.00     0.024 A 
HETATM   11  C14 UNL     1      17.433   1.550  51.497  1.00  0.00     0.015 A 
HETATM   12  N1  UNL     1      20.567   3.256  50.860  1.00  0.00    -0.173 NA
HETATM   13  N2  UNL     1      21.946   3.115  50.679  1.00  0.00    -0.237 N 
ENDROOT
BRANCH   1  14
HETATM   14  C4  UNL     1      23.556   1.449  51.434  1.00  0.00    -0.033 A 
HETATM   15  C3  UNL     1      23.261   0.811  52.621  1.00  0.00     0.012 A 
HETATM   16  C2  UNL     1      24.282   0.491  53.510  1.00  0.00     0.037 A 
HETATM   17  C1  UNL     1      25.602   0.799  53.230  1.00  0.00     0.065 A 
HETATM   18  C19 UNL     1      25.928   1.430  52.066  1.00  0.00     0.037 A 
HETATM   19  C18 UNL     1      24.898   1.726  51.225  1.00  0.00     0.012 A 
BRANCH  17  20
HETATM   20  O1  UNL     1      26.572   0.452  54.158  1.00  0.00    -0.361 OA
HETATM   21  H1  UNL     1      27.106  -0.378  54.004  1.00  0.00     0.217 HD
ENDBRANCH  17  20
ENDBRANCH   1  14
BRANCH  13  22
HETATM   22  C15 UNL     1      22.862   4.217  50.746  1.00  0.00     0.192 A 
HETATM   23  N3  UNL     1      23.224   4.971  51.707  1.00  0.00    -0.198 NA
HETATM   24  C16 UNL     1      24.112   5.929  51.451  1.00  0.00     0.171 A 
HETATM   25  C17 UNL     1      24.662   6.126  50.129  1.00  0.00     0.111 A 
HETATM   26  S1  UNL     1      23.734   4.737  49.255  1.00  0.00    -0.058 SA
BRANCH  24  27
HETATM   27  O2  UNL     1      24.401   6.668  52.621  1.00  0.00    -0.344 OA
HETATM   28  H13 UNL     1      23.687   7.035  53.220  1.00  0.00     0.219 HD
ENDBRANCH  24  27
ENDBRANCH  13  22
TORSDOF 4
ENDMDL
MODEL 8
REMARK VINA RESULT:      -7.7      9.918     11.669
REMARK  4 active torsions:
REMARK  status: ('A' for Active; 'I' for Inactive)
REMARK    1  A    between atoms: O1_1  and  C1_2 
REMARK    2  A    between atoms: C4_5  and  C5_6 
REMARK    3  A    between atoms: N2_18  and  C15_19 
REMARK    4  A    between atoms: C16_21  and  O2_22 
ROOT
HETATM    1  C5  UNL     1      31.063   7.998  46.616  1.00  0.00     0.146 C 
HETATM    2  C6  UNL     1      30.786   6.551  46.349  1.00  0.00     0.038 C 
HETATM    3  C7  UNL     1      30.097   5.841  47.495  1.00  0.00     0.064 C 
HETATM    4  C8  UNL     1      28.962   6.651  48.010  1.00  0.00     0.065 C 
HETATM    5  C9  UNL     1      27.792   6.027  48.583  1.00  0.00    -0.010 A 
HETATM    6  C10 UNL     1      26.766   6.826  49.045  1.00  0.00     0.015 A 
HETATM    7  C11 UNL     1      25.597   6.324  49.615  1.00  0.00     0.024 A 
HETATM    8  C12 UNL     1      25.469   4.961  49.718  1.00  0.00     0.034 A 
HETATM    9 CL1  UNL     1      24.024   4.275  50.423  1.00  0.00    -0.084 Cl
HETATM   10  C13 UNL     1      26.489   4.142  49.259  1.00  0.00     0.024 A 
HETATM   11  C14 UNL     1      27.648   4.659  48.693  1.00  0.00     0.015 A 
HETATM   12  N1  UNL     1      29.002   7.938  47.951  1.00  0.00    -0.173 NA
HETATM   13  N2  UNL     1      30.079   8.653  47.418  1.00  0.00    -0.237 N 
ENDROOT
BRANCH   1  14
HETATM   14  C4  UNL     1      32.450   8.145  47.179  1.00  0.00    -0.033 A 
HETATM   15  C3  UNL     1      32.865   7.553  48.354  1.00  0.00     0.012 A 
HETATM   16  C2  UNL     1      34.168   7.741  48.804  1.00  0.00     0.037 A 
HETATM   17  C1  UNL     1      35.070   8.515  48.093  1.00  0.00     0.065 A 
HETATM   18  C19 UNL     1      34.692   9.114  46.928  1.00  0.00     0.037 A 
HETATM   19  C18 UNL     1      33.408   8.904  46.524  1.00  0.00     0.012 A 
BRANCH  17  20
HETATM   20  O1  UNL     1      36.354   8.661  48.596  1.00  0.00    -0.361 OA
HETATM   21  H1  UNL     1      36.752   7.909  49.118  1.00  0.00     0.217 HD
ENDBRANCH  17  20
ENDBRANCH   1  14
BRANCH  13  22
HETATM   22  C15 UNL     1      30.271  10.057  47.634  1.00  0.00     0.192 A 
HETATM   23  N3  UNL     1      30.277  11.052  46.838  1.00  0.00    -0.198 NA
HETATM   24  C16 UNL     1      30.486  12.263  47.351  1.00  0.00     0.171 A 
HETATM   25  C17 UNL     1      30.700  12.466  48.765  1.00  0.00     0.111 A 
HETATM   26  S1  UNL     1      30.566  10.665  49.307  1.00  0.00    -0.058 SA
BRANCH  24  27
HETATM   27  O2  UNL     1      30.462  13.245  46.334  1.00  0.00    -0.344 OA
HETATM   28  H13 UNL     1      30.014  13.101  45.450  1.00  0.00     0.219 HD
ENDBRANCH  24  27
ENDBRANCH  13  22
TORSDOF 4
ENDMDL
MODEL 9
REMARK VINA RESULT:      -7.7      4.478      7.393
REMARK  4 active torsions:
REMARK  status: ('A' for Active; 'I' for Inactive)
REMARK    1  A    between atoms: O1_1  and  C1_2 
REMARK    2  A    between atoms: C4_5  and  C5_6 
REMARK    3  A    between atoms: N2_18  and  C15_19 
REMARK    4  A    between atoms: C16_21  and  O2_22 
ROOT
HETATM    1  C5  UNL     1      22.726   3.186  49.348  1.00  0.00     0.146 C 
HETATM    2  C6  UNL     1      24.169   3.494  49.094  1.00  0.00     0.038 C 
HETATM    3  C7  UNL     1      25.017   3.520  50.348  1.00  0.00     0.064 C 
HETATM    4  C8  UNL     1      24.731   2.337  51.200  1.00  0.00     0.065 C 
HETATM    5  C9  UNL     1      25.749   1.754  52.044  1.00  0.00    -0.010 A 
HETATM    6  C10 UNL     1      25.431   0.655  52.816  1.00  0.00     0.015 A 
HETATM    7  C11 UNL     1      26.338   0.020  53.662  1.00  0.00     0.024 A 
HETATM    8  C12 UNL     1      27.614   0.522  53.725  1.00  0.00     0.034 A 
HETATM    9 CL1  UNL     1      28.795  -0.234  54.769  1.00  0.00    -0.084 Cl
HETATM   10  C13 UNL     1      27.953   1.625  52.957  1.00  0.00     0.024 A 
HETATM   11  C14 UNL     1      27.036   2.247  52.117  1.00  0.00     0.015 A 
HETATM   12  N1  UNL     1      23.558   1.803  51.201  1.00  0.00    -0.173 NA
HETATM   13  N2  UNL     1      22.494   2.278  50.427  1.00  0.00    -0.237 N 
ENDROOT
BRANCH   1  14
HETATM   14  C4  UNL     1      21.962   4.471  49.508  1.00  0.00    -0.033 A 
HETATM   15  C3  UNL     1      22.078   5.298  50.606  1.00  0.00     0.012 A 
HETATM   16  C2  UNL     1      21.333   6.471  50.674  1.00  0.00     0.037 A 
HETATM   17  C1  UNL     1      20.468   6.834  49.656  1.00  0.00     0.065 A 
HETATM   18  C19 UNL     1      20.329   6.039  48.557  1.00  0.00     0.037 A 
HETATM   19  C18 UNL     1      21.077   4.900  48.531  1.00  0.00     0.012 A 
BRANCH  17  20
HETATM   20  O1  UNL     1      19.755   8.016  49.785  1.00  0.00    -0.361 OA
HETATM   21  H1  UNL     1      18.768   7.999  49.637  1.00  0.00     0.217 HD
ENDBRANCH  17  20
ENDBRANCH   1  14
BRANCH  13  22
HETATM   22  C15 UNL     1      21.130   1.900  50.654  1.00  0.00     0.192 A 
HETATM   23  N3  UNL     1      20.235   1.422  49.884  1.00  0.00    -0.198 NA
HETATM   24  C16 UNL     1      19.035   1.167  50.400  1.00  0.00     0.171 A 
HETATM   25  C17 UNL     1      18.734   1.417  51.791  1.00  0.00     0.111 A 
HETATM   26  S1  UNL     1      20.422   2.084  52.303  1.00  0.00    -0.058 SA
BRANCH  24  27
HETATM   27  O2  UNL     1      18.168   0.645  49.413  1.00  0.00    -0.344 OA
HETATM   28  H13 UNL     1      17.469  -0.045  49.615  1.00  0.00     0.219 HD
ENDBRANCH  24  27
ENDBRANCH  13  22
TORSDOF 4
ENDMDL
