MODEL 1
REMARK VINA RESULT:      -8.4      0.000      0.000
REMARK  6 active torsions:
REMARK  status: ('A' for Active; 'I' for Inactive)
REMARK    1  A    between atoms: C2_2  and  C3_4 
REMARK    2  A    between atoms: C4_6  and  C5_7 
REMARK    3  A    between atoms: C12_17  and  C13_18 
REMARK    4  A    between atoms: C13_18  and  C14_20 
REMARK    5  A    between atoms: C15_21  and  C16_22 
REMARK    6  A    between atoms: C16_22  and  N3_23 
ROOT
HETATM    1  C5  UNL     1      24.644  -0.092  53.015  1.00  0.00    -0.040 A 
HETATM    2  C6  UNL     1      23.309  -0.153  52.924  1.00  0.00    -0.038 A 
HETATM    3  C7  UNL     1      21.858  -0.357  52.812  1.00  0.00     0.163 C 
HETATM    4  C8  UNL     1      21.213   0.215  53.980  1.00  0.00     0.073 C 
HETATM    5  N1  UNL     1      20.703   0.686  54.932  1.00  0.00    -0.196 NA
HETATM    6  C9  UNL     1      21.260   0.226  51.577  1.00  0.00     0.110 C 
HETATM    7  N2  UNL     1      21.427   0.834  50.474  1.00  0.00    -0.267 NA
HETATM    8  C10 UNL     1      22.523   1.367  49.732  1.00  0.00     0.283 C 
HETATM    9  O1  UNL     1      21.994   2.455  48.978  1.00  0.00    -0.331 OA
HETATM   10  C11 UNL     1      22.895   3.497  48.894  1.00  0.00     0.154 C 
HETATM   11  C12 UNL     1      23.747   3.337  49.890  1.00  0.00     0.046 C 
HETATM   12  C19 UNL     1      23.404   2.156  50.667  1.00  0.00     0.005 C 
HETATM   13  C20 UNL     1      23.874   2.023  51.884  1.00  0.00    -0.000 C 
HETATM   14  C21 UNL     1      23.935   1.181  53.105  1.00  0.00     0.073 A 
ENDROOT
BRANCH   1  15
HETATM   15  C4  UNL     1      25.951  -0.729  53.034  1.00  0.00     0.035 C 
HETATM   16  C3  UNL     1      27.096  -0.075  52.975  1.00  0.00     0.072 C 
HETATM   17 CL1  UNL     1      28.673  -0.833  52.997  1.00  0.00    -0.081 Cl
BRANCH  16  18
HETATM   18  C2  UNL     1      27.426   1.340  52.881  1.00  0.00     0.128 C 
HETATM   19  C1  UNL     1      28.009   2.304  53.552  1.00  0.00     0.058 C 
HETATM   20  F1  UNL     1      27.089   2.060  51.786  1.00  0.00    -0.205 F 
ENDBRANCH  16  18
ENDBRANCH   1  15
BRANCH  11  21
HETATM   21  C13 UNL     1      24.852   4.248  50.130  1.00  0.00     0.184 C 
HETATM   22  O2  UNL     1      25.007   5.295  50.764  1.00  0.00    -0.288 OA
BRANCH  21  23
HETATM   23  C14 UNL     1      26.179   4.046  49.572  1.00  0.00     0.053 C 
HETATM   24  C15 UNL     1      26.920   4.928  48.931  1.00  0.00     0.007 C 
BRANCH  24  25
HETATM   25  C16 UNL     1      26.933   6.328  48.460  1.00  0.00     0.299 C 
BRANCH  25  26
HETATM   26  N3  UNL     1      28.262   6.607  47.931  1.00  0.00     0.083 N 
HETATM   27  C17 UNL     1      29.194   5.560  48.228  1.00  0.00     0.309 C 
HETATM   28  C18 UNL     1      28.674   7.892  48.425  1.00  0.00     0.309 C 
ENDBRANCH  25  26
ENDBRANCH  24  25
ENDBRANCH  21  23
ENDBRANCH  11  21
TORSDOF 6
ENDMDL
MODEL 2
REMARK VINA RESULT:      -8.0      3.645      6.144
REMARK  6 active torsions:
REMARK  status: ('A' for Active; 'I' for Inactive)
REMARK    1  A    between atoms: C2_2  and  C3_4 
REMARK    2  A    between atoms: C4_6  and  C5_7 
REMARK    3  A    between atoms: C12_17  and  C13_18 
REMARK    4  A    between atoms: C13_18  and  C14_20 
REMARK    5  A    between atoms: C15_21  and  C16_22 
REMARK    6  A    between atoms: C16_22  and  N3_23 
ROOT
HETATM    1  C5  UNL     1      20.703   3.271  51.784  1.00  0.00    -0.040 A 
HETATM    2  C6  UNL     1      21.123   4.198  50.913  1.00  0.00    -0.038 A 
HETATM    3  C7  UNL     1      21.482   5.171  49.872  1.00  0.00     0.163 C 
HETATM    4  C8  UNL     1      21.441   6.505  50.444  1.00  0.00     0.073 C 
HETATM    5  N1  UNL     1      21.405   7.581  50.922  1.00  0.00    -0.196 NA
HETATM    6  C9  UNL     1      22.821   4.933  49.260  1.00  0.00     0.110 C 
HETATM    7  N2  UNL     1      23.864   4.214  49.180  1.00  0.00    -0.267 NA
HETATM    8  C10 UNL     1      24.357   3.018  49.786  1.00  0.00     0.283 C 
HETATM    9  O1  UNL     1      25.778   3.130  49.775  1.00  0.00    -0.331 OA
HETATM   10  C11 UNL     1      26.335   2.594  50.918  1.00  0.00     0.154 C 
HETATM   11  C12 UNL     1      25.375   2.567  51.825  1.00  0.00     0.046 C 
HETATM   12  C19 UNL     1      24.140   3.104  51.275  1.00  0.00     0.005 C 
HETATM   13  C20 UNL     1      23.192   3.508  52.086  1.00  0.00    -0.000 C 
HETATM   14  C21 UNL     1      21.834   4.091  52.212  1.00  0.00     0.073 A 
ENDROOT
BRANCH   1  15
HETATM   15  C4  UNL     1      19.806   2.191  52.164  1.00  0.00     0.035 C 
HETATM   16  C3  UNL     1      20.207   1.018  52.616  1.00  0.00     0.072 C 
HETATM   17 CL1  UNL     1      19.135  -0.287  53.075  1.00  0.00    -0.081 Cl
BRANCH  16  18
HETATM   18  C2  UNL     1      21.523   0.449  52.868  1.00  0.00     0.128 C 
HETATM   19  C1  UNL     1      22.346  -0.470  52.423  1.00  0.00     0.058 C 
HETATM   20  F1  UNL     1      22.301   0.919  53.871  1.00  0.00    -0.205 F 
ENDBRANCH  16  18
ENDBRANCH   1  15
BRANCH  11  21
HETATM   21  C13 UNL     1      25.583   2.063  53.171  1.00  0.00     0.184 C 
HETATM   22  O2  UNL     1      25.852   2.564  54.266  1.00  0.00    -0.288 OA
BRANCH  21  23
HETATM   23  C14 UNL     1      25.495   0.652  53.510  1.00  0.00     0.053 C 
HETATM   24  C15 UNL     1      26.432  -0.265  53.366  1.00  0.00     0.007 C 
BRANCH  24  25
HETATM   25  C16 UNL     1      27.819  -0.461  52.900  1.00  0.00     0.299 C 
BRANCH  25  26
HETATM   26  N3  UNL     1      28.680  -0.516  54.075  1.00  0.00     0.083 N 
HETATM   27  C17 UNL     1      28.887   0.777  54.655  1.00  0.00     0.309 C 
HETATM   28  C18 UNL     1      29.902  -1.172  53.698  1.00  0.00     0.309 C 
ENDBRANCH  25  26
ENDBRANCH  24  25
ENDBRANCH  21  23
ENDBRANCH  11  21
TORSDOF 6
ENDMDL
MODEL 3
REMARK VINA RESULT:      -7.7      2.263      6.748
REMARK  6 active torsions:
REMARK  status: ('A' for Active; 'I' for Inactive)
REMARK    1  A    between atoms: C2_2  and  C3_4 
REMARK    2  A    between atoms: C4_6  and  C5_7 
REMARK    3  A    between atoms: C12_17  and  C13_18 
REMARK    4  A    between atoms: C13_18  and  C14_20 
REMARK    5  A    between atoms: C15_21  and  C16_22 
REMARK    6  A    between atoms: C16_22  and  N3_23 
ROOT
HETATM    1  C5  UNL     1      25.897   3.551  50.212  1.00  0.00    -0.040 A 
HETATM    2  C6  UNL     1      25.594   4.853  50.129  1.00  0.00    -0.038 A 
HETATM    3  C7  UNL     1      25.354   6.302  50.140  1.00  0.00     0.163 C 
HETATM    4  C8  UNL     1      25.587   6.825  48.805  1.00  0.00     0.073 C 
HETATM    5  N1  UNL     1      25.776   7.235  47.717  1.00  0.00    -0.196 NA
HETATM    6  C9  UNL     1      23.985   6.685  50.593  1.00  0.00     0.110 C 
HETATM    7  N2  UNL     1      22.852   6.327  51.040  1.00  0.00    -0.267 NA
HETATM    8  C10 UNL     1      22.211   5.103  51.400  1.00  0.00     0.283 C 
HETATM    9  O1  UNL     1      20.819   5.309  51.175  1.00  0.00    -0.331 OA
HETATM   10  C11 UNL     1      20.212   4.170  50.686  1.00  0.00     0.154 C 
HETATM   11  C12 UNL     1      21.174   3.426  50.171  1.00  0.00     0.046 C 
HETATM   12  C19 UNL     1      22.462   4.087  50.315  1.00  0.00     0.005 C 
HETATM   13  C20 UNL     1      23.468   3.713  49.563  1.00  0.00    -0.000 C 
HETATM   14  C21 UNL     1      24.896   3.916  49.213  1.00  0.00     0.073 A 
ENDROOT
BRANCH   1  15
HETATM   15  C4  UNL     1      26.644   2.450  50.800  1.00  0.00     0.035 C 
HETATM   16  C3  UNL     1      26.147   1.604  51.683  1.00  0.00     0.072 C 
HETATM   17 CL1  UNL     1      27.039   0.278  52.396  1.00  0.00    -0.081 Cl
BRANCH  16  18
HETATM   18  C2  UNL     1      24.839   1.480  52.310  1.00  0.00     0.128 C 
HETATM   19  C1  UNL     1      23.977   2.158  53.027  1.00  0.00     0.058 C 
HETATM   20  F1  UNL     1      24.131   0.330  52.214  1.00  0.00    -0.205 F 
ENDBRANCH  16  18
ENDBRANCH   1  15
BRANCH  11  21
HETATM   21  C13 UNL     1      20.921   2.135  49.554  1.00  0.00     0.184 C 
HETATM   22  O2  UNL     1      20.471   1.751  48.471  1.00  0.00    -0.288 OA
BRANCH  21  23
HETATM   23  C14 UNL     1      21.200   0.873  50.219  1.00  0.00     0.053 C 
HETATM   24  C15 UNL     1      20.933   0.551  51.469  1.00  0.00     0.007 C 
BRANCH  24  25
HETATM   25  C16 UNL     1      20.341   1.078  52.715  1.00  0.00     0.299 C 
BRANCH  25  26
HETATM   26  N3  UNL     1      20.163  -0.042  53.632  1.00  0.00     0.083 N 
HETATM   27  C17 UNL     1      21.343  -0.848  53.736  1.00  0.00     0.309 C 
HETATM   28  C18 UNL     1      19.006  -0.780  53.209  1.00  0.00     0.309 C 
ENDBRANCH  25  26
ENDBRANCH  24  25
ENDBRANCH  21  23
ENDBRANCH  11  21
TORSDOF 6
ENDMDL
MODEL 4
REMARK VINA RESULT:      -7.7      3.097      4.337
REMARK  6 active torsions:
REMARK  status: ('A' for Active; 'I' for Inactive)
REMARK    1  A    between atoms: C2_2  and  C3_4 
REMARK    2  A    between atoms: C4_6  and  C5_7 
REMARK    3  A    between atoms: C12_17  and  C13_18 
REMARK    4  A    between atoms: C13_18  and  C14_20 
REMARK    5  A    between atoms: C15_21  and  C16_22 
REMARK    6  A    between atoms: C16_22  and  N3_23 
ROOT
HETATM    1  C5  UNL     1      20.514   0.821  53.241  1.00  0.00    -0.040 A 
HETATM    2  C6  UNL     1      19.661   1.171  52.269  1.00  0.00    -0.038 A 
HETATM    3  C7  UNL     1      18.669   1.427  51.216  1.00  0.00     0.163 C 
HETATM    4  C8  UNL     1      17.914   2.617  51.565  1.00  0.00     0.073 C 
HETATM    5  N1  UNL     1      17.310   3.586  51.859  1.00  0.00    -0.196 NA
HETATM    6  C9  UNL     1      19.260   1.594  49.857  1.00  0.00     0.110 C 
HETATM    7  N2  UNL     1      20.291   1.585  49.114  1.00  0.00    -0.267 NA
HETATM    8  C10 UNL     1      21.691   1.360  49.275  1.00  0.00     0.283 C 
HETATM    9  O1  UNL     1      22.331   2.133  48.263  1.00  0.00    -0.331 OA
HETATM   10  C11 UNL     1      23.514   2.680  48.718  1.00  0.00     0.154 C 
HETATM   11  C12 UNL     1      23.441   2.686  50.036  1.00  0.00     0.046 C 
HETATM   12  C19 UNL     1      22.171   2.131  50.478  1.00  0.00     0.005 C 
HETATM   13  C20 UNL     1      21.744   2.380  51.692  1.00  0.00    -0.000 C 
HETATM   14  C21 UNL     1      20.674   2.167  52.698  1.00  0.00     0.073 A 
ENDROOT
BRANCH   1  15
HETATM   15  C4  UNL     1      21.019  -0.139  54.210  1.00  0.00     0.035 C 
HETATM   16  C3  UNL     1      22.289  -0.479  54.324  1.00  0.00     0.072 C 
HETATM   17 CL1  UNL     1      22.906  -1.633  55.486  1.00  0.00    -0.081 Cl
BRANCH  16  18
HETATM   18  C2  UNL     1      23.492  -0.071  53.614  1.00  0.00     0.128 C 
HETATM   19  C1  UNL     1      24.486  -0.562  52.913  1.00  0.00     0.058 C 
HETATM   20  F1  UNL     1      23.857   1.231  53.558  1.00  0.00    -0.205 F 
ENDBRANCH  16  18
ENDBRANCH   1  15
BRANCH  11  21
HETATM   21  C13 UNL     1      24.511   3.193  50.877  1.00  0.00     0.184 C 
HETATM   22  O2  UNL     1      24.591   4.000  51.807  1.00  0.00    -0.288 OA
BRANCH  21  23
HETATM   23  C14 UNL     1      25.894   2.766  50.742  1.00  0.00     0.053 C 
HETATM   24  C15 UNL     1      26.699   2.348  51.699  1.00  0.00     0.007 C 
BRANCH  24  25
HETATM   25  C16 UNL     1      26.760   2.092  53.152  1.00  0.00     0.299 C 
BRANCH  25  26
HETATM   26  N3  UNL     1      27.988   1.355  53.423  1.00  0.00     0.083 N 
HETATM   27  C17 UNL     1      27.809   0.361  54.439  1.00  0.00     0.309 C 
HETATM   28  C18 UNL     1      29.017   2.308  53.735  1.00  0.00     0.309 C 
ENDBRANCH  25  26
ENDBRANCH  24  25
ENDBRANCH  21  23
ENDBRANCH  11  21
TORSDOF 6
ENDMDL
MODEL 5
REMARK VINA RESULT:      -7.6      1.503      2.073
REMARK  6 active torsions:
REMARK  status: ('A' for Active; 'I' for Inactive)
REMARK    1  A    between atoms: C2_2  and  C3_4 
REMARK    2  A    between atoms: C4_6  and  C5_7 
REMARK    3  A    between atoms: C12_17  and  C13_18 
REMARK    4  A    between atoms: C13_18  and  C14_20 
REMARK    5  A    between atoms: C15_21  and  C16_22 
REMARK    6  A    between atoms: C16_22  and  N3_23 
ROOT
HETATM    1  C5  UNL     1      25.086   2.187  53.065  1.00  0.00    -0.040 A 
HETATM    2  C6  UNL     1      23.984   1.646  52.528  1.00  0.00    -0.038 A 
HETATM    3  C7  UNL     1      22.846   0.932  51.935  1.00  0.00     0.163 C 
HETATM    4  C8  UNL     1      21.694   1.081  52.806  1.00  0.00     0.073 C 
HETATM    5  N1  UNL     1      20.767   1.212  53.522  1.00  0.00    -0.196 NA
HETATM    6  C9  UNL     1      22.493   1.392  50.561  1.00  0.00     0.110 C 
HETATM    7  N2  UNL     1      22.751   2.144  49.570  1.00  0.00    -0.267 NA
HETATM    8  C10 UNL     1      23.727   3.130  49.234  1.00  0.00     0.283 C 
HETATM    9  O1  UNL     1      23.085   4.024  48.329  1.00  0.00    -0.331 OA
HETATM   10  C11 UNL     1      23.485   5.329  48.538  1.00  0.00     0.154 C 
HETATM   11  C12 UNL     1      23.967   5.380  49.766  1.00  0.00     0.046 C 
HETATM   12  C19 UNL     1      23.884   4.073  50.400  1.00  0.00     0.005 C 
HETATM   13  C20 UNL     1      23.956   3.982  51.706  1.00  0.00    -0.000 C 
HETATM   14  C21 UNL     1      23.948   3.085  52.888  1.00  0.00     0.073 A 
ENDROOT
BRANCH   1  15
HETATM   15  C4  UNL     1      26.458   2.084  53.535  1.00  0.00     0.035 C 
HETATM   16  C3  UNL     1      27.242   1.046  53.311  1.00  0.00     0.072 C 
HETATM   17 CL1  UNL     1      28.894   0.912  53.874  1.00  0.00    -0.081 Cl
BRANCH  16  18
HETATM   18  C2  UNL     1      27.046  -0.211  52.604  1.00  0.00     0.128 C 
HETATM   19  C1  UNL     1      27.078  -1.509  52.790  1.00  0.00     0.058 C 
HETATM   20  F1  UNL     1      26.709  -0.225  51.293  1.00  0.00    -0.205 F 
ENDBRANCH  16  18
ENDBRANCH   1  15
BRANCH  11  21
HETATM   21  C13 UNL     1      24.491   6.601  50.352  1.00  0.00     0.184 C 
HETATM   22  O2  UNL     1      24.274   7.247  51.381  1.00  0.00    -0.288 OA
BRANCH  21  23
HETATM   23  C14 UNL     1      25.529   7.400  49.720  1.00  0.00     0.053 C 
HETATM   24  C15 UNL     1      26.599   6.963  49.085  1.00  0.00     0.007 C 
BRANCH  24  25
HETATM   25  C16 UNL     1      27.300   5.728  48.680  1.00  0.00     0.299 C 
BRANCH  25  26
HETATM   26  N3  UNL     1      28.416   6.110  47.824  1.00  0.00     0.083 N 
HETATM   27  C17 UNL     1      29.678   5.701  48.366  1.00  0.00     0.309 C 
HETATM   28  C18 UNL     1      28.330   7.524  47.589  1.00  0.00     0.309 C 
ENDBRANCH  25  26
ENDBRANCH  24  25
ENDBRANCH  21  23
ENDBRANCH  11  21
TORSDOF 6
ENDMDL
MODEL 6
REMARK VINA RESULT:      -7.6      2.106      2.701
REMARK  6 active torsions:
REMARK  status: ('A' for Active; 'I' for Inactive)
REMARK    1  A    between atoms: C2_2  and  C3_4 
REMARK    2  A    between atoms: C4_6  and  C5_7 
REMARK    3  A    between atoms: C12_17  and  C13_18 
REMARK    4  A    between atoms: C13_18  and  C14_20 
REMARK    5  A    between atoms: C15_21  and  C16_22 
REMARK    6  A    between atoms: C16_22  and  N3_23 
ROOT
HETATM    1  C5  UNL     1      24.429  -0.159  53.192  1.00  0.00    -0.040 A 
HETATM    2  C6  UNL     1      23.096  -0.218  53.061  1.00  0.00    -0.038 A 
HETATM    3  C7  UNL     1      21.650  -0.421  52.902  1.00  0.00     0.163 C 
HETATM    4  C8  UNL     1      20.970   0.138  54.057  1.00  0.00     0.073 C 
HETATM    5  N1  UNL     1      20.431   0.599  54.998  1.00  0.00    -0.196 NA
HETATM    6  C9  UNL     1      21.089   0.176  51.657  1.00  0.00     0.110 C 
HETATM    7  N2  UNL     1      21.289   0.795  50.566  1.00  0.00    -0.267 NA
HETATM    8  C10 UNL     1      22.408   1.336  49.863  1.00  0.00     0.283 C 
HETATM    9  O1  UNL     1      21.901   2.432  49.105  1.00  0.00    -0.331 OA
HETATM   10  C11 UNL     1      22.804   3.475  49.060  1.00  0.00     0.154 C 
HETATM   11  C12 UNL     1      23.626   3.304  50.079  1.00  0.00     0.046 C 
HETATM   12  C19 UNL     1      23.260   2.114  50.833  1.00  0.00     0.005 C 
HETATM   13  C20 UNL     1      23.693   1.968  52.061  1.00  0.00    -0.000 C 
HETATM   14  C21 UNL     1      23.716   1.114  53.274  1.00  0.00     0.073 A 
ENDROOT
BRANCH   1  15
HETATM   15  C4  UNL     1      25.735  -0.796  53.244  1.00  0.00     0.035 C 
HETATM   16  C3  UNL     1      26.868  -0.190  52.943  1.00  0.00     0.072 C 
HETATM   17 CL1  UNL     1      28.444  -0.949  53.002  1.00  0.00    -0.081 Cl
BRANCH  16  18
HETATM   18  C2  UNL     1      27.184   1.162  52.507  1.00  0.00     0.128 C 
HETATM   19  C1  UNL     1      27.687   2.291  52.946  1.00  0.00     0.058 C 
HETATM   20  F1  UNL     1      26.940   1.555  51.235  1.00  0.00    -0.205 F 
ENDBRANCH  16  18
ENDBRANCH   1  15
BRANCH  11  21
HETATM   21  C13 UNL     1      24.723   4.212  50.362  1.00  0.00     0.184 C 
HETATM   22  O2  UNL     1      25.938   4.217  50.148  1.00  0.00    -0.288 OA
BRANCH  21  23
HETATM   23  C14 UNL     1      24.544   5.474  51.062  1.00  0.00     0.053 C 
HETATM   24  C15 UNL     1      24.021   6.586  50.584  1.00  0.00     0.007 C 
BRANCH  24  25
HETATM   25  C16 UNL     1      23.423   7.173  49.368  1.00  0.00     0.299 C 
BRANCH  25  26
HETATM   26  N3  UNL     1      21.981   6.972  49.440  1.00  0.00     0.083 N 
HETATM   27  C17 UNL     1      21.294   7.591  48.345  1.00  0.00     0.309 C 
HETATM   28  C18 UNL     1      21.533   7.433  50.725  1.00  0.00     0.309 C 
ENDBRANCH  25  26
ENDBRANCH  24  25
ENDBRANCH  21  23
ENDBRANCH  11  21
TORSDOF 6
ENDMDL
MODEL 7
REMARK VINA RESULT:      -7.5      3.388      5.965
REMARK  6 active torsions:
REMARK  status: ('A' for Active; 'I' for Inactive)
REMARK    1  A    between atoms: C2_2  and  C3_4 
REMARK    2  A    between atoms: C4_6  and  C5_7 
REMARK    3  A    between atoms: C12_17  and  C13_18 
REMARK    4  A    between atoms: C13_18  and  C14_20 
REMARK    5  A    between atoms: C15_21  and  C16_22 
REMARK    6  A    between atoms: C16_22  and  N3_23 
ROOT
HETATM    1  C5  UNL     1      23.250   4.591  50.409  1.00  0.00    -0.040 A 
HETATM    2  C6  UNL     1      22.111   3.886  50.375  1.00  0.00    -0.038 A 
HETATM    3  C7  UNL     1      20.797   3.229  50.380  1.00  0.00     0.163 C 
HETATM    4  C8  UNL     1      20.542   2.684  49.059  1.00  0.00     0.073 C 
HETATM    5  N1  UNL     1      20.348   2.244  47.982  1.00  0.00    -0.196 NA
HETATM    6  C9  UNL     1      20.667   2.147  51.398  1.00  0.00     0.110 C 
HETATM    7  N2  UNL     1      21.181   1.497  52.361  1.00  0.00    -0.267 NA
HETATM    8  C10 UNL     1      22.413   1.499  53.082  1.00  0.00     0.283 C 
HETATM    9  O1  UNL     1      22.605   0.160  53.533  1.00  0.00    -0.331 OA
HETATM   10  C11 UNL     1      23.936  -0.201  53.488  1.00  0.00     0.154 C 
HETATM   11  C12 UNL     1      24.520   0.624  52.640  1.00  0.00     0.046 C 
HETATM   12  C19 UNL     1      23.552   1.564  52.096  1.00  0.00     0.005 C 
HETATM   13  C20 UNL     1      23.827   2.209  50.989  1.00  0.00    -0.000 C 
HETATM   14  C21 UNL     1      23.367   3.199  49.984  1.00  0.00     0.073 A 
ENDROOT
BRANCH   1  15
HETATM   15  C4  UNL     1      23.979   5.825  50.657  1.00  0.00     0.035 C 
HETATM   16  C3  UNL     1      25.180   6.086  50.175  1.00  0.00     0.072 C 
HETATM   17 CL1  UNL     1      26.065   7.567  50.467  1.00  0.00    -0.081 Cl
BRANCH  16  18
HETATM   18  C2  UNL     1      26.095   5.333  49.330  1.00  0.00     0.128 C 
HETATM   19  C1  UNL     1      26.813   4.235  49.318  1.00  0.00     0.058 C 
HETATM   20  F1  UNL     1      26.424   5.777  48.095  1.00  0.00    -0.205 F 
ENDBRANCH  16  18
ENDBRANCH   1  15
BRANCH  11  21
HETATM   21  C13 UNL     1      25.937   0.554  52.327  1.00  0.00     0.184 C 
HETATM   22  O2  UNL     1      26.638  -0.122  51.569  1.00  0.00    -0.288 OA
BRANCH  21  23
HETATM   23  C14 UNL     1      26.930   1.407  52.959  1.00  0.00     0.053 C 
HETATM   24  C15 UNL     1      27.785   1.074  53.905  1.00  0.00     0.007 C 
BRANCH  24  25
HETATM   25  C16 UNL     1      28.219  -0.058  54.748  1.00  0.00     0.299 C 
BRANCH  25  26
HETATM   26  N3  UNL     1      29.453  -0.588  54.182  1.00  0.00     0.083 N 
HETATM   27  C17 UNL     1      30.188   0.408  53.461  1.00  0.00     0.309 C 
HETATM   28  C18 UNL     1      29.116  -1.735  53.383  1.00  0.00     0.309 C 
ENDBRANCH  25  26
ENDBRANCH  24  25
ENDBRANCH  21  23
ENDBRANCH  11  21
TORSDOF 6
ENDMDL
MODEL 8
REMARK VINA RESULT:      -7.5      3.865      7.951
REMARK  6 active torsions:
REMARK  status: ('A' for Active; 'I' for Inactive)
REMARK    1  A    between atoms: C2_2  and  C3_4 
REMARK    2  A    between atoms: C4_6  and  C5_7 
REMARK    3  A    between atoms: C12_17  and  C13_18 
REMARK    4  A    between atoms: C13_18  and  C14_20 
REMARK    5  A    between atoms: C15_21  and  C16_22 
REMARK    6  A    between atoms: C16_22  and  N3_23 
ROOT
HETATM    1  C5  UNL     1      23.643   0.945  52.642  1.00  0.00    -0.040 A 
HETATM    2  C6  UNL     1      23.719   2.180  52.127  1.00  0.00    -0.038 A 
HETATM    3  C7  UNL     1      23.879   3.567  51.672  1.00  0.00     0.163 C 
HETATM    4  C8  UNL     1      24.446   3.558  50.335  1.00  0.00     0.073 C 
HETATM    5  N1  UNL     1      24.904   3.536  49.249  1.00  0.00    -0.196 NA
HETATM    6  C9  UNL     1      22.613   4.353  51.670  1.00  0.00     0.110 C 
HETATM    7  N2  UNL     1      21.370   4.407  51.928  1.00  0.00    -0.267 NA
HETATM    8  C10 UNL     1      20.375   3.533  52.461  1.00  0.00     0.283 C 
HETATM    9  O1  UNL     1      19.142   3.938  51.873  1.00  0.00    -0.331 OA
HETATM   10  C11 UNL     1      18.333   2.853  51.600  1.00  0.00     0.154 C 
HETATM   11  C12 UNL     1      19.125   1.798  51.553  1.00  0.00     0.046 C 
HETATM   12  C19 UNL     1      20.506   2.186  51.796  1.00  0.00     0.005 C 
HETATM   13  C20 UNL     1      21.478   1.385  51.434  1.00  0.00    -0.000 C 
HETATM   14  C21 UNL     1      22.943   1.159  51.379  1.00  0.00     0.073 A 
ENDROOT
BRANCH   1  15
HETATM   15  C4  UNL     1      23.967  -0.028  53.673  1.00  0.00     0.035 C 
HETATM   16  C3  UNL     1      23.068  -0.684  54.383  1.00  0.00     0.072 C 
HETATM   17 CL1  UNL     1      23.448  -1.856  55.625  1.00  0.00    -0.081 Cl
BRANCH  16  18
HETATM   18  C2  UNL     1      21.613  -0.674  54.393  1.00  0.00     0.128 C 
HETATM   19  C1  UNL     1      20.580  -1.464  54.225  1.00  0.00     0.058 C 
HETATM   20  F1  UNL     1      20.928   0.466  54.648  1.00  0.00    -0.205 F 
ENDBRANCH  16  18
ENDBRANCH   1  15
BRANCH  11  21
HETATM   21  C13 UNL     1      18.631   0.458  51.285  1.00  0.00     0.184 C 
HETATM   22  O2  UNL     1      18.436  -0.222  50.274  1.00  0.00    -0.288 OA
BRANCH  21  23
HETATM   23  C14 UNL     1      18.215  -0.456  52.337  1.00  0.00     0.053 C 
HETATM   24  C15 UNL     1      16.986  -0.836  52.625  1.00  0.00     0.007 C 
BRANCH  24  25
HETATM   25  C16 UNL     1      15.578  -0.662  52.216  1.00  0.00     0.299 C 
BRANCH  25  26
HETATM   26  N3  UNL     1      15.269   0.761  52.276  1.00  0.00     0.083 N 
HETATM   27  C17 UNL     1      14.194   1.043  53.181  1.00  0.00     0.309 C 
HETATM   28  C18 UNL     1      15.019   1.216  50.937  1.00  0.00     0.309 C 
ENDBRANCH  25  26
ENDBRANCH  24  25
ENDBRANCH  21  23
ENDBRANCH  11  21
TORSDOF 6
ENDMDL
MODEL 9
REMARK VINA RESULT:      -7.2      2.048      2.561
REMARK  6 active torsions:
REMARK  status: ('A' for Active; 'I' for Inactive)
REMARK    1  A    between atoms: C2_2  and  C3_4 
REMARK    2  A    between atoms: C4_6  and  C5_7 
REMARK    3  A    between atoms: C12_17  and  C13_18 
REMARK    4  A    between atoms: C13_18  and  C14_20 
REMARK    5  A    between atoms: C15_21  and  C16_22 
REMARK    6  A    between atoms: C16_22  and  N3_23 
ROOT
HETATM    1  C5  UNL     1      23.381   1.849  52.586  1.00  0.00    -0.040 A 
HETATM    2  C6  UNL     1      22.476   1.323  51.749  1.00  0.00    -0.038 A 
HETATM    3  C7  UNL     1      21.560   0.628  50.835  1.00  0.00     0.163 C 
HETATM    4  C8  UNL     1      20.221   0.668  51.395  1.00  0.00     0.073 C 
HETATM    5  N1  UNL     1      19.139   0.710  51.860  1.00  0.00    -0.196 NA
HETATM    6  C9  UNL     1      21.539   1.194  49.455  1.00  0.00     0.110 C 
HETATM    7  N2  UNL     1      21.998   2.034  48.621  1.00  0.00    -0.267 NA
HETATM    8  C10 UNL     1      22.976   3.075  48.618  1.00  0.00     0.283 C 
HETATM    9  O1  UNL     1      22.536   4.023  47.649  1.00  0.00    -0.331 OA
HETATM   10  C11 UNL     1      22.805   5.316  48.050  1.00  0.00     0.154 C 
HETATM   11  C12 UNL     1      22.962   5.277  49.360  1.00  0.00     0.046 C 
HETATM   12  C19 UNL     1      22.789   3.919  49.853  1.00  0.00     0.005 C 
HETATM   13  C20 UNL     1      22.537   3.719  51.124  1.00  0.00    -0.000 C 
HETATM   14  C21 UNL     1      22.279   2.725  52.195  1.00  0.00     0.073 A 
ENDROOT
BRANCH   1  15
HETATM   15  C4  UNL     1      24.595   1.747  53.379  1.00  0.00     0.035 C 
HETATM   16  C3  UNL     1      25.812   1.912  52.896  1.00  0.00     0.072 C 
HETATM   17 CL1  UNL     1      27.279   1.791  53.842  1.00  0.00    -0.081 Cl
BRANCH  16  18
HETATM   18  C2  UNL     1      26.319   2.217  51.566  1.00  0.00     0.128 C 
HETATM   19  C1  UNL     1      26.384   3.192  50.691  1.00  0.00     0.058 C 
HETATM   20  F1  UNL     1      26.977   1.281  50.842  1.00  0.00    -0.205 F 
ENDBRANCH  16  18
ENDBRANCH   1  15
BRANCH  11  21
HETATM   21  C13 UNL     1      23.261   6.459  50.149  1.00  0.00     0.184 C 
HETATM   22  O2  UNL     1      22.653   7.488  50.457  1.00  0.00    -0.288 OA
BRANCH  21  23
HETATM   23  C14 UNL     1      24.535   6.662  50.819  1.00  0.00     0.053 C 
HETATM   24  C15 UNL     1      25.621   7.216  50.320  1.00  0.00     0.007 C 
BRANCH  24  25
HETATM   25  C16 UNL     1      26.164   7.840  49.097  1.00  0.00     0.299 C 
BRANCH  25  26
HETATM   26  N3  UNL     1      27.578   8.113  49.324  1.00  0.00     0.083 N 
HETATM   27  C17 UNL     1      27.812   9.476  49.698  1.00  0.00     0.309 C 
HETATM   28  C18 UNL     1      28.300   7.714  48.148  1.00  0.00     0.309 C 
ENDBRANCH  25  26
ENDBRANCH  24  25
ENDBRANCH  21  23
ENDBRANCH  11  21
TORSDOF 6
ENDMDL
