MODEL 1
REMARK VINA RESULT:      -9.9      0.000      0.000
REMARK  1 active torsions:
REMARK  status: ('A' for Active; 'I' for Inactive)
REMARK    1  A    between atoms: C13_15  and  C14_16 
ROOT
HETATM    1  C1  UNL     1      23.355  -1.544  55.430  1.00  0.00     0.038 C 
HETATM    2  C2  UNL     1      23.226  -0.646  54.404  1.00  0.00    -0.079 C 
HETATM    3  C3  UNL     1      21.753  -0.774  54.151  1.00  0.00     0.003 C 
HETATM    4  C4  UNL     1      20.976  -0.174  53.260  1.00  0.00     0.000 C 
HETATM    5  C5  UNL     1      20.363   0.620  52.195  1.00  0.00    -0.003 C 
HETATM    6  C6  UNL     1      20.927   1.503  51.339  1.00  0.00    -0.012 C 
HETATM    7  C7  UNL     1      22.161   2.187  50.889  1.00  0.00     0.035 A 
HETATM    8  C8  UNL     1      22.770   1.284  51.562  1.00  0.00     0.071 A 
HETATM    9  C9  UNL     1      24.100   0.989  51.905  1.00  0.00    -0.015 A 
HETATM   10  C10 UNL     1      23.581   2.043  51.129  1.00  0.00     0.102 A 
HETATM   11  N1  UNL     1      24.445   2.930  50.601  1.00  0.00    -0.265 NA
HETATM   12  C11 UNL     1      25.752   2.749  50.855  1.00  0.00     0.228 A 
HETATM   13  N2  UNL     1      26.194   1.743  51.595  1.00  0.00    -0.246 NA
HETATM   14  C12 UNL     1      25.380   0.824  52.150  1.00  0.00     0.050 A 
HETATM   15  C13 UNL     1      25.385  -0.356  53.043  1.00  0.00     0.075 C 
HETATM   16  C20 UNL     1      24.635  -0.238  54.330  1.00  0.00     0.050 C 
ENDROOT
BRANCH  15  17
HETATM   17  C14 UNL     1      26.832  -0.535  53.406  1.00  0.00    -0.048 A 
HETATM   18  C15 UNL     1      27.578   0.225  54.277  1.00  0.00     0.011 A 
HETATM   19  C16 UNL     1      28.905  -0.069  54.502  1.00  0.00     0.043 A 
HETATM   20  C17 UNL     1      29.532  -1.139  53.856  1.00  0.00     0.116 A 
HETATM   21  F1  UNL     1      30.824  -1.338  54.145  1.00  0.00    -0.206 F 
HETATM   22  C18 UNL     1      28.795  -1.907  52.981  1.00  0.00     0.043 A 
HETATM   23  C19 UNL     1      27.478  -1.594  52.776  1.00  0.00     0.011 A 
ENDBRANCH  15  17
TORSDOF 1
ENDMDL
MODEL 2
REMARK VINA RESULT:      -9.4      2.429      4.330
REMARK  1 active torsions:
REMARK  status: ('A' for Active; 'I' for Inactive)
REMARK    1  A    between atoms: C13_15  and  C14_16 
ROOT
HETATM    1  C1  UNL     1      22.228   2.042  49.392  1.00  0.00     0.038 C 
HETATM    2  C2  UNL     1      21.693   1.277  50.394  1.00  0.00    -0.079 C 
HETATM    3  C3  UNL     1      20.243   1.360  50.016  1.00  0.00     0.003 C 
HETATM    4  C4  UNL     1      19.170   0.840  50.596  1.00  0.00     0.000 C 
HETATM    5  C5  UNL     1      18.176   0.158  51.425  1.00  0.00    -0.003 C 
HETATM    6  C6  UNL     1      18.344  -0.578  52.548  1.00  0.00    -0.012 C 
HETATM    7  C7  UNL     1      19.288  -1.134  53.544  1.00  0.00     0.035 A 
HETATM    8  C8  UNL     1      20.121  -0.294  53.053  1.00  0.00     0.071 A 
HETATM    9  C9  UNL     1      21.477   0.022  53.233  1.00  0.00    -0.015 A 
HETATM   10  C10 UNL     1      20.685  -0.949  53.874  1.00  0.00     0.102 A 
HETATM   11  N1  UNL     1      21.259  -1.715  54.820  1.00  0.00    -0.265 NA
HETATM   12  C11 UNL     1      22.558  -1.501  55.088  1.00  0.00     0.228 A 
HETATM   13  N2  UNL     1      23.265  -0.576  54.455  1.00  0.00    -0.246 NA
HETATM   14  C12 UNL     1      22.749   0.221  53.501  1.00  0.00     0.050 A 
HETATM   15  C13 UNL     1      23.118   1.276  52.531  1.00  0.00     0.075 C 
HETATM   16  C20 UNL     1      22.951   0.956  51.081  1.00  0.00     0.050 C 
ENDROOT
BRANCH  15  17
HETATM   17  C14 UNL     1      24.590   1.481  52.755  1.00  0.00    -0.048 A 
HETATM   18  C15 UNL     1      25.189   2.376  53.612  1.00  0.00     0.011 A 
HETATM   19  C16 UNL     1      26.563   2.445  53.701  1.00  0.00     0.043 A 
HETATM   20  C17 UNL     1      27.383   1.617  52.930  1.00  0.00     0.116 A 
HETATM   21  F1  UNL     1      28.704   1.764  53.093  1.00  0.00    -0.206 F 
HETATM   22  C18 UNL     1      26.793   0.717  52.069  1.00  0.00     0.043 A 
HETATM   23  C19 UNL     1      25.427   0.668  51.999  1.00  0.00     0.011 A 
ENDBRANCH  15  17
TORSDOF 1
ENDMDL
MODEL 3
REMARK VINA RESULT:      -9.3      1.758      3.716
REMARK  1 active torsions:
REMARK  status: ('A' for Active; 'I' for Inactive)
REMARK    1  A    between atoms: C13_15  and  C14_16 
ROOT
HETATM    1  C1  UNL     1      26.472   3.375  49.938  1.00  0.00     0.038 C 
HETATM    2  C2  UNL     1      25.357   2.928  50.595  1.00  0.00    -0.079 C 
HETATM    3  C3  UNL     1      24.397   4.015  50.212  1.00  0.00     0.003 C 
HETATM    4  C4  UNL     1      23.123   4.193  50.535  1.00  0.00     0.000 C 
HETATM    5  C5  UNL     1      21.751   4.144  51.041  1.00  0.00    -0.003 C 
HETATM    6  C6  UNL     1      21.158   3.235  51.849  1.00  0.00    -0.012 C 
HETATM    7  C7  UNL     1      21.297   1.985  52.630  1.00  0.00     0.035 A 
HETATM    8  C8  UNL     1      22.556   2.172  52.490  1.00  0.00     0.071 A 
HETATM    9  C9  UNL     1      23.734   1.482  52.821  1.00  0.00    -0.015 A 
HETATM   10  C10 UNL     1      22.390   1.137  53.059  1.00  0.00     0.102 A 
HETATM   11  N1  UNL     1      22.133  -0.014  53.706  1.00  0.00    -0.265 NA
HETATM   12  C11 UNL     1      23.184  -0.762  54.082  1.00  0.00     0.228 A 
HETATM   13  N2  UNL     1      24.433  -0.399  53.833  1.00  0.00    -0.246 NA
HETATM   14  C12 UNL     1      24.754   0.740  53.190  1.00  0.00     0.050 A 
HETATM   15  C13 UNL     1      25.908   1.497  52.656  1.00  0.00     0.075 C 
HETATM   16  C20 UNL     1      25.952   1.718  51.178  1.00  0.00     0.050 C 
ENDROOT
BRANCH  15  17
HETATM   17  C14 UNL     1      27.096   0.642  52.995  1.00  0.00    -0.048 A 
HETATM   18  C15 UNL     1      27.306  -0.675  52.654  1.00  0.00     0.011 A 
HETATM   19  C16 UNL     1      28.455  -1.325  53.048  1.00  0.00     0.043 A 
HETATM   20  C17 UNL     1      29.437  -0.673  53.801  1.00  0.00     0.116 A 
HETATM   21  F1  UNL     1      30.514  -1.395  54.131  1.00  0.00    -0.206 F 
HETATM   22  C18 UNL     1      29.237   0.646  54.148  1.00  0.00     0.043 A 
HETATM   23  C19 UNL     1      28.087   1.268  53.744  1.00  0.00     0.011 A 
ENDBRANCH  15  17
TORSDOF 1
ENDMDL
MODEL 4
REMARK VINA RESULT:      -9.3      3.061      5.690
REMARK  1 active torsions:
REMARK  status: ('A' for Active; 'I' for Inactive)
REMARK    1  A    between atoms: C13_15  and  C14_16 
ROOT
HETATM    1  C1  UNL     1      22.071   2.577  49.054  1.00  0.00     0.038 C 
HETATM    2  C2  UNL     1      22.792   1.977  50.051  1.00  0.00    -0.079 C 
HETATM    3  C3  UNL     1      21.692   1.202  50.714  1.00  0.00     0.003 C 
HETATM    4  C4  UNL     1      21.717   0.404  51.774  1.00  0.00     0.000 C 
HETATM    5  C5  UNL     1      22.027  -0.410  52.948  1.00  0.00    -0.003 C 
HETATM    6  C6  UNL     1      23.206  -0.597  53.587  1.00  0.00    -0.012 C 
HETATM    7  C7  UNL     1      24.650  -0.281  53.652  1.00  0.00     0.035 A 
HETATM    8  C8  UNL     1      24.359   0.680  52.856  1.00  0.00     0.071 A 
HETATM    9  C9  UNL     1      25.062   1.675  52.158  1.00  0.00    -0.015 A 
HETATM   10  C10 UNL     1      25.540   0.672  53.022  1.00  0.00     0.102 A 
HETATM   11  N1  UNL     1      26.863   0.616  53.261  1.00  0.00    -0.265 NA
HETATM   12  C11 UNL     1      27.643   1.524  52.652  1.00  0.00     0.228 A 
HETATM   13  N2  UNL     1      27.148   2.449  51.842  1.00  0.00    -0.246 NA
HETATM   14  C12 UNL     1      25.835   2.557  51.564  1.00  0.00     0.050 A 
HETATM   15  C13 UNL     1      24.873   3.319  50.736  1.00  0.00     0.075 C 
HETATM   16  C20 UNL     1      24.101   2.552  49.712  1.00  0.00     0.050 C 
ENDROOT
BRANCH  15  17
HETATM   17  C14 UNL     1      25.730   4.295  49.983  1.00  0.00    -0.048 A 
HETATM   18  C15 UNL     1      26.847   4.021  49.227  1.00  0.00     0.011 A 
HETATM   19  C16 UNL     1      27.531   5.037  48.596  1.00  0.00     0.043 A 
HETATM   20  C17 UNL     1      27.117   6.368  48.703  1.00  0.00     0.116 A 
HETATM   21  F1  UNL     1      27.851   7.277  48.050  1.00  0.00    -0.206 F 
HETATM   22  C18 UNL     1      26.000   6.654  49.457  1.00  0.00     0.043 A 
HETATM   23  C19 UNL     1      25.338   5.627  50.074  1.00  0.00     0.011 A 
ENDBRANCH  15  17
TORSDOF 1
ENDMDL
MODEL 5
REMARK VINA RESULT:      -8.7      3.722      7.349
REMARK  1 active torsions:
REMARK  status: ('A' for Active; 'I' for Inactive)
REMARK    1  A    between atoms: C13_15  and  C14_16 
ROOT
HETATM    1  C1  UNL     1      24.394   3.338  50.296  1.00  0.00     0.038 C 
HETATM    2  C2  UNL     1      24.489   2.387  51.276  1.00  0.00    -0.079 C 
HETATM    3  C3  UNL     1      25.967   2.133  51.227  1.00  0.00     0.003 C 
HETATM    4  C4  UNL     1      26.722   1.297  51.926  1.00  0.00     0.000 C 
HETATM    5  C5  UNL     1      27.305   0.301  52.825  1.00  0.00    -0.003 C 
HETATM    6  C6  UNL     1      26.709  -0.485  53.750  1.00  0.00    -0.012 C 
HETATM    7  C7  UNL     1      25.450  -0.887  54.418  1.00  0.00     0.035 A 
HETATM    8  C8  UNL     1      24.875  -0.291  53.441  1.00  0.00     0.071 A 
HETATM    9  C9  UNL     1      23.558   0.020  53.069  1.00  0.00    -0.015 A 
HETATM   10  C10 UNL     1      24.036  -0.668  54.200  1.00  0.00     0.102 A 
HETATM   11  N1  UNL     1      23.139  -1.129  55.091  1.00  0.00    -0.265 NA
HETATM   12  C11 UNL     1      21.839  -0.898  54.839  1.00  0.00     0.228 A 
HETATM   13  N2  UNL     1      21.436  -0.242  53.761  1.00  0.00    -0.246 NA
HETATM   14  C12 UNL     1      22.284   0.243  52.834  1.00  0.00     0.050 A 
HETATM   15  C13 UNL     1      22.324   1.040  51.588  1.00  0.00     0.075 C 
HETATM   16  C20 UNL     1      23.065   2.337  51.633  1.00  0.00     0.050 C 
ENDROOT
BRANCH  15  17
HETATM   17  C14 UNL     1      20.884   1.380  51.323  1.00  0.00    -0.048 A 
HETATM   18  C15 UNL     1      19.966   0.641  50.614  1.00  0.00     0.011 A 
HETATM   19  C16 UNL     1      18.674   1.095  50.457  1.00  0.00     0.043 A 
HETATM   20  C17 UNL     1      18.260   2.311  51.008  1.00  0.00     0.116 A 
HETATM   21  F1  UNL     1      16.985   2.660  50.797  1.00  0.00    -0.206 F 
HETATM   22  C18 UNL     1      19.172   3.060  51.720  1.00  0.00     0.043 A 
HETATM   23  C19 UNL     1      20.448   2.586  51.861  1.00  0.00     0.011 A 
ENDBRANCH  15  17
TORSDOF 1
ENDMDL
MODEL 6
REMARK VINA RESULT:      -8.6      3.517      6.491
REMARK  1 active torsions:
REMARK  status: ('A' for Active; 'I' for Inactive)
REMARK    1  A    between atoms: C13_15  and  C14_16 
ROOT
HETATM    1  C1  UNL     1      26.409   1.686  51.772  1.00  0.00     0.038 C 
HETATM    2  C2  UNL     1      25.244   1.273  52.360  1.00  0.00    -0.079 C 
HETATM    3  C3  UNL     1      25.804   0.293  53.348  1.00  0.00     0.003 C 
HETATM    4  C4  UNL     1      25.194  -0.480  54.237  1.00  0.00     0.000 C 
HETATM    5  C5  UNL     1      24.279  -1.211  55.114  1.00  0.00    -0.003 C 
HETATM    6  C6  UNL     1      22.930  -1.159  55.194  1.00  0.00    -0.012 C 
HETATM    7  C7  UNL     1      21.674  -0.565  54.682  1.00  0.00     0.035 A 
HETATM    8  C8  UNL     1      22.394  -0.175  53.698  1.00  0.00     0.071 A 
HETATM    9  C9  UNL     1      22.210   0.608  52.547  1.00  0.00    -0.015 A 
HETATM   10  C10 UNL     1      21.291   0.255  53.553  1.00  0.00     0.102 A 
HETATM   11  N1  UNL     1      20.026   0.701  53.444  1.00  0.00    -0.265 NA
HETATM   12  C11 UNL     1      19.724   1.458  52.376  1.00  0.00     0.228 A 
HETATM   13  N2  UNL     1      20.625   1.768  51.454  1.00  0.00    -0.246 NA
HETATM   14  C12 UNL     1      21.905   1.353  51.508  1.00  0.00     0.050 A 
HETATM   15  C13 UNL     1      23.205   1.478  50.812  1.00  0.00     0.075 C 
HETATM   16  C20 UNL     1      24.327   2.107  51.573  1.00  0.00     0.050 C 
ENDROOT
BRANCH  15  17
HETATM   17  C14 UNL     1      22.914   2.387  49.651  1.00  0.00    -0.048 A 
HETATM   18  C15 UNL     1      22.322   2.055  48.454  1.00  0.00     0.011 A 
HETATM   19  C16 UNL     1      22.127   3.011  47.481  1.00  0.00     0.043 A 
HETATM   20  C17 UNL     1      22.521   4.338  47.677  1.00  0.00     0.116 A 
HETATM   21  F1  UNL     1      22.285   5.186  46.669  1.00  0.00    -0.206 F 
HETATM   22  C18 UNL     1      23.115   4.682  48.872  1.00  0.00     0.043 A 
HETATM   23  C19 UNL     1      23.298   3.713  49.822  1.00  0.00     0.011 A 
ENDBRANCH  15  17
TORSDOF 1
ENDMDL
MODEL 7
REMARK VINA RESULT:      -8.5      3.361      6.438
REMARK  1 active torsions:
REMARK  status: ('A' for Active; 'I' for Inactive)
REMARK    1  A    between atoms: C13_15  and  C14_16 
ROOT
HETATM    1  C1  UNL     1      22.476  -1.248  54.482  1.00  0.00     0.038 C 
HETATM    2  C2  UNL     1      23.387  -0.485  53.801  1.00  0.00    -0.079 C 
HETATM    3  C3  UNL     1      24.606  -0.766  54.629  1.00  0.00     0.003 C 
HETATM    4  C4  UNL     1      25.849  -0.316  54.514  1.00  0.00     0.000 C 
HETATM    5  C5  UNL     1      27.115   0.324  54.157  1.00  0.00    -0.003 C 
HETATM    6  C6  UNL     1      27.399   1.182  53.151  1.00  0.00    -0.012 C 
HETATM    7  C7  UNL     1      26.898   1.939  51.982  1.00  0.00     0.035 A 
HETATM    8  C8  UNL     1      25.736   1.676  52.453  1.00  0.00     0.071 A 
HETATM    9  C9  UNL     1      24.405   1.884  52.060  1.00  0.00    -0.015 A 
HETATM   10  C10 UNL     1      25.602   2.253  51.418  1.00  0.00     0.102 A 
HETATM   11  N1  UNL     1      25.520   2.918  50.251  1.00  0.00    -0.265 NA
HETATM   12  C11 UNL     1      24.292   3.184  49.773  1.00  0.00     0.228 A 
HETATM   13  N2  UNL     1      23.192   2.813  50.412  1.00  0.00    -0.246 NA
HETATM   14  C12 UNL     1      23.209   2.147  51.582  1.00  0.00     0.050 A 
HETATM   15  C13 UNL     1      22.320   1.504  52.575  1.00  0.00     0.075 C 
HETATM   16  C20 UNL     1      22.473   0.031  52.773  1.00  0.00     0.050 C 
ENDROOT
BRANCH  15  17
HETATM   17  C14 UNL     1      20.938   1.720  52.025  1.00  0.00    -0.048 A 
HETATM   18  C15 UNL     1      20.126   2.816  52.205  1.00  0.00     0.011 A 
HETATM   19  C16 UNL     1      18.874   2.859  51.631  1.00  0.00     0.043 A 
HETATM   20  C17 UNL     1      18.392   1.800  50.856  1.00  0.00     0.116 A 
HETATM   21  F1  UNL     1      17.164   1.944  50.345  1.00  0.00    -0.206 F 
HETATM   22  C18 UNL     1      19.197   0.697  50.670  1.00  0.00     0.043 A 
HETATM   23  C19 UNL     1      20.437   0.679  51.250  1.00  0.00     0.011 A 
ENDBRANCH  15  17
TORSDOF 1
ENDMDL
MODEL 8
REMARK VINA RESULT:      -8.0      2.464      4.807
REMARK  1 active torsions:
REMARK  status: ('A' for Active; 'I' for Inactive)
REMARK    1  A    between atoms: C13_15  and  C14_16 
ROOT
HETATM    1  C1  UNL     1      27.110   4.364  49.099  1.00  0.00     0.038 C 
HETATM    2  C2  UNL     1      25.792   4.313  49.467  1.00  0.00    -0.079 C 
HETATM    3  C3  UNL     1      25.297   5.547  48.773  1.00  0.00     0.003 C 
HETATM    4  C4  UNL     1      24.087   6.090  48.736  1.00  0.00     0.000 C 
HETATM    5  C5  UNL     1      22.679   6.464  48.864  1.00  0.00    -0.003 C 
HETATM    6  C6  UNL     1      21.680   5.857  49.546  1.00  0.00    -0.012 C 
HETATM    7  C7  UNL     1      21.272   4.733  50.417  1.00  0.00     0.035 A 
HETATM    8  C8  UNL     1      22.528   4.569  50.603  1.00  0.00     0.071 A 
HETATM    9  C9  UNL     1      23.349   3.652  51.277  1.00  0.00    -0.015 A 
HETATM   10  C10 UNL     1      21.946   3.700  51.175  1.00  0.00     0.102 A 
HETATM   11  N1  UNL     1      21.229   2.753  51.807  1.00  0.00    -0.265 NA
HETATM   12  C11 UNL     1      21.906   1.818  52.496  1.00  0.00     0.228 A 
HETATM   13  N2  UNL     1      23.229   1.811  52.562  1.00  0.00    -0.246 NA
HETATM   14  C12 UNL     1      24.001   2.731  51.952  1.00  0.00     0.050 A 
HETATM   15  C13 UNL     1      25.415   3.085  51.692  1.00  0.00     0.075 C 
HETATM   16  C20 UNL     1      25.865   3.083  50.267  1.00  0.00     0.050 C 
ENDROOT
BRANCH  15  17
HETATM   17  C14 UNL     1      26.197   2.008  52.389  1.00  0.00    -0.048 A 
HETATM   18  C15 UNL     1      26.740   2.051  53.652  1.00  0.00     0.011 A 
HETATM   19  C16 UNL     1      27.438   0.973  54.150  1.00  0.00     0.043 A 
HETATM   20  C17 UNL     1      27.617  -0.189  53.394  1.00  0.00     0.116 A 
HETATM   21  F1  UNL     1      28.311  -1.178  53.971  1.00  0.00    -0.206 F 
HETATM   22  C18 UNL     1      27.078  -0.243  52.127  1.00  0.00     0.043 A 
HETATM   23  C19 UNL     1      26.388   0.841  51.656  1.00  0.00     0.011 A 
ENDBRANCH  15  17
TORSDOF 1
ENDMDL
MODEL 9
REMARK VINA RESULT:      -7.8      4.077      6.221
REMARK  1 active torsions:
REMARK  status: ('A' for Active; 'I' for Inactive)
REMARK    1  A    between atoms: C13_15  and  C14_16 
ROOT
HETATM    1  C1  UNL     1      22.149   1.712  48.215  1.00  0.00     0.038 C 
HETATM    2  C2  UNL     1      22.487   3.033  48.095  1.00  0.00    -0.079 C 
HETATM    3  C3  UNL     1      21.917   3.307  46.734  1.00  0.00     0.003 C 
HETATM    4  C4  UNL     1      21.916   4.416  46.007  1.00  0.00     0.000 C 
HETATM    5  C5  UNL     1      22.059   5.753  45.430  1.00  0.00    -0.003 C 
HETATM    6  C6  UNL     1      22.656   6.856  45.937  1.00  0.00    -0.012 C 
HETATM    7  C7  UNL     1      23.398   7.463  47.065  1.00  0.00     0.035 A 
HETATM    8  C8  UNL     1      23.586   6.254  47.443  1.00  0.00     0.071 A 
HETATM    9  C9  UNL     1      24.175   5.608  48.542  1.00  0.00    -0.015 A 
HETATM   10  C10 UNL     1      24.055   6.983  48.262  1.00  0.00     0.102 A 
HETATM   11  N1  UNL     1      24.572   7.859  49.143  1.00  0.00    -0.265 NA
HETATM   12  C11 UNL     1      25.170   7.359  50.237  1.00  0.00     0.228 A 
HETATM   13  N2  UNL     1      25.258   6.056  50.460  1.00  0.00    -0.246 NA
HETATM   14  C12 UNL     1      24.760   5.130  49.617  1.00  0.00     0.050 A 
HETATM   15  C13 UNL     1      24.563   3.671  49.466  1.00  0.00     0.075 C 
HETATM   16  C20 UNL     1      23.154   3.179  49.395  1.00  0.00     0.050 C 
ENDROOT
BRANCH  15  17
HETATM   17  C14 UNL     1      25.157   3.089  50.718  1.00  0.00    -0.048 A 
HETATM   18  C15 UNL     1      26.449   2.658  50.910  1.00  0.00     0.011 A 
HETATM   19  C16 UNL     1      26.840   2.141  52.126  1.00  0.00     0.043 A 
HETATM   20  C17 UNL     1      25.943   2.039  53.194  1.00  0.00     0.116 A 
HETATM   21  F1  UNL     1      26.425   1.523  54.332  1.00  0.00    -0.206 F 
HETATM   22  C18 UNL     1      24.647   2.468  53.012  1.00  0.00     0.043 A 
HETATM   23  C19 UNL     1      24.284   2.977  51.795  1.00  0.00     0.011 A 
ENDBRANCH  15  17
TORSDOF 1
ENDMDL
