MODEL 1
REMARK VINA RESULT:      -7.3      0.000      0.000
REMARK  2 active torsions:
REMARK  status: ('A' for Active; 'I' for Inactive)
REMARK    1  A    between atoms: C2_2  and  C3_3 
REMARK    2  A    between atoms: C14_18  and  C15_19 
ROOT
HETATM    1  C3  UNL     1      27.250   6.087  48.641  1.00  0.00    -0.029 C 
HETATM    2  C4  UNL     1      27.376   4.777  48.813  1.00  0.00     0.011 C 
HETATM    3  C5  UNL     1      26.751   3.603  49.308  1.00  0.00     0.020 C 
HETATM    4  C6  UNL     1      25.604   3.235  49.893  1.00  0.00     0.117 C 
HETATM    5  N1  UNL     1      24.378   3.836  50.336  1.00  0.00    -0.261 N 
HETATM    6  C7  UNL     1      23.229   3.798  49.405  1.00  0.00     0.226 C 
HETATM    7  N2  UNL     1      22.779   4.471  48.482  1.00  0.00    -0.271 NA
HETATM    8  C8  UNL     1      22.825   5.544  47.647  1.00  0.00     0.254 C 
HETATM    9  S1  UNL     1      23.823   6.980  47.819  1.00  0.00     0.011 SA
HETATM   10  O1  UNL     1      25.467   6.914  47.663  1.00  0.00    -0.308 OA
HETATM   11  C9  UNL     1      26.210   7.090  48.927  1.00  0.00     0.171 C 
HETATM   12  C10 UNL     1      25.392   6.425  49.991  1.00  0.00     0.048 C 
HETATM   13  C11 UNL     1      24.464   6.952  50.923  1.00  0.00     0.036 C 
HETATM   14  C12 UNL     1      23.386   7.907  50.681  1.00  0.00     0.016 C 
HETATM   15  C13 UNL     1      23.841   5.616  51.439  1.00  0.00     0.030 C 
HETATM   16  C14 UNL     1      22.570   5.285  51.754  1.00  0.00     0.029 C 
HETATM   17  N3  UNL     1      24.486   4.386  51.623  1.00  0.00    -0.297 N 
HETATM   18  H20 UNL     1      24.964   3.836  52.370  1.00  0.00     0.187 HD
ENDROOT
BRANCH  16  19
HETATM   19  C15 UNL     1      21.857   4.087  52.242  1.00  0.00     0.031 C 
HETATM   20  C16 UNL     1      20.616   3.898  51.845  1.00  0.00     0.188 C 
HETATM   21  F1  UNL     1      20.219   4.910  51.012  1.00  0.00    -0.219 F 
ENDBRANCH  16  19
BRANCH   1  22
HETATM   22  C2  UNL     1      28.367   6.786  47.992  1.00  0.00    -0.001 C 
HETATM   23  C1  UNL     1      29.566   6.341  47.780  1.00  0.00     0.012 C 
ENDBRANCH   1  22
TORSDOF 2
ENDMDL
MODEL 2
REMARK VINA RESULT:      -7.2      3.850      6.499
REMARK  2 active torsions:
REMARK  status: ('A' for Active; 'I' for Inactive)
REMARK    1  A    between atoms: C2_2  and  C3_3 
REMARK    2  A    between atoms: C14_18  and  C15_19 
ROOT
HETATM    1  C3  UNL     1      22.509   0.009  52.693  1.00  0.00    -0.029 C 
HETATM    2  C4  UNL     1      23.541   0.693  53.172  1.00  0.00     0.011 C 
HETATM    3  C5  UNL     1      24.334   1.860  53.020  1.00  0.00     0.020 C 
HETATM    4  C6  UNL     1      24.407   2.941  52.233  1.00  0.00     0.117 C 
HETATM    5  N1  UNL     1      23.715   3.505  51.109  1.00  0.00    -0.261 N 
HETATM    6  C7  UNL     1      22.668   4.512  51.393  1.00  0.00     0.226 C 
HETATM    7  N2  UNL     1      21.468   4.533  51.656  1.00  0.00    -0.271 NA
HETATM    8  C8  UNL     1      20.279   3.911  51.883  1.00  0.00     0.254 C 
HETATM    9  S1  UNL     1      19.876   2.235  51.542  1.00  0.00     0.011 SA
HETATM   10  O1  UNL     1      20.572   0.992  52.379  1.00  0.00    -0.308 OA
HETATM   11  C9  UNL     1      21.539   0.195  51.600  1.00  0.00     0.171 C 
HETATM   12  C10 UNL     1      22.243   1.157  50.694  1.00  0.00     0.048 C 
HETATM   13  C11 UNL     1      22.025   1.491  49.334  1.00  0.00     0.036 C 
HETATM   14  C12 UNL     1      20.758   1.779  48.668  1.00  0.00     0.016 C 
HETATM   15  C13 UNL     1      22.939   2.753  49.237  1.00  0.00     0.030 C 
HETATM   16  C14 UNL     1      22.771   3.932  48.597  1.00  0.00     0.029 C 
HETATM   17  N3  UNL     1      24.159   2.979  49.887  1.00  0.00    -0.297 N 
HETATM   18  H20 UNL     1      25.185   2.875  49.723  1.00  0.00     0.187 HD
ENDROOT
BRANCH  16  19
HETATM   19  C15 UNL     1      23.536   5.183  48.425  1.00  0.00     0.031 C 
HETATM   20  C16 UNL     1      23.028   6.120  47.652  1.00  0.00     0.188 C 
HETATM   21  F1  UNL     1      21.825   5.718  47.137  1.00  0.00    -0.219 F 
ENDBRANCH  16  19
BRANCH   1  22
HETATM   22  C2  UNL     1      22.163  -1.244  53.378  1.00  0.00    -0.001 C 
HETATM   23  C1  UNL     1      21.911  -1.416  54.638  1.00  0.00     0.012 C 
ENDBRANCH   1  22
TORSDOF 2
ENDMDL
MODEL 3
REMARK VINA RESULT:      -6.7      4.289      5.213
REMARK  2 active torsions:
REMARK  status: ('A' for Active; 'I' for Inactive)
REMARK    1  A    between atoms: C2_2  and  C3_3 
REMARK    2  A    between atoms: C14_18  and  C15_19 
ROOT
HETATM    1  C3  UNL     1      24.745   1.609  52.846  1.00  0.00    -0.029 C 
HETATM    2  C4  UNL     1      24.173   0.450  53.150  1.00  0.00     0.011 C 
HETATM    3  C5  UNL     1      22.965  -0.293  53.122  1.00  0.00     0.020 C 
HETATM    4  C6  UNL     1      21.696  -0.150  52.720  1.00  0.00     0.117 C 
HETATM    5  N1  UNL     1      20.868   0.842  52.093  1.00  0.00    -0.261 N 
HETATM    6  C7  UNL     1      20.703   0.759  50.624  1.00  0.00     0.226 C 
HETATM    7  N2  UNL     1      21.282   1.156  49.617  1.00  0.00    -0.271 NA
HETATM    8  C8  UNL     1      22.292   1.828  49.000  1.00  0.00     0.254 C 
HETATM    9  S1  UNL     1      23.424   2.952  49.737  1.00  0.00     0.011 SA
HETATM   10  O1  UNL     1      24.560   2.445  50.825  1.00  0.00    -0.308 OA
HETATM   11  C9  UNL     1      24.306   2.867  52.217  1.00  0.00     0.171 C 
HETATM   12  C10 UNL     1      22.820   2.828  52.403  1.00  0.00     0.048 C 
HETATM   13  C11 UNL     1      21.843   3.851  52.333  1.00  0.00     0.036 C 
HETATM   14  C12 UNL     1      21.696   4.890  51.318  1.00  0.00     0.016 C 
HETATM   15  C13 UNL     1      20.555   2.967  52.332  1.00  0.00     0.030 C 
HETATM   16  C14 UNL     1      19.393   3.081  51.652  1.00  0.00     0.029 C 
HETATM   17  N3  UNL     1      20.344   1.762  53.014  1.00  0.00    -0.297 N 
HETATM   18  H20 UNL     1      19.947   1.409  53.913  1.00  0.00     0.187 HD
ENDROOT
BRANCH  16  19
HETATM   19  C15 UNL     1      18.122   2.334  51.558  1.00  0.00     0.031 C 
HETATM   20  C16 UNL     1      16.997   3.017  51.583  1.00  0.00     0.188 C 
HETATM   21  F1  UNL     1      17.252   4.358  51.697  1.00  0.00    -0.219 F 
ENDBRANCH  16  19
BRANCH   1  22
HETATM   22  C2  UNL     1      26.173   1.751  53.158  1.00  0.00    -0.001 C 
HETATM   23  C1  UNL     1      27.155   1.019  52.731  1.00  0.00     0.012 C 
ENDBRANCH   1  22
TORSDOF 2
ENDMDL
MODEL 4
REMARK VINA RESULT:      -6.6      4.636      5.796
REMARK  2 active torsions:
REMARK  status: ('A' for Active; 'I' for Inactive)
REMARK    1  A    between atoms: C2_2  and  C3_3 
REMARK    2  A    between atoms: C14_18  and  C15_19 
ROOT
HETATM    1  C3  UNL     1      24.497   1.773  52.538  1.00  0.00    -0.029 C 
HETATM    2  C4  UNL     1      24.435   3.004  53.029  1.00  0.00     0.011 C 
HETATM    3  C5  UNL     1      23.725   4.233  53.003  1.00  0.00     0.020 C 
HETATM    4  C6  UNL     1      22.658   4.774  52.402  1.00  0.00     0.117 C 
HETATM    5  N1  UNL     1      21.648   4.398  51.453  1.00  0.00    -0.261 N 
HETATM    6  C7  UNL     1      20.359   3.911  51.992  1.00  0.00     0.226 C 
HETATM    7  N2  UNL     1      19.866   2.848  52.361  1.00  0.00    -0.271 NA
HETATM    8  C8  UNL     1      19.938   1.508  52.587  1.00  0.00     0.254 C 
HETATM    9  S1  UNL     1      21.173   0.399  52.011  1.00  0.00     0.011 SA
HETATM   10  O1  UNL     1      22.728   0.473  52.565  1.00  0.00    -0.308 OA
HETATM   11  C9  UNL     1      23.705   0.980  51.581  1.00  0.00     0.171 C 
HETATM   12  C10 UNL     1      22.994   2.034  50.788  1.00  0.00     0.048 C 
HETATM   13  C11 UNL     1      22.350   1.977  49.527  1.00  0.00     0.036 C 
HETATM   14  C12 UNL     1      21.418   0.967  49.034  1.00  0.00     0.016 C 
HETATM   15  C13 UNL     1      21.619   3.358  49.559  1.00  0.00     0.030 C 
HETATM   16  C14 UNL     1      20.389   3.728  49.141  1.00  0.00     0.029 C 
HETATM   17  N3  UNL     1      22.075   4.555  50.126  1.00  0.00    -0.297 N 
HETATM   18  H20 UNL     1      22.584   5.426  49.857  1.00  0.00     0.187 HD
ENDROOT
BRANCH  16  19
HETATM   19  C15 UNL     1      19.589   4.968  49.111  1.00  0.00     0.031 C 
HETATM   20  C16 UNL     1      19.075   5.348  47.960  1.00  0.00     0.188 C 
HETATM   21  F1  UNL     1      19.406   4.462  46.970  1.00  0.00    -0.219 F 
ENDBRANCH  16  19
BRANCH   1  22
HETATM   22  C2  UNL     1      25.578   0.910  53.033  1.00  0.00    -0.001 C 
HETATM   23  C1  UNL     1      26.365   0.148  52.340  1.00  0.00     0.012 C 
ENDBRANCH   1  22
TORSDOF 2
ENDMDL
MODEL 5
REMARK VINA RESULT:      -6.6      4.273      6.691
REMARK  2 active torsions:
REMARK  status: ('A' for Active; 'I' for Inactive)
REMARK    1  A    between atoms: C2_2  and  C3_3 
REMARK    2  A    between atoms: C14_18  and  C15_19 
ROOT
HETATM    1  C3  UNL     1      26.633   5.106  48.901  1.00  0.00    -0.029 C 
HETATM    2  C4  UNL     1      27.923   4.920  48.651  1.00  0.00     0.011 C 
HETATM    3  C5  UNL     1      29.112   5.519  48.159  1.00  0.00     0.020 C 
HETATM    4  C6  UNL     1      29.527   6.695  47.671  1.00  0.00     0.117 C 
HETATM    5  N1  UNL     1      28.987   7.993  47.381  1.00  0.00    -0.261 N 
HETATM    6  C7  UNL     1      29.142   9.039  48.417  1.00  0.00     0.226 C 
HETATM    7  N2  UNL     1      28.542   9.433  49.414  1.00  0.00    -0.271 NA
HETATM    8  C8  UNL     1      27.507   9.367  50.294  1.00  0.00     0.254 C 
HETATM    9  S1  UNL     1      26.003   8.480  50.100  1.00  0.00     0.011 SA
HETATM   10  O1  UNL     1      25.969   6.828  50.090  1.00  0.00    -0.308 OA
HETATM   11  C9  UNL     1      25.688   6.228  48.771  1.00  0.00     0.171 C 
HETATM   12  C10 UNL     1      26.356   7.108  47.759  1.00  0.00     0.048 C 
HETATM   13  C11 UNL     1      25.849   8.155  46.950  1.00  0.00     0.036 C 
HETATM   14  C12 UNL     1      24.978   9.258  47.345  1.00  0.00     0.016 C 
HETATM   15  C13 UNL     1      27.198   8.745  46.430  1.00  0.00     0.030 C 
HETATM   16  C14 UNL     1      27.596  10.019  46.223  1.00  0.00     0.029 C 
HETATM   17  N3  UNL     1      28.374   8.049  46.121  1.00  0.00    -0.297 N 
HETATM   18  H20 UNL     1      28.857   7.616  45.302  1.00  0.00     0.187 HD
ENDROOT
BRANCH  16  19
HETATM   19  C15 UNL     1      28.814  10.704  45.746  1.00  0.00     0.031 C 
HETATM   20  C16 UNL     1      29.084  11.899  46.229  1.00  0.00     0.188 C 
HETATM   21  F1  UNL     1      28.125  12.283  47.127  1.00  0.00    -0.219 F 
ENDBRANCH  16  19
BRANCH   1  22
HETATM   22  C2  UNL     1      25.893   3.974  49.474  1.00  0.00    -0.001 C 
HETATM   23  C1  UNL     1      24.627   3.718  49.366  1.00  0.00     0.012 C 
ENDBRANCH   1  22
TORSDOF 2
ENDMDL
MODEL 6
REMARK VINA RESULT:      -6.5      4.316      5.738
REMARK  2 active torsions:
REMARK  status: ('A' for Active; 'I' for Inactive)
REMARK    1  A    between atoms: C2_2  and  C3_3 
REMARK    2  A    between atoms: C14_18  and  C15_19 
ROOT
HETATM    1  C3  UNL     1      21.830   3.221  48.027  1.00  0.00    -0.029 C 
HETATM    2  C4  UNL     1      20.628   2.658  48.057  1.00  0.00     0.011 C 
HETATM    3  C5  UNL     1      19.704   1.930  48.851  1.00  0.00     0.020 C 
HETATM    4  C6  UNL     1      19.608   1.423  50.086  1.00  0.00     0.117 C 
HETATM    5  N1  UNL     1      20.396   1.345  51.284  1.00  0.00    -0.261 N 
HETATM    6  C7  UNL     1      20.154   2.371  52.323  1.00  0.00     0.226 C 
HETATM    7  N2  UNL     1      20.543   3.503  52.598  1.00  0.00    -0.271 NA
HETATM    8  C8  UNL     1      21.308   4.601  52.349  1.00  0.00     0.254 C 
HETATM    9  S1  UNL     1      22.658   4.724  51.231  1.00  0.00     0.011 SA
HETATM   10  O1  UNL     1      22.439   4.629  49.596  1.00  0.00    -0.308 OA
HETATM   11  C9  UNL     1      22.940   3.384  48.981  1.00  0.00     0.171 C 
HETATM   12  C10 UNL     1      22.684   2.293  49.975  1.00  0.00     0.048 C 
HETATM   13  C11 UNL     1      23.531   1.690  50.939  1.00  0.00     0.036 C 
HETATM   14  C12 UNL     1      24.436   2.344  51.879  1.00  0.00     0.016 C 
HETATM   15  C13 UNL     1      22.458   0.895  51.750  1.00  0.00     0.030 C 
HETATM   16  C14 UNL     1      22.324   0.671  53.076  1.00  0.00     0.029 C 
HETATM   17  N3  UNL     1      21.302   0.274  51.261  1.00  0.00    -0.297 N 
HETATM   18  H20 UNL     1      20.974  -0.659  50.926  1.00  0.00     0.187 HD
ENDROOT
BRANCH  16  19
HETATM   19  C15 UNL     1      21.381  -0.045  53.958  1.00  0.00     0.031 C 
HETATM   20  C16 UNL     1      21.876  -0.871  54.856  1.00  0.00     0.188 C 
HETATM   21  F1  UNL     1      23.243  -0.897  54.783  1.00  0.00    -0.219 F 
ENDBRANCH  16  19
BRANCH   1  22
HETATM   22  C2  UNL     1      22.223   3.889  46.779  1.00  0.00    -0.001 C 
HETATM   23  C1  UNL     1      21.765   3.674  45.585  1.00  0.00     0.012 C 
ENDBRANCH   1  22
TORSDOF 2
ENDMDL
MODEL 7
REMARK VINA RESULT:      -6.5      5.651      8.480
REMARK  2 active torsions:
REMARK  status: ('A' for Active; 'I' for Inactive)
REMARK    1  A    between atoms: C2_2  and  C3_3 
REMARK    2  A    between atoms: C14_18  and  C15_19 
ROOT
HETATM    1  C3  UNL     1      28.035   6.018  48.239  1.00  0.00    -0.029 C 
HETATM    2  C4  UNL     1      29.185   5.355  48.211  1.00  0.00     0.011 C 
HETATM    3  C5  UNL     1      30.560   5.426  47.870  1.00  0.00     0.020 C 
HETATM    4  C6  UNL     1      31.436   6.304  47.366  1.00  0.00     0.117 C 
HETATM    5  N1  UNL     1      31.453   7.661  46.897  1.00  0.00    -0.261 N 
HETATM    6  C7  UNL     1      31.858   8.708  47.861  1.00  0.00     0.226 C 
HETATM    7  N2  UNL     1      31.332   9.414  48.717  1.00  0.00    -0.271 NA
HETATM    8  C8  UNL     1      30.247   9.833  49.424  1.00  0.00     0.254 C 
HETATM    9  S1  UNL     1      28.557   9.520  49.061  1.00  0.00     0.011 SA
HETATM   10  O1  UNL     1      27.916   8.001  49.172  1.00  0.00    -0.308 OA
HETATM   11  C9  UNL     1      27.594   7.376  47.875  1.00  0.00     0.171 C 
HETATM   12  C10 UNL     1      28.657   7.823  46.918  1.00  0.00     0.048 C 
HETATM   13  C11 UNL     1      28.673   8.868  45.962  1.00  0.00     0.036 C 
HETATM   14  C12 UNL     1      28.231  10.250  46.128  1.00  0.00     0.016 C 
HETATM   15  C13 UNL     1      30.197   8.869  45.618  1.00  0.00     0.030 C 
HETATM   16  C14 UNL     1      31.059   9.881  45.381  1.00  0.00     0.029 C 
HETATM   17  N3  UNL     1      31.060   7.768  45.554  1.00  0.00    -0.297 N 
HETATM   18  H20 UNL     1      31.443   7.090  44.858  1.00  0.00     0.187 HD
ENDROOT
BRANCH  16  19
HETATM   19  C15 UNL     1      32.492  10.022  45.053  1.00  0.00     0.031 C 
HETATM   20  C16 UNL     1      33.134  11.075  45.514  1.00  0.00     0.188 C 
HETATM   21  F1  UNL     1      32.293  11.868  46.247  1.00  0.00    -0.219 F 
ENDBRANCH  16  19
BRANCH   1  22
HETATM   22  C2  UNL     1      26.866   5.305  48.771  1.00  0.00    -0.001 C 
HETATM   23  C1  UNL     1      26.829   4.117  49.288  1.00  0.00     0.012 C 
ENDBRANCH   1  22
TORSDOF 2
ENDMDL
MODEL 8
REMARK VINA RESULT:      -6.4      3.319      5.852
REMARK  2 active torsions:
REMARK  status: ('A' for Active; 'I' for Inactive)
REMARK    1  A    between atoms: C2_2  and  C3_3 
REMARK    2  A    between atoms: C14_18  and  C15_19 
ROOT
HETATM    1  C3  UNL     1      22.198   0.590  51.955  1.00  0.00    -0.029 C 
HETATM    2  C4  UNL     1      21.543   0.597  50.801  1.00  0.00     0.011 C 
HETATM    3  C5  UNL     1      21.172   1.381  49.678  1.00  0.00     0.020 C 
HETATM    4  C6  UNL     1      21.343   2.623  49.208  1.00  0.00     0.117 C 
HETATM    5  N1  UNL     1      22.001   3.840  49.592  1.00  0.00    -0.261 N 
HETATM    6  C7  UNL     1      23.355   4.081  49.045  1.00  0.00     0.226 C 
HETATM    7  N2  UNL     1      24.517   3.811  49.333  1.00  0.00    -0.271 NA
HETATM    8  C8  UNL     1      25.450   3.233  50.138  1.00  0.00     0.254 C 
HETATM    9  S1  UNL     1      25.211   2.615  51.765  1.00  0.00     0.011 SA
HETATM   10  O1  UNL     1      24.279   1.282  52.056  1.00  0.00    -0.308 OA
HETATM   11  C9  UNL     1      22.992   1.568  52.720  1.00  0.00     0.171 C 
HETATM   12  C10 UNL     1      22.518   2.879  52.172  1.00  0.00     0.048 C 
HETATM   13  C11 UNL     1      22.622   4.197  52.682  1.00  0.00     0.036 C 
HETATM   14  C12 UNL     1      23.793   4.852  53.258  1.00  0.00     0.016 C 
HETATM   15  C13 UNL     1      22.179   4.991  51.412  1.00  0.00     0.030 C 
HETATM   16  C14 UNL     1      22.630   6.148  50.879  1.00  0.00     0.029 C 
HETATM   17  N3  UNL     1      21.221   4.619  50.460  1.00  0.00    -0.297 N 
HETATM   18  H20 UNL     1      20.208   4.752  50.250  1.00  0.00     0.187 HD
ENDROOT
BRANCH  16  19
HETATM   19  C15 UNL     1      22.311   6.993  49.711  1.00  0.00     0.031 C 
HETATM   20  C16 UNL     1      22.915   8.157  49.603  1.00  0.00     0.188 C 
HETATM   21  F1  UNL     1      23.767   8.357  50.657  1.00  0.00    -0.219 F 
ENDBRANCH  16  19
BRANCH   1  22
HETATM   22  C2  UNL     1      22.207  -0.669  52.711  1.00  0.00    -0.001 C 
HETATM   23  C1  UNL     1      22.050  -0.829  53.988  1.00  0.00     0.012 C 
ENDBRANCH   1  22
TORSDOF 2
ENDMDL
MODEL 9
REMARK VINA RESULT:      -6.4      6.393      8.155
REMARK  2 active torsions:
REMARK  status: ('A' for Active; 'I' for Inactive)
REMARK    1  A    between atoms: C2_2  and  C3_3 
REMARK    2  A    between atoms: C14_18  and  C15_19 
ROOT
HETATM    1  C3  UNL     1      31.578   5.060  47.497  1.00  0.00    -0.029 C 
HETATM    2  C4  UNL     1      30.309   4.948  47.870  1.00  0.00     0.011 C 
HETATM    3  C5  UNL     1      29.129   5.659  48.212  1.00  0.00     0.020 C 
HETATM    4  C6  UNL     1      28.704   6.924  48.320  1.00  0.00     0.117 C 
HETATM    5  N1  UNL     1      29.217   8.253  48.144  1.00  0.00    -0.261 N 
HETATM    6  C7  UNL     1      28.977   8.907  46.838  1.00  0.00     0.226 C 
HETATM    7  N2  UNL     1      29.511   8.966  45.734  1.00  0.00    -0.271 NA
HETATM    8  C8  UNL     1      30.501   8.632  44.862  1.00  0.00     0.254 C 
HETATM    9  S1  UNL     1      32.040   7.874  45.242  1.00  0.00     0.011 SA
HETATM   10  O1  UNL     1      32.126   6.314  45.780  1.00  0.00    -0.308 OA
HETATM   11  C9  UNL     1      32.494   6.176  47.204  1.00  0.00     0.171 C 
HETATM   12  C10 UNL     1      31.851   7.327  47.917  1.00  0.00     0.048 C 
HETATM   13  C11 UNL     1      32.368   8.585  48.314  1.00  0.00     0.036 C 
HETATM   14  C12 UNL     1      33.182   9.513  47.534  1.00  0.00     0.016 C 
HETATM   15  C13 UNL     1      31.030   9.294  48.696  1.00  0.00     0.030 C 
HETATM   16  C14 UNL     1      30.604  10.562  48.504  1.00  0.00     0.029 C 
HETATM   17  N3  UNL     1      29.894   8.721  49.281  1.00  0.00    -0.297 N 
HETATM   18  H20 UNL     1      29.467   8.570  50.222  1.00  0.00     0.187 HD
ENDROOT
BRANCH  16  19
HETATM   19  C15 UNL     1      29.392  11.349  48.807  1.00  0.00     0.031 C 
HETATM   20  C16 UNL     1      29.541  12.605  49.172  1.00  0.00     0.188 C 
HETATM   21  F1  UNL     1      30.868  12.943  49.196  1.00  0.00    -0.219 F 
ENDBRANCH  16  19
BRANCH   1  22
HETATM   22  C2  UNL     1      32.322   3.813  47.276  1.00  0.00    -0.001 C 
HETATM   23  C1  UNL     1      31.986   2.812  46.524  1.00  0.00     0.012 C 
ENDBRANCH   1  22
TORSDOF 2
ENDMDL
