MODEL 1
REMARK VINA RESULT:      -8.4      0.000      0.000
REMARK  7 active torsions:
REMARK  status: ('A' for Active; 'I' for Inactive)
REMARK    1  A    between atoms: C3_3  and  C4_5 
REMARK    2  A    between atoms: C4_5  and  C5_6 
REMARK    3  A    between atoms: C5_6  and  C6_7 
REMARK    4  A    between atoms: C6_7  and  C7_8 
REMARK    5  A    between atoms: C9_10  and  C10_11 
REMARK    6  A    between atoms: N2_19  and  C17_20 
REMARK    7  A    between atoms: C18_22  and  O1_23 
ROOT
HETATM    1  C1  UNL     1      23.184   4.181  49.021  1.00  0.00     0.098 C 
HETATM    2  C2  UNL     1      22.790   4.133  50.273  1.00  0.00    -0.136 C 
HETATM    3  C3  UNL     1      22.295   4.179  51.482  1.00  0.00     0.051 C 
HETATM    4 BR1  UNL     1      20.495   3.813  51.716  1.00  0.00    -0.042 Br
ENDROOT
BRANCH   3   5
HETATM    5  C4  UNL     1      23.122   4.502  52.583  1.00  0.00     0.023 C 
BRANCH   5   6
HETATM    6  C5  UNL     1      24.168   3.803  52.972  1.00  0.00    -0.022 C 
BRANCH   6   7
HETATM    7  C6  UNL     1      24.905   2.687  53.571  1.00  0.00     0.055 C 
BRANCH   7   8
HETATM    8  C7  UNL     1      25.490   1.732  52.551  1.00  0.00     0.122 C 
HETATM    9  C8  UNL     1      24.269   1.232  51.733  1.00  0.00     0.089 C 
HETATM   10  C9  UNL     1      23.722   0.308  52.796  1.00  0.00     0.067 C 
HETATM   11  N1  UNL     1      24.732  -0.072  53.554  1.00  0.00    -0.174 NA
HETATM   12  N2  UNL     1      25.902   0.498  53.104  1.00  0.00    -0.240 N 
BRANCH  10  13
HETATM   13  C10 UNL     1      22.365  -0.186  53.047  1.00  0.00    -0.010 A 
HETATM   14  C11 UNL     1      21.330   0.289  52.290  1.00  0.00     0.014 A 
HETATM   15  C12 UNL     1      20.038  -0.097  52.458  1.00  0.00     0.007 A 
HETATM   16  C13 UNL     1      19.696  -1.020  53.433  1.00  0.00    -0.062 A 
HETATM   17  C14 UNL     1      18.269  -1.412  53.581  1.00  0.00     0.048 C 
HETATM   18  C15 UNL     1      20.755  -1.509  54.207  1.00  0.00     0.007 A 
HETATM   19  C16 UNL     1      22.051  -1.103  54.018  1.00  0.00     0.014 A 
ENDBRANCH  10  13
BRANCH  12  20
HETATM   20  C17 UNL     1      27.189  -0.178  53.241  1.00  0.00     0.192 A 
HETATM   21  N3  UNL     1      27.349  -1.364  53.076  1.00  0.00    -0.198 NA
HETATM   22  C18 UNL     1      28.487  -2.011  53.187  1.00  0.00     0.171 A 
HETATM   23  C19 UNL     1      29.615  -1.204  53.534  1.00  0.00     0.111 A 
HETATM   24  S1  UNL     1      28.789   0.508  53.661  1.00  0.00    -0.058 SA
BRANCH  22  25
HETATM   25  O1  UNL     1      28.472  -3.404  52.960  1.00  0.00    -0.344 OA
HETATM   26  H17 UNL     1      27.674  -3.946  53.240  1.00  0.00     0.219 HD
ENDBRANCH  22  25
ENDBRANCH  12  20
ENDBRANCH   7   8
ENDBRANCH   6   7
ENDBRANCH   5   6
ENDBRANCH   3   5
TORSDOF 7
ENDMDL
MODEL 2
REMARK VINA RESULT:      -7.9      1.535      5.123
REMARK  7 active torsions:
REMARK  status: ('A' for Active; 'I' for Inactive)
REMARK    1  A    between atoms: C3_3  and  C4_5 
REMARK    2  A    between atoms: C4_5  and  C5_6 
REMARK    3  A    between atoms: C5_6  and  C6_7 
REMARK    4  A    between atoms: C6_7  and  C7_8 
REMARK    5  A    between atoms: C9_10  and  C10_11 
REMARK    6  A    between atoms: N2_19  and  C17_20 
REMARK    7  A    between atoms: C18_22  and  O1_23 
ROOT
HETATM    1  C1  UNL     1      17.953  -0.512  52.064  1.00  0.00     0.098 C 
HETATM    2  C2  UNL     1      19.159  -0.004  52.171  1.00  0.00    -0.136 C 
HETATM    3  C3  UNL     1      20.388   0.440  52.151  1.00  0.00     0.051 C 
HETATM    4 BR1  UNL     1      20.948   1.429  50.689  1.00  0.00    -0.042 Br
ENDROOT
BRANCH   3   5
HETATM    5  C4  UNL     1      21.266   0.168  53.226  1.00  0.00     0.023 C 
BRANCH   5   6
HETATM    6  C5  UNL     1      22.580   0.182  53.151  1.00  0.00    -0.022 C 
BRANCH   6   7
HETATM    7  C6  UNL     1      23.902   0.112  52.521  1.00  0.00     0.055 C 
BRANCH   7   8
HETATM    8  C7  UNL     1      25.014   0.668  53.387  1.00  0.00     0.122 C 
HETATM    9  C8  UNL     1      24.820   2.207  53.339  1.00  0.00     0.089 C 
HETATM   10  C9  UNL     1      25.347   2.398  51.935  1.00  0.00     0.067 C 
HETATM   11  N1  UNL     1      26.194   1.416  51.689  1.00  0.00    -0.174 NA
HETATM   12  N2  UNL     1      26.291   0.589  52.786  1.00  0.00    -0.240 N 
BRANCH  10  13
HETATM   13  C10 UNL     1      25.089   3.438  50.934  1.00  0.00    -0.010 A 
HETATM   14  C11 UNL     1      26.117   3.875  50.145  1.00  0.00     0.014 A 
HETATM   15  C12 UNL     1      25.978   4.842  49.201  1.00  0.00     0.007 A 
HETATM   16  C13 UNL     1      24.753   5.453  48.987  1.00  0.00    -0.062 A 
HETATM   17  C14 UNL     1      24.650   6.508  47.944  1.00  0.00     0.048 C 
HETATM   18  C15 UNL     1      23.700   5.004  49.793  1.00  0.00     0.007 A 
HETATM   19  C16 UNL     1      23.865   4.024  50.739  1.00  0.00     0.014 A 
ENDBRANCH  10  13
BRANCH  12  20
HETATM   20  C17 UNL     1      27.527  -0.119  53.107  1.00  0.00     0.192 A 
HETATM   21  N3  UNL     1      27.640  -1.321  53.085  1.00  0.00    -0.198 NA
HETATM   22  C18 UNL     1      28.731  -1.997  53.365  1.00  0.00     0.171 A 
HETATM   23  C19 UNL     1      29.866  -1.203  53.720  1.00  0.00     0.111 A 
HETATM   24  S1  UNL     1      29.118   0.545  53.589  1.00  0.00    -0.058 SA
BRANCH  22  25
HETATM   25  O1  UNL     1      28.667  -3.405  53.289  1.00  0.00    -0.344 OA
HETATM   26  H17 UNL     1      27.806  -3.851  53.026  1.00  0.00     0.219 HD
ENDBRANCH  22  25
ENDBRANCH  12  20
ENDBRANCH   7   8
ENDBRANCH   6   7
ENDBRANCH   5   6
ENDBRANCH   3   5
TORSDOF 7
ENDMDL
MODEL 3
REMARK VINA RESULT:      -7.5      2.551      2.934
REMARK  7 active torsions:
REMARK  status: ('A' for Active; 'I' for Inactive)
REMARK    1  A    between atoms: C3_3  and  C4_5 
REMARK    2  A    between atoms: C4_5  and  C5_6 
REMARK    3  A    between atoms: C5_6  and  C6_7 
REMARK    4  A    between atoms: C6_7  and  C7_8 
REMARK    5  A    between atoms: C9_10  and  C10_11 
REMARK    6  A    between atoms: N2_19  and  C17_20 
REMARK    7  A    between atoms: C18_22  and  O1_23 
ROOT
HETATM    1  C1  UNL     1      27.393   5.109  48.603  1.00  0.00     0.098 C 
HETATM    2  C2  UNL     1      26.196   5.458  49.016  1.00  0.00    -0.136 C 
HETATM    3  C3  UNL     1      25.022   5.926  49.350  1.00  0.00     0.051 C 
HETATM    4 BR1  UNL     1      23.846   6.409  48.004  1.00  0.00    -0.042 Br
ENDROOT
BRANCH   3   5
HETATM    5  C4  UNL     1      24.664   6.056  50.712  1.00  0.00     0.023 C 
BRANCH   5   6
HETATM    6  C5  UNL     1      23.927   5.198  51.385  1.00  0.00    -0.022 C 
BRANCH   6   7
HETATM    7  C6  UNL     1      23.466   3.892  51.866  1.00  0.00     0.055 C 
BRANCH   7   8
HETATM    8  C7  UNL     1      24.363   2.744  51.449  1.00  0.00     0.122 C 
HETATM    9  C8  UNL     1      23.408   1.725  50.771  1.00  0.00     0.089 C 
HETATM   10  C9  UNL     1      22.771   1.219  52.045  1.00  0.00     0.067 C 
HETATM   11  N1  UNL     1      23.643   1.387  53.021  1.00  0.00    -0.174 NA
HETATM   12  N2  UNL     1      24.801   1.948  52.531  1.00  0.00    -0.240 N 
BRANCH  10  13
HETATM   13  C10 UNL     1      21.464   0.608  52.301  1.00  0.00    -0.010 A 
HETATM   14  C11 UNL     1      20.485   0.703  51.350  1.00  0.00     0.014 A 
HETATM   15  C12 UNL     1      19.239   0.182  51.501  1.00  0.00     0.007 A 
HETATM   16  C13 UNL     1      18.888  -0.489  52.661  1.00  0.00    -0.062 A 
HETATM   17  C14 UNL     1      17.512  -1.040  52.782  1.00  0.00     0.048 C 
HETATM   18  C15 UNL     1      19.890  -0.588  53.634  1.00  0.00     0.007 A 
HETATM   19  C16 UNL     1      21.141  -0.055  53.457  1.00  0.00     0.014 A 
ENDBRANCH  10  13
BRANCH  12  20
HETATM   20  C17 UNL     1      26.106   1.656  53.118  1.00  0.00     0.192 A 
HETATM   21  N3  UNL     1      27.101   2.307  52.909  1.00  0.00    -0.198 NA
HETATM   22  C18 UNL     1      28.291   2.080  53.416  1.00  0.00     0.171 A 
HETATM   23  C19 UNL     1      28.375   0.954  54.293  1.00  0.00     0.111 A 
HETATM   24  S1  UNL     1      26.572   0.341  54.242  1.00  0.00    -0.058 SA
BRANCH  22  25
HETATM   25  O1  UNL     1      29.337   2.953  53.047  1.00  0.00    -0.344 OA
HETATM   26  H17 UNL     1      29.517   3.775  53.596  1.00  0.00     0.219 HD
ENDBRANCH  22  25
ENDBRANCH  12  20
ENDBRANCH   7   8
ENDBRANCH   6   7
ENDBRANCH   5   6
ENDBRANCH   3   5
TORSDOF 7
ENDMDL
MODEL 4
REMARK VINA RESULT:      -7.5      2.064      2.310
REMARK  7 active torsions:
REMARK  status: ('A' for Active; 'I' for Inactive)
REMARK    1  A    between atoms: C3_3  and  C4_5 
REMARK    2  A    between atoms: C4_5  and  C5_6 
REMARK    3  A    between atoms: C5_6  and  C6_7 
REMARK    4  A    between atoms: C6_7  and  C7_8 
REMARK    5  A    between atoms: C9_10  and  C10_11 
REMARK    6  A    between atoms: N2_19  and  C17_20 
REMARK    7  A    between atoms: C18_22  and  O1_23 
ROOT
HETATM    1  C1  UNL     1      22.858   6.083  47.311  1.00  0.00     0.098 C 
HETATM    2  C2  UNL     1      23.302   5.700  48.486  1.00  0.00    -0.136 C 
HETATM    3  C3  UNL     1      23.822   5.220  49.585  1.00  0.00     0.051 C 
HETATM    4 BR1  UNL     1      25.666   5.141  49.731  1.00  0.00    -0.042 Br
ENDROOT
BRANCH   3   5
HETATM    5  C4  UNL     1      22.987   4.773  50.636  1.00  0.00     0.023 C 
BRANCH   5   6
HETATM    6  C5  UNL     1      23.411   4.315  51.795  1.00  0.00    -0.022 C 
BRANCH   6   7
HETATM    7  C6  UNL     1      24.194   3.495  52.723  1.00  0.00     0.055 C 
BRANCH   7   8
HETATM    8  C7  UNL     1      25.000   2.410  52.039  1.00  0.00     0.122 C 
HETATM    9  C8  UNL     1      23.946   1.541  51.301  1.00  0.00     0.089 C 
HETATM   10  C9  UNL     1      23.410   0.848  52.532  1.00  0.00     0.067 C 
HETATM   11  N1  UNL     1      24.374   0.828  53.432  1.00  0.00    -0.174 NA
HETATM   12  N2  UNL     1      25.504   1.434  52.929  1.00  0.00    -0.240 N 
BRANCH  10  13
HETATM   13  C10 UNL     1      22.107   0.236  52.812  1.00  0.00    -0.010 A 
HETATM   14  C11 UNL     1      21.026   0.593  52.054  1.00  0.00     0.014 A 
HETATM   15  C12 UNL     1      19.777   0.092  52.246  1.00  0.00     0.007 A 
HETATM   16  C13 UNL     1      19.532  -0.832  53.249  1.00  0.00    -0.062 A 
HETATM   17  C14 UNL     1      18.148  -1.351  53.423  1.00  0.00     0.048 C 
HETATM   18  C15 UNL     1      20.639  -1.199  54.023  1.00  0.00     0.007 A 
HETATM   19  C16 UNL     1      21.890  -0.680  53.809  1.00  0.00     0.014 A 
ENDBRANCH  10  13
BRANCH  12  20
HETATM   20  C17 UNL     1      26.844   1.016  53.330  1.00  0.00     0.192 A 
HETATM   21  N3  UNL     1      27.653   1.749  53.846  1.00  0.00    -0.198 NA
HETATM   22  C18 UNL     1      28.867   1.414  54.223  1.00  0.00     0.171 A 
HETATM   23  C19 UNL     1      29.222   0.050  53.987  1.00  0.00     0.111 A 
HETATM   24  S1  UNL     1      27.618  -0.593  53.186  1.00  0.00    -0.058 SA
BRANCH  22  25
HETATM   25  O1  UNL     1      29.671   2.417  54.805  1.00  0.00    -0.344 OA
HETATM   26  H17 UNL     1      30.257   2.987  54.222  1.00  0.00     0.219 HD
ENDBRANCH  22  25
ENDBRANCH  12  20
ENDBRANCH   7   8
ENDBRANCH   6   7
ENDBRANCH   5   6
ENDBRANCH   3   5
TORSDOF 7
ENDMDL
MODEL 5
REMARK VINA RESULT:      -7.5      1.974      4.929
REMARK  7 active torsions:
REMARK  status: ('A' for Active; 'I' for Inactive)
REMARK    1  A    between atoms: C3_3  and  C4_5 
REMARK    2  A    between atoms: C4_5  and  C5_6 
REMARK    3  A    between atoms: C5_6  and  C6_7 
REMARK    4  A    between atoms: C6_7  and  C7_8 
REMARK    5  A    between atoms: C9_10  and  C10_11 
REMARK    6  A    between atoms: N2_19  and  C17_20 
REMARK    7  A    between atoms: C18_22  and  O1_23 
ROOT
HETATM    1  C1  UNL     1      18.038  -0.770  51.979  1.00  0.00     0.098 C 
HETATM    2  C2  UNL     1      18.989  -0.009  52.469  1.00  0.00    -0.136 C 
HETATM    3  C3  UNL     1      19.984   0.762  52.821  1.00  0.00     0.051 C 
HETATM    4 BR1  UNL     1      20.159   2.412  52.001  1.00  0.00    -0.042 Br
ENDROOT
BRANCH   3   5
HETATM    5  C4  UNL     1      20.902   0.338  53.810  1.00  0.00     0.023 C 
BRANCH   5   6
HETATM    6  C5  UNL     1      22.151  -0.011  53.582  1.00  0.00    -0.022 C 
BRANCH   6   7
HETATM    7  C6  UNL     1      23.462  -0.003  52.925  1.00  0.00     0.055 C 
BRANCH   7   8
HETATM    8  C7  UNL     1      24.423   1.012  53.507  1.00  0.00     0.122 C 
HETATM    9  C8  UNL     1      23.862   2.389  53.060  1.00  0.00     0.089 C 
HETATM   10  C9  UNL     1      24.300   2.287  51.617  1.00  0.00     0.067 C 
HETATM   11  N1  UNL     1      25.354   1.494  51.574  1.00  0.00    -0.174 NA
HETATM   12  N2  UNL     1      25.669   1.057  52.841  1.00  0.00    -0.240 N 
BRANCH  10  13
HETATM   13  C10 UNL     1      23.779   2.912  50.398  1.00  0.00    -0.010 A 
HETATM   14  C11 UNL     1      24.043   4.233  50.159  1.00  0.00     0.014 A 
HETATM   15  C12 UNL     1      23.591   4.902  49.066  1.00  0.00     0.007 A 
HETATM   16  C13 UNL     1      22.817   4.260  48.112  1.00  0.00    -0.062 A 
HETATM   17  C14 UNL     1      22.344   5.035  46.934  1.00  0.00     0.048 C 
HETATM   18  C15 UNL     1      22.549   2.908  48.355  1.00  0.00     0.007 A 
HETATM   19  C16 UNL     1      23.017   2.255  49.466  1.00  0.00     0.014 A 
ENDBRANCH  10  13
BRANCH  12  20
HETATM   20  C17 UNL     1      27.045   0.768  53.234  1.00  0.00     0.192 A 
HETATM   21  N3  UNL     1      27.796   1.585  53.711  1.00  0.00    -0.198 NA
HETATM   22  C18 UNL     1      29.039   1.368  54.079  1.00  0.00     0.171 A 
HETATM   23  C19 UNL     1      29.507   0.032  53.883  1.00  0.00     0.111 A 
HETATM   24  S1  UNL     1      27.952  -0.773  53.131  1.00  0.00    -0.058 SA
BRANCH  22  25
HETATM   25  O1  UNL     1      29.762   2.455  54.614  1.00  0.00    -0.344 OA
HETATM   26  H17 UNL     1      30.762   2.483  54.519  1.00  0.00     0.219 HD
ENDBRANCH  22  25
ENDBRANCH  12  20
ENDBRANCH   7   8
ENDBRANCH   6   7
ENDBRANCH   5   6
ENDBRANCH   3   5
TORSDOF 7
ENDMDL
MODEL 6
REMARK VINA RESULT:      -7.2      3.868      6.503
REMARK  7 active torsions:
REMARK  status: ('A' for Active; 'I' for Inactive)
REMARK    1  A    between atoms: C3_3  and  C4_5 
REMARK    2  A    between atoms: C4_5  and  C5_6 
REMARK    3  A    between atoms: C5_6  and  C6_7 
REMARK    4  A    between atoms: C6_7  and  C7_8 
REMARK    5  A    between atoms: C9_10  and  C10_11 
REMARK    6  A    between atoms: N2_19  and  C17_20 
REMARK    7  A    between atoms: C18_22  and  O1_23 
ROOT
HETATM    1  C1  UNL     1      24.726   7.427  50.125  1.00  0.00     0.098 C 
HETATM    2  C2  UNL     1      24.627   6.157  49.806  1.00  0.00    -0.136 C 
HETATM    3  C3  UNL     1      24.654   4.908  49.422  1.00  0.00     0.051 C 
HETATM    4 BR1  UNL     1      26.125   3.877  49.868  1.00  0.00    -0.042 Br
ENDROOT
BRANCH   3   5
HETATM    5  C4  UNL     1      23.578   4.363  48.682  1.00  0.00     0.023 C 
BRANCH   5   6
HETATM    6  C5  UNL     1      22.943   3.249  48.981  1.00  0.00    -0.022 C 
BRANCH   6   7
HETATM    7  C6  UNL     1      22.607   2.045  49.746  1.00  0.00     0.055 C 
BRANCH   7   8
HETATM    8  C7  UNL     1      21.671   2.307  50.907  1.00  0.00     0.122 C 
HETATM    9  C8  UNL     1      22.591   2.821  52.047  1.00  0.00     0.089 C 
HETATM   10  C9  UNL     1      23.197   1.480  52.390  1.00  0.00     0.067 C 
HETATM   11  N1  UNL     1      22.325   0.549  52.054  1.00  0.00    -0.174 NA
HETATM   12  N2  UNL     1      21.194   1.129  51.525  1.00  0.00    -0.240 N 
BRANCH  10  13
HETATM   13  C10 UNL     1      24.479   1.124  53.007  1.00  0.00    -0.010 A 
HETATM   14  C11 UNL     1      25.383   2.111  53.287  1.00  0.00     0.014 A 
HETATM   15  C12 UNL     1      26.600   1.878  53.843  1.00  0.00     0.007 A 
HETATM   16  C13 UNL     1      26.997   0.589  54.164  1.00  0.00    -0.062 A 
HETATM   17  C14 UNL     1      28.340   0.383  54.770  1.00  0.00     0.048 C 
HETATM   18  C15 UNL     1      26.071  -0.421  53.880  1.00  0.00     0.007 A 
HETATM   19  C16 UNL     1      24.848  -0.160  53.318  1.00  0.00     0.014 A 
ENDBRANCH  10  13
BRANCH  12  20
HETATM   20  C17 UNL     1      19.874   0.524  51.683  1.00  0.00     0.192 A 
HETATM   21  N3  UNL     1      19.560  -0.174  52.617  1.00  0.00    -0.198 NA
HETATM   22  C18 UNL     1      18.386  -0.737  52.798  1.00  0.00     0.171 A 
HETATM   23  C19 UNL     1      17.421  -0.473  51.777  1.00  0.00     0.111 A 
HETATM   24  S1  UNL     1      18.443   0.636  50.613  1.00  0.00    -0.058 SA
BRANCH  22  25
HETATM   25  O1  UNL     1      18.210  -1.526  53.955  1.00  0.00    -0.344 OA
HETATM   26  H17 UNL     1      17.289  -1.653  54.335  1.00  0.00     0.219 HD
ENDBRANCH  22  25
ENDBRANCH  12  20
ENDBRANCH   7   8
ENDBRANCH   6   7
ENDBRANCH   5   6
ENDBRANCH   3   5
TORSDOF 7
ENDMDL
MODEL 7
REMARK VINA RESULT:      -7.2      8.437      9.994
REMARK  7 active torsions:
REMARK  status: ('A' for Active; 'I' for Inactive)
REMARK    1  A    between atoms: C3_3  and  C4_5 
REMARK    2  A    between atoms: C4_5  and  C5_6 
REMARK    3  A    between atoms: C5_6  and  C6_7 
REMARK    4  A    between atoms: C6_7  and  C7_8 
REMARK    5  A    between atoms: C9_10  and  C10_11 
REMARK    6  A    between atoms: N2_19  and  C17_20 
REMARK    7  A    between atoms: C18_22  and  O1_23 
ROOT
HETATM    1  C1  UNL     1      32.243  11.501  45.711  1.00  0.00     0.098 C 
HETATM    2  C2  UNL     1      31.347  11.223  46.630  1.00  0.00    -0.136 C 
HETATM    3  C3  UNL     1      30.405  11.079  47.524  1.00  0.00     0.051 C 
HETATM    4 BR1  UNL     1      28.650  11.380  47.017  1.00  0.00    -0.042 Br
ENDROOT
BRANCH   3   5
HETATM    5  C4  UNL     1      30.726  10.700  48.849  1.00  0.00     0.023 C 
BRANCH   5   6
HETATM    6  C5  UNL     1      30.766   9.461  49.292  1.00  0.00    -0.022 C 
BRANCH   6   7
HETATM    7  C6  UNL     1      30.939   8.007  49.233  1.00  0.00     0.055 C 
BRANCH   7   8
HETATM    8  C7  UNL     1      31.107   7.473  47.826  1.00  0.00     0.122 C 
HETATM    9  C8  UNL     1      29.667   7.425  47.248  1.00  0.00     0.089 C 
HETATM   10  C9  UNL     1      29.216   6.210  48.025  1.00  0.00     0.067 C 
HETATM   11  N1  UNL     1      30.287   5.488  48.296  1.00  0.00    -0.174 NA
HETATM   12  N2  UNL     1      31.409   6.094  47.777  1.00  0.00    -0.240 N 
BRANCH  10  13
HETATM   13  C10 UNL     1      27.883   5.765  48.444  1.00  0.00    -0.010 A 
HETATM   14  C11 UNL     1      27.704   4.465  48.831  1.00  0.00     0.014 A 
HETATM   15  C12 UNL     1      26.506   3.957  49.221  1.00  0.00     0.007 A 
HETATM   16  C13 UNL     1      25.373   4.755  49.246  1.00  0.00    -0.062 A 
HETATM   17  C14 UNL     1      24.083   4.154  49.678  1.00  0.00     0.048 C 
HETATM   18  C15 UNL     1      25.557   6.086  48.853  1.00  0.00     0.007 A 
HETATM   19  C16 UNL     1      26.777   6.575  48.463  1.00  0.00     0.014 A 
ENDBRANCH  10  13
BRANCH  12  20
HETATM   20  C17 UNL     1      32.556   5.318  47.313  1.00  0.00     0.192 A 
HETATM   21  N3  UNL     1      33.244   4.635  48.034  1.00  0.00    -0.198 NA
HETATM   22  C18 UNL     1      34.282   3.922  47.659  1.00  0.00     0.171 A 
HETATM   23  C19 UNL     1      34.590   3.982  46.264  1.00  0.00     0.111 A 
HETATM   24  S1  UNL     1      33.223   5.162  45.658  1.00  0.00    -0.058 SA
BRANCH  22  25
HETATM   25  O1  UNL     1      34.966   3.190  48.653  1.00  0.00    -0.344 OA
HETATM   26  H17 UNL     1      34.446   2.666  49.333  1.00  0.00     0.219 HD
ENDBRANCH  22  25
ENDBRANCH  12  20
ENDBRANCH   7   8
ENDBRANCH   6   7
ENDBRANCH   5   6
ENDBRANCH   3   5
TORSDOF 7
ENDMDL
MODEL 8
REMARK VINA RESULT:      -7.1      3.475      6.400
REMARK  7 active torsions:
REMARK  status: ('A' for Active; 'I' for Inactive)
REMARK    1  A    between atoms: C3_3  and  C4_5 
REMARK    2  A    between atoms: C4_5  and  C5_6 
REMARK    3  A    between atoms: C5_6  and  C6_7 
REMARK    4  A    between atoms: C6_7  and  C7_8 
REMARK    5  A    between atoms: C9_10  and  C10_11 
REMARK    6  A    between atoms: N2_19  and  C17_20 
REMARK    7  A    between atoms: C18_22  and  O1_23 
ROOT
HETATM    1  C1  UNL     1      24.096   8.414  47.387  1.00  0.00     0.098 C 
HETATM    2  C2  UNL     1      24.328   7.299  48.042  1.00  0.00    -0.136 C 
HETATM    3  C3  UNL     1      24.651   6.157  48.589  1.00  0.00     0.051 C 
HETATM    4 BR1  UNL     1      26.438   5.817  48.936  1.00  0.00    -0.042 Br
ENDROOT
BRANCH   3   5
HETATM    5  C4  UNL     1      23.653   5.208  48.908  1.00  0.00     0.023 C 
BRANCH   5   6
HETATM    6  C5  UNL     1      23.719   4.346  49.901  1.00  0.00    -0.022 C 
BRANCH   6   7
HETATM    7  C6  UNL     1      24.059   3.099  50.592  1.00  0.00     0.055 C 
BRANCH   7   8
HETATM    8  C7  UNL     1      23.277   2.884  51.871  1.00  0.00     0.122 C 
HETATM    9  C8  UNL     1      24.347   2.891  52.995  1.00  0.00     0.089 C 
HETATM   10  C9  UNL     1      24.909   1.519  52.699  1.00  0.00     0.067 C 
HETATM   11  N1  UNL     1      23.951   0.808  52.136  1.00  0.00    -0.174 NA
HETATM   12  N2  UNL     1      22.803   1.562  52.029  1.00  0.00    -0.240 N 
BRANCH  10  13
HETATM   13  C10 UNL     1      26.228   0.934  52.957  1.00  0.00    -0.010 A 
HETATM   14  C11 UNL     1      26.411  -0.409  52.769  1.00  0.00     0.014 A 
HETATM   15  C12 UNL     1      27.590  -1.044  52.995  1.00  0.00     0.007 A 
HETATM   16  C13 UNL     1      28.699  -0.342  53.440  1.00  0.00    -0.062 A 
HETATM   17  C14 UNL     1      29.969  -1.080  53.675  1.00  0.00     0.048 C 
HETATM   18  C15 UNL     1      28.513   1.033  53.630  1.00  0.00     0.007 A 
HETATM   19  C16 UNL     1      27.312   1.650  53.394  1.00  0.00     0.014 A 
ENDBRANCH  10  13
BRANCH  12  20
HETATM   20  C17 UNL     1      21.476   0.956  52.100  1.00  0.00     0.192 A 
HETATM   21  N3  UNL     1      21.115   0.226  52.992  1.00  0.00    -0.198 NA
HETATM   22  C18 UNL     1      19.933  -0.338  53.095  1.00  0.00     0.171 A 
HETATM   23  C19 UNL     1      19.019  -0.035  52.039  1.00  0.00     0.111 A 
HETATM   24  S1  UNL     1      20.099   1.111  50.966  1.00  0.00    -0.058 SA
BRANCH  22  25
HETATM   25  O1  UNL     1      19.699  -1.168  54.213  1.00  0.00    -0.344 OA
HETATM   26  H17 UNL     1      19.923  -0.836  55.134  1.00  0.00     0.219 HD
ENDBRANCH  22  25
ENDBRANCH  12  20
ENDBRANCH   7   8
ENDBRANCH   6   7
ENDBRANCH   5   6
ENDBRANCH   3   5
TORSDOF 7
ENDMDL
MODEL 9
REMARK VINA RESULT:      -7.1      3.899      6.604
REMARK  7 active torsions:
REMARK  status: ('A' for Active; 'I' for Inactive)
REMARK    1  A    between atoms: C3_3  and  C4_5 
REMARK    2  A    between atoms: C4_5  and  C5_6 
REMARK    3  A    between atoms: C5_6  and  C6_7 
REMARK    4  A    between atoms: C6_7  and  C7_8 
REMARK    5  A    between atoms: C9_10  and  C10_11 
REMARK    6  A    between atoms: N2_19  and  C17_20 
REMARK    7  A    between atoms: C18_22  and  O1_23 
ROOT
HETATM    1  C1  UNL     1      25.904   7.728  47.639  1.00  0.00     0.098 C 
HETATM    2  C2  UNL     1      25.898   6.744  48.509  1.00  0.00    -0.136 C 
HETATM    3  C3  UNL     1      25.887   5.676  49.262  1.00  0.00     0.051 C 
HETATM    4 BR1  UNL     1      27.180   4.382  48.980  1.00  0.00    -0.042 Br
ENDROOT
BRANCH   3   5
HETATM    5  C4  UNL     1      24.907   5.520  50.269  1.00  0.00     0.023 C 
BRANCH   5   6
HETATM    6  C5  UNL     1      24.049   4.524  50.341  1.00  0.00    -0.022 C 
BRANCH   6   7
HETATM    7  C6  UNL     1      23.590   3.137  50.461  1.00  0.00     0.055 C 
BRANCH   7   8
HETATM    8  C7  UNL     1      22.778   2.875  51.713  1.00  0.00     0.122 C 
HETATM    9  C8  UNL     1      23.824   2.832  52.859  1.00  0.00     0.089 C 
HETATM   10  C9  UNL     1      24.386   1.470  52.522  1.00  0.00     0.067 C 
HETATM   11  N1  UNL     1      23.438   0.787  51.910  1.00  0.00    -0.174 NA
HETATM   12  N2  UNL     1      22.296   1.550  51.807  1.00  0.00    -0.240 N 
BRANCH  10  13
HETATM   13  C10 UNL     1      25.697   0.869  52.785  1.00  0.00    -0.010 A 
HETATM   14  C11 UNL     1      26.787   1.682  52.934  1.00  0.00     0.014 A 
HETATM   15  C12 UNL     1      28.042   1.217  53.165  1.00  0.00     0.007 A 
HETATM   16  C13 UNL     1      28.288  -0.143  53.265  1.00  0.00    -0.062 A 
HETATM   17  C14 UNL     1      29.679  -0.604  53.517  1.00  0.00     0.048 C 
HETATM   18  C15 UNL     1      27.172  -0.975  53.115  1.00  0.00     0.007 A 
HETATM   19  C16 UNL     1      25.914  -0.481  52.883  1.00  0.00     0.014 A 
ENDBRANCH  10  13
BRANCH  12  20
HETATM   20  C17 UNL     1      20.966   0.949  51.824  1.00  0.00     0.192 A 
HETATM   21  N3  UNL     1      20.198   0.981  50.892  1.00  0.00    -0.198 NA
HETATM   22  C18 UNL     1      18.996   0.453  50.865  1.00  0.00     0.171 A 
HETATM   23  C19 UNL     1      18.596  -0.214  52.064  1.00  0.00     0.111 A 
HETATM   24  S1  UNL     1      20.147   0.050  53.139  1.00  0.00    -0.058 SA
BRANCH  22  25
HETATM   25  O1  UNL     1      18.243   0.601  49.680  1.00  0.00    -0.344 OA
HETATM   26  H17 UNL     1      18.429   0.005  48.894  1.00  0.00     0.219 HD
ENDBRANCH  22  25
ENDBRANCH  12  20
ENDBRANCH   7   8
ENDBRANCH   6   7
ENDBRANCH   5   6
ENDBRANCH   3   5
TORSDOF 7
ENDMDL
