MODEL 1
REMARK VINA RESULT:      -9.1      0.000      0.000
REMARK  3 active torsions:
REMARK  status: ('A' for Active; 'I' for Inactive)
REMARK    1  A    between atoms: C4_5  and  C5_6 
REMARK    2  A    between atoms: C5_6  and  N1_7 
REMARK    3  A    between atoms: N1_7  and  C6_8 
ROOT
HETATM    1  O1  UNL     1      22.844   0.438  52.951  1.00  0.00     0.000 OA
HETATM    2  C1  UNL     1      23.023  -0.430  54.061  1.00  0.00    -0.001 A 
HETATM    3  C2  UNL     1      23.654   0.375  53.277  1.00  0.00     0.070 A 
HETATM    4  C3  UNL     1      23.172   1.152  52.125  1.00  0.00     0.119 C 
HETATM    5  C4  UNL     1      24.404   1.726  51.894  1.00  0.00     0.134 C 
HETATM    6  N2  UNL     1      25.399   1.366  52.744  1.00  0.00    -0.410 NA
HETATM    7  C12 UNL     1      26.452   1.305  53.309  1.00  0.00     0.252 C 
HETATM    8  S1  UNL     1      26.859   0.199  54.663  1.00  0.00     0.030 SA
HETATM    9  N3  UNL     1      25.637  -0.719  55.347  1.00  0.00    -0.225 NA
HETATM   10  C13 UNL     1      24.488  -1.110  55.411  1.00  0.00     0.111 C 
HETATM   11  C14 UNL     1      23.064  -1.350  55.193  1.00  0.00     0.022 A 
HETATM   12  C15 UNL     1      21.910  -1.223  54.625  1.00  0.00     0.014 A 
HETATM   13  C16 UNL     1      20.725  -0.991  53.917  1.00  0.00     0.028 C 
HETATM   14  C17 UNL     1      20.353  -0.047  52.884  1.00  0.00     0.147 C 
HETATM   15  N4  UNL     1      20.961   0.230  51.667  1.00  0.00    -0.297 N 
HETATM   16  O2  UNL     1      21.909   1.212  51.549  1.00  0.00    -0.243 OA
HETATM   17  H1  UNL     1      22.413   1.415  53.517  1.00  0.00     0.000 HD
HETATM   18  H17 UNL     1      21.148  -0.573  51.049  1.00  0.00     0.188 HD
ENDROOT
BRANCH   5  19
HETATM   19  C5  UNL     1      24.295   2.615  50.743  1.00  0.00     0.195 C 
BRANCH  19  20
HETATM   20  N1  UNL     1      24.805   3.970  50.985  1.00  0.00    -0.383 N 
HETATM   21  H5  UNL     1      24.438   4.398  51.880  1.00  0.00     0.160 HD
BRANCH  20  22
HETATM   22  C6  UNL     1      25.694   4.684  50.140  1.00  0.00     0.029 A 
HETATM   23  C7  UNL     1      26.730   4.032  49.488  1.00  0.00     0.029 A 
HETATM   24  C8  UNL     1      27.584   4.743  48.664  1.00  0.00     0.004 A 
HETATM   25  C9  UNL     1      27.436   6.095  48.468  1.00  0.00     0.019 A 
HETATM   26  C10 UNL     1      26.402   6.770  49.116  1.00  0.00     0.013 A 
HETATM   27 BR1  UNL     1      26.109   8.662  48.894  1.00  0.00    -0.051 Br
HETATM   28  C11 UNL     1      25.530   6.047  49.957  1.00  0.00     0.048 A 
ENDBRANCH  20  22
ENDBRANCH  19  20
ENDBRANCH   5  19
TORSDOF 3
ENDMDL
MODEL 2
REMARK VINA RESULT:      -9.1      1.637      2.173
REMARK  3 active torsions:
REMARK  status: ('A' for Active; 'I' for Inactive)
REMARK    1  A    between atoms: C4_5  and  C5_6 
REMARK    2  A    between atoms: C5_6  and  N1_7 
REMARK    3  A    between atoms: N1_7  and  C6_8 
ROOT
HETATM    1  O1  UNL     1      24.414   1.361  51.963  1.00  0.00     0.000 OA
HETATM    2  C1  UNL     1      24.224   0.399  52.990  1.00  0.00    -0.001 A 
HETATM    3  C2  UNL     1      25.124   1.122  52.415  1.00  0.00     0.070 A 
HETATM    4  C3  UNL     1      25.012   2.057  51.285  1.00  0.00     0.119 C 
HETATM    5  C4  UNL     1      26.346   2.399  51.331  1.00  0.00     0.134 C 
HETATM    6  N2  UNL     1      27.083   1.796  52.298  1.00  0.00    -0.410 NA
HETATM    7  C12 UNL     1      27.983   1.495  53.027  1.00  0.00     0.252 C 
HETATM    8  S1  UNL     1      27.927   0.238  54.307  1.00  0.00     0.030 SA
HETATM    9  N3  UNL     1      26.456  -0.476  54.671  1.00  0.00    -0.225 NA
HETATM   10  C13 UNL     1      25.266  -0.643  54.494  1.00  0.00     0.111 C 
HETATM   11  C14 UNL     1      23.889  -0.590  54.009  1.00  0.00     0.022 A 
HETATM   12  C15 UNL     1      22.904  -0.205  53.267  1.00  0.00     0.014 A 
HETATM   13  C16 UNL     1      21.933   0.300  52.393  1.00  0.00     0.028 C 
HETATM   14  C17 UNL     1      21.934   1.368  51.416  1.00  0.00     0.147 C 
HETATM   15  N4  UNL     1      22.800   1.609  50.358  1.00  0.00    -0.297 N 
HETATM   16  O2  UNL     1      23.910   2.397  50.509  1.00  0.00    -0.243 OA
HETATM   17  H1  UNL     1      24.061   2.360  52.546  1.00  0.00     0.000 HD
HETATM   18  H17 UNL     1      22.957   0.831  49.701  1.00  0.00     0.188 HD
ENDROOT
BRANCH   5  19
HETATM   19  C5  UNL     1      26.614   3.372  50.279  1.00  0.00     0.195 C 
BRANCH  19  20
HETATM   20  N1  UNL     1      25.887   4.637  50.435  1.00  0.00    -0.383 N 
HETATM   21  H5  UNL     1      25.492   4.772  51.407  1.00  0.00     0.160 HD
BRANCH  20  22
HETATM   22  C6  UNL     1      25.695   5.614  49.423  1.00  0.00     0.029 A 
HETATM   23  C7  UNL     1      24.418   5.974  49.019  1.00  0.00     0.029 A 
HETATM   24  C8  UNL     1      24.249   6.932  48.035  1.00  0.00     0.004 A 
HETATM   25  C9  UNL     1      25.323   7.547  47.437  1.00  0.00     0.019 A 
HETATM   26  C10 UNL     1      26.615   7.197  47.828  1.00  0.00     0.013 A 
HETATM   27 BR1  UNL     1      28.181   8.013  47.055  1.00  0.00    -0.051 Br
HETATM   28  C11 UNL     1      26.790   6.221  48.830  1.00  0.00     0.048 A 
ENDBRANCH  20  22
ENDBRANCH  19  20
ENDBRANCH   5  19
TORSDOF 3
ENDMDL
MODEL 3
REMARK VINA RESULT:      -8.8      2.161      3.604
REMARK  3 active torsions:
REMARK  status: ('A' for Active; 'I' for Inactive)
REMARK    1  A    between atoms: C4_5  and  C5_6 
REMARK    2  A    between atoms: C5_6  and  N1_7 
REMARK    3  A    between atoms: N1_7  and  C6_8 
ROOT
HETATM    1  O1  UNL     1      25.789   1.289  52.641  1.00  0.00     0.000 OA
HETATM    2  C1  UNL     1      25.459   0.348  53.652  1.00  0.00    -0.001 A 
HETATM    3  C2  UNL     1      24.956   1.021  52.675  1.00  0.00     0.070 A 
HETATM    4  C3  UNL     1      25.583   2.003  51.776  1.00  0.00     0.119 C 
HETATM    5  C4  UNL     1      24.426   2.201  51.054  1.00  0.00     0.134 C 
HETATM    6  N2  UNL     1      23.348   1.475  51.444  1.00  0.00    -0.410 NA
HETATM    7  C12 UNL     1      22.258   0.983  51.490  1.00  0.00     0.252 C 
HETATM    8  S1  UNL     1      21.663  -0.147  52.750  1.00  0.00     0.030 SA
HETATM    9  N3  UNL     1      22.749  -0.734  53.882  1.00  0.00    -0.225 NA
HETATM   10  C13 UNL     1      23.852  -0.793  54.389  1.00  0.00     0.111 C 
HETATM   11  C14 UNL     1      25.260  -0.614  54.731  1.00  0.00     0.022 A 
HETATM   12  C15 UNL     1      26.456  -0.135  54.631  1.00  0.00     0.014 A 
HETATM   13  C16 UNL     1      27.703   0.461  54.407  1.00  0.00     0.028 C 
HETATM   14  C17 UNL     1      28.226   1.304  53.353  1.00  0.00     0.147 C 
HETATM   15  N4  UNL     1      27.730   2.489  52.828  1.00  0.00    -0.297 N 
HETATM   16  O2  UNL     1      26.883   2.494  51.751  1.00  0.00    -0.243 OA
HETATM   17  H1  UNL     1      26.266   0.548  51.814  1.00  0.00     0.000 HD
HETATM   18  H17 UNL     1      27.514   3.240  53.501  1.00  0.00     0.188 HD
ENDROOT
BRANCH   5  19
HETATM   19  C5  UNL     1      24.691   3.183  50.009  1.00  0.00     0.195 C 
BRANCH  19  20
HETATM   20  N1  UNL     1      25.282   4.433  50.499  1.00  0.00    -0.383 N 
HETATM   21  H5  UNL     1      25.027   4.648  51.503  1.00  0.00     0.160 HD
BRANCH  20  22
HETATM   22  C6  UNL     1      26.114   5.307  49.751  1.00  0.00     0.029 A 
HETATM   23  C7  UNL     1      27.173   4.811  49.005  1.00  0.00     0.029 A 
HETATM   24  C8  UNL     1      27.970   5.677  48.278  1.00  0.00     0.004 A 
HETATM   25  C9  UNL     1      27.742   7.032  48.270  1.00  0.00     0.019 A 
HETATM   26  C10 UNL     1      26.683   7.550  49.015  1.00  0.00     0.013 A 
HETATM   27 BR1  UNL     1      26.278   9.435  49.056  1.00  0.00    -0.051 Br
HETATM   28  C11 UNL     1      25.869   6.670  49.758  1.00  0.00     0.048 A 
ENDBRANCH  20  22
ENDBRANCH  19  20
ENDBRANCH   5  19
TORSDOF 3
ENDMDL
MODEL 4
REMARK VINA RESULT:      -8.7      2.412      4.057
REMARK  3 active torsions:
REMARK  status: ('A' for Active; 'I' for Inactive)
REMARK    1  A    between atoms: C4_5  and  C5_6 
REMARK    2  A    between atoms: C5_6  and  N1_7 
REMARK    3  A    between atoms: N1_7  and  C6_8 
ROOT
HETATM    1  O1  UNL     1      26.004   1.427  52.496  1.00  0.00     0.000 OA
HETATM    2  C1  UNL     1      25.464   0.480  53.407  1.00  0.00    -0.001 A 
HETATM    3  C2  UNL     1      25.155   1.233  52.407  1.00  0.00     0.070 A 
HETATM    4  C3  UNL     1      25.975   2.190  51.649  1.00  0.00     0.119 C 
HETATM    5  C4  UNL     1      24.946   2.519  50.794  1.00  0.00     0.134 C 
HETATM    6  N2  UNL     1      23.768   1.878  51.003  1.00  0.00    -0.410 NA
HETATM    7  C12 UNL     1      22.645   1.485  50.882  1.00  0.00     0.252 C 
HETATM    8  S1  UNL     1      21.794   0.363  51.996  1.00  0.00     0.030 SA
HETATM    9  N3  UNL     1      22.666  -0.363  53.227  1.00  0.00    -0.225 NA
HETATM   10  C13 UNL     1      23.683  -0.541  53.870  1.00  0.00     0.111 C 
HETATM   11  C14 UNL     1      25.043  -0.502  54.400  1.00  0.00     0.022 A 
HETATM   12  C15 UNL     1      26.277  -0.129  54.480  1.00  0.00     0.014 A 
HETATM   13  C16 UNL     1      27.588   0.362  54.451  1.00  0.00     0.028 C 
HETATM   14  C17 UNL     1      28.316   1.196  53.518  1.00  0.00     0.147 C 
HETATM   15  N4  UNL     1      27.996   2.440  52.994  1.00  0.00    -0.297 N 
HETATM   16  O2  UNL     1      27.303   2.563  51.818  1.00  0.00    -0.243 OA
HETATM   17  H1  UNL     1      26.523   0.679  51.701  1.00  0.00     0.000 HD
HETATM   18  H17 UNL     1      27.755   3.180  53.670  1.00  0.00     0.188 HD
ENDROOT
BRANCH   5  19
HETATM   19  C5  UNL     1      25.430   3.514  49.843  1.00  0.00     0.195 C 
BRANCH  19  20
HETATM   20  N1  UNL     1      25.807   4.793  50.456  1.00  0.00    -0.383 N 
HETATM   21  H5  UNL     1      26.502   4.686  51.246  1.00  0.00     0.160 HD
BRANCH  20  22
HETATM   22  C6  UNL     1      25.319   6.070  50.076  1.00  0.00     0.029 A 
HETATM   23  C7  UNL     1      24.555   6.827  50.953  1.00  0.00     0.029 A 
HETATM   24  C8  UNL     1      24.093   8.073  50.568  1.00  0.00     0.004 A 
HETATM   25  C9  UNL     1      24.370   8.592  49.326  1.00  0.00     0.019 A 
HETATM   26  C10 UNL     1      25.136   7.846  48.430  1.00  0.00     0.013 A 
HETATM   27 BR1  UNL     1      25.586   8.496  46.671  1.00  0.00    -0.051 Br
HETATM   28  C11 UNL     1      25.607   6.576  48.819  1.00  0.00     0.048 A 
ENDBRANCH  20  22
ENDBRANCH  19  20
ENDBRANCH   5  19
TORSDOF 3
ENDMDL
MODEL 5
REMARK VINA RESULT:      -8.7      2.150      3.487
REMARK  3 active torsions:
REMARK  status: ('A' for Active; 'I' for Inactive)
REMARK    1  A    between atoms: C4_5  and  C5_6 
REMARK    2  A    between atoms: C5_6  and  N1_7 
REMARK    3  A    between atoms: N1_7  and  C6_8 
ROOT
HETATM    1  O1  UNL     1      22.965   0.395  52.561  1.00  0.00     0.000 OA
HETATM    2  C1  UNL     1      22.160  -0.352  53.462  1.00  0.00    -0.001 A 
HETATM    3  C2  UNL     1      22.104   0.382  52.403  1.00  0.00     0.070 A 
HETATM    4  C3  UNL     1      23.173   1.087  51.679  1.00  0.00     0.119 C 
HETATM    5  C4  UNL     1      22.313   1.572  50.718  1.00  0.00     0.134 C 
HETATM    6  N2  UNL     1      21.010   1.213  50.847  1.00  0.00    -0.410 NA
HETATM    7  C12 UNL     1      19.841   1.062  50.641  1.00  0.00     0.252 C 
HETATM    8  S1  UNL     1      18.679   0.226  51.723  1.00  0.00     0.030 SA
HETATM    9  N3  UNL     1      19.269  -0.586  53.063  1.00  0.00    -0.225 NA
HETATM   10  C13 UNL     1      20.166  -0.934  53.805  1.00  0.00     0.111 C 
HETATM   11  C14 UNL     1      21.454  -1.151  54.458  1.00  0.00     0.022 A 
HETATM   12  C15 UNL     1      22.730  -1.047  54.634  1.00  0.00     0.014 A 
HETATM   13  C16 UNL     1      24.115  -0.851  54.704  1.00  0.00     0.028 C 
HETATM   14  C17 UNL     1      25.081  -0.257  53.804  1.00  0.00     0.147 C 
HETATM   15  N4  UNL     1      25.084   0.989  53.193  1.00  0.00    -0.297 N 
HETATM   16  O2  UNL     1      24.532   1.178  51.953  1.00  0.00    -0.243 OA
HETATM   17  H1  UNL     1      23.371  -0.498  51.854  1.00  0.00     0.000 HD
HETATM   18  H17 UNL     1      24.958   1.807  53.808  1.00  0.00     0.188 HD
ENDROOT
BRANCH   5  19
HETATM   19  C5  UNL     1      23.078   2.374  49.769  1.00  0.00     0.195 C 
BRANCH  19  20
HETATM   20  N1  UNL     1      23.834   3.469  50.387  1.00  0.00    -0.383 N 
HETATM   21  H5  UNL     1      23.503   3.703  51.364  1.00  0.00     0.160 HD
BRANCH  20  22
HETATM   22  C6  UNL     1      24.904   4.181  49.785  1.00  0.00     0.029 A 
HETATM   23  C7  UNL     1      26.166   3.613  49.684  1.00  0.00     0.029 A 
HETATM   24  C8  UNL     1      27.196   4.318  49.089  1.00  0.00     0.004 A 
HETATM   25  C9  UNL     1      27.006   5.583  48.587  1.00  0.00     0.019 A 
HETATM   26  C10 UNL     1      25.745   6.173  48.679  1.00  0.00     0.013 A 
HETATM   27 BR1  UNL     1      25.381   7.937  47.992  1.00  0.00    -0.051 Br
HETATM   28  C11 UNL     1      24.694   5.456  49.286  1.00  0.00     0.048 A 
ENDBRANCH  20  22
ENDBRANCH  19  20
ENDBRANCH   5  19
TORSDOF 3
ENDMDL
MODEL 6
REMARK VINA RESULT:      -8.1      2.492      4.097
REMARK  3 active torsions:
REMARK  status: ('A' for Active; 'I' for Inactive)
REMARK    1  A    between atoms: C4_5  and  C5_6 
REMARK    2  A    between atoms: C5_6  and  N1_7 
REMARK    3  A    between atoms: N1_7  and  C6_8 
ROOT
HETATM    1  O1  UNL     1      25.432   1.581  51.779  1.00  0.00     0.000 OA
HETATM    2  C1  UNL     1      24.289   0.979  52.371  1.00  0.00    -0.001 A 
HETATM    3  C2  UNL     1      24.650   1.876  51.518  1.00  0.00     0.070 A 
HETATM    4  C3  UNL     1      25.994   2.322  51.119  1.00  0.00     0.119 C 
HETATM    5  C4  UNL     1      25.509   3.229  50.202  1.00  0.00     0.134 C 
HETATM    6  N2  UNL     1      24.158   3.292  50.081  1.00  0.00    -0.410 NA
HETATM    7  C12 UNL     1      23.057   3.567  49.703  1.00  0.00     0.252 C 
HETATM    8  S1  UNL     1      21.519   2.963  50.405  1.00  0.00     0.030 SA
HETATM    9  N3  UNL     1      21.584   1.768  51.576  1.00  0.00    -0.225 NA
HETATM   10  C13 UNL     1      22.186   1.017  52.319  1.00  0.00     0.111 C 
HETATM   11  C14 UNL     1      23.208   0.278  53.054  1.00  0.00     0.022 A 
HETATM   12  C15 UNL     1      24.402  -0.070  53.406  1.00  0.00     0.014 A 
HETATM   13  C16 UNL     1      25.745  -0.347  53.689  1.00  0.00     0.028 C 
HETATM   14  C17 UNL     1      26.993   0.061  53.082  1.00  0.00     0.147 C 
HETATM   15  N4  UNL     1      27.471   1.331  52.789  1.00  0.00    -0.297 N 
HETATM   16  O2  UNL     1      27.244   1.917  51.571  1.00  0.00    -0.243 OA
HETATM   17  H1  UNL     1      25.690   0.754  50.936  1.00  0.00     0.000 HD
HETATM   18  H17 UNL     1      27.471   2.016  53.560  1.00  0.00     0.188 HD
ENDROOT
BRANCH   5  19
HETATM   19  C5  UNL     1      26.638   3.904  49.572  1.00  0.00     0.195 C 
BRANCH  19  20
HETATM   20  N1  UNL     1      26.470   5.357  49.446  1.00  0.00    -0.383 N 
HETATM   21  H5  UNL     1      25.745   5.751  50.108  1.00  0.00     0.160 HD
BRANCH  20  22
HETATM   22  C6  UNL     1      27.175   6.198  48.546  1.00  0.00     0.029 A 
HETATM   23  C7  UNL     1      28.521   5.986  48.284  1.00  0.00     0.029 A 
HETATM   24  C8  UNL     1      29.191   6.811  47.400  1.00  0.00     0.004 A 
HETATM   25  C9  UNL     1      28.557   7.851  46.763  1.00  0.00     0.019 A 
HETATM   26  C10 UNL     1      27.204   8.082  47.014  1.00  0.00     0.013 A 
HETATM   27 BR1  UNL     1      26.227   9.507  46.159  1.00  0.00    -0.051 Br
HETATM   28  C11 UNL     1      26.519   7.242  47.915  1.00  0.00     0.048 A 
ENDBRANCH  20  22
ENDBRANCH  19  20
ENDBRANCH   5  19
TORSDOF 3
ENDMDL
MODEL 7
REMARK VINA RESULT:      -7.9      1.754      2.392
REMARK  3 active torsions:
REMARK  status: ('A' for Active; 'I' for Inactive)
REMARK    1  A    between atoms: C4_5  and  C5_6 
REMARK    2  A    between atoms: C5_6  and  N1_7 
REMARK    3  A    between atoms: N1_7  and  C6_8 
ROOT
HETATM    1  O1  UNL     1      23.465   2.199  51.668  1.00  0.00     0.000 OA
HETATM    2  C1  UNL     1      22.939   1.230  52.564  1.00  0.00    -0.001 A 
HETATM    3  C2  UNL     1      24.024   1.599  51.974  1.00  0.00     0.070 A 
HETATM    4  C3  UNL     1      24.262   2.690  51.017  1.00  0.00     0.119 C 
HETATM    5  C4  UNL     1      25.609   2.418  50.917  1.00  0.00     0.134 C 
HETATM    6  N2  UNL     1      26.067   1.386  51.671  1.00  0.00    -0.410 NA
HETATM    7  C12 UNL     1      26.787   0.598  52.211  1.00  0.00     0.252 C 
HETATM    8  S1  UNL     1      26.267  -0.735  53.294  1.00  0.00     0.030 SA
HETATM    9  N3  UNL     1      24.660  -0.812  53.762  1.00  0.00    -0.225 NA
HETATM   10  C13 UNL     1      23.510  -0.421  53.737  1.00  0.00     0.111 C 
HETATM   11  C14 UNL     1      22.270   0.303  53.470  1.00  0.00     0.022 A 
HETATM   12  C15 UNL     1      21.510   1.203  52.941  1.00  0.00     0.014 A 
HETATM   13  C16 UNL     1      20.806   2.230  52.299  1.00  0.00     0.028 C 
HETATM   14  C17 UNL     1      21.214   3.361  51.494  1.00  0.00     0.147 C 
HETATM   15  N4  UNL     1      22.023   3.411  50.366  1.00  0.00    -0.297 N 
HETATM   16  O2  UNL     1      23.375   3.608  50.465  1.00  0.00    -0.243 OA
HETATM   17  H1  UNL     1      23.632   3.121  52.432  1.00  0.00     0.000 HD
HETATM   18  H17 UNL     1      21.774   2.780  49.590  1.00  0.00     0.188 HD
ENDROOT
BRANCH   5  19
HETATM   19  C5  UNL     1      26.208   3.367  49.986  1.00  0.00     0.195 C 
BRANCH  19  20
HETATM   20  N1  UNL     1      26.045   4.772  50.377  1.00  0.00    -0.383 N 
HETATM   21  H5  UNL     1      25.988   4.908  51.424  1.00  0.00     0.160 HD
BRANCH  20  22
HETATM   22  C6  UNL     1      25.961   5.875  49.488  1.00  0.00     0.029 A 
HETATM   23  C7  UNL     1      26.992   6.152  48.602  1.00  0.00     0.029 A 
HETATM   24  C8  UNL     1      26.891   7.228  47.739  1.00  0.00     0.004 A 
HETATM   25  C9  UNL     1      25.786   8.045  47.731  1.00  0.00     0.019 A 
HETATM   26  C10 UNL     1      24.739   7.784  48.616  1.00  0.00     0.013 A 
HETATM   27 BR1  UNL     1      23.144   8.866  48.670  1.00  0.00    -0.051 Br
HETATM   28  C11 UNL     1      24.839   6.688  49.497  1.00  0.00     0.048 A 
ENDBRANCH  20  22
ENDBRANCH  19  20
ENDBRANCH   5  19
TORSDOF 3
ENDMDL
MODEL 8
REMARK VINA RESULT:      -7.8      3.533      7.352
REMARK  3 active torsions:
REMARK  status: ('A' for Active; 'I' for Inactive)
REMARK    1  A    between atoms: C4_5  and  C5_6 
REMARK    2  A    between atoms: C5_6  and  N1_7 
REMARK    3  A    between atoms: N1_7  and  C6_8 
ROOT
HETATM    1  O1  UNL     1      24.327   1.885  51.254  1.00  0.00     0.000 OA
HETATM    2  C1  UNL     1      25.627   1.740  51.808  1.00  0.00    -0.001 A 
HETATM    3  C2  UNL     1      24.406   1.349  51.942  1.00  0.00     0.070 A 
HETATM    4  C3  UNL     1      23.200   1.724  51.188  1.00  0.00     0.119 C 
HETATM    5  C4  UNL     1      22.386   0.881  51.913  1.00  0.00     0.134 C 
HETATM    6  N2  UNL     1      22.995   0.153  52.884  1.00  0.00    -0.410 NA
HETATM    7  C12 UNL     1      23.203  -0.638  53.757  1.00  0.00     0.252 C 
HETATM    8  S1  UNL     1      24.762  -0.875  54.615  1.00  0.00     0.030 SA
HETATM    9  N3  UNL     1      26.118  -0.066  54.058  1.00  0.00    -0.225 NA
HETATM   10  C13 UNL     1      26.680   0.712  53.312  1.00  0.00     0.111 C 
HETATM   11  C14 UNL     1      27.009   1.684  52.274  1.00  0.00     0.022 A 
HETATM   12  C15 UNL     1      26.792   2.482  51.281  1.00  0.00     0.014 A 
HETATM   13  C16 UNL     1      26.416   3.305  50.212  1.00  0.00     0.028 C 
HETATM   14  C17 UNL     1      25.193   3.449  49.452  1.00  0.00     0.147 C 
HETATM   15  N4  UNL     1      23.892   3.667  49.885  1.00  0.00    -0.297 N 
HETATM   16  O2  UNL     1      23.041   2.625  50.142  1.00  0.00    -0.243 OA
HETATM   17  H1  UNL     1      24.412   1.122  50.321  1.00  0.00     0.000 HD
HETATM   18  H17 UNL     1      23.743   4.462  50.524  1.00  0.00     0.188 HD
ENDROOT
BRANCH   5  19
HETATM   19  C5  UNL     1      21.023   1.001  51.409  1.00  0.00     0.195 C 
BRANCH  19  20
HETATM   20  N1  UNL     1      19.994   0.954  52.454  1.00  0.00    -0.383 N 
HETATM   21  H5  UNL     1      19.951   1.837  53.036  1.00  0.00     0.160 HD
BRANCH  20  22
HETATM   22  C6  UNL     1      19.120  -0.135  52.708  1.00  0.00     0.029 A 
HETATM   23  C7  UNL     1      19.482  -1.142  53.591  1.00  0.00     0.029 A 
HETATM   24  C8  UNL     1      18.616  -2.194  53.832  1.00  0.00     0.004 A 
HETATM   25  C9  UNL     1      17.390  -2.273  53.216  1.00  0.00     0.019 A 
HETATM   26  C10 UNL     1      17.008  -1.271  52.324  1.00  0.00     0.013 A 
HETATM   27 BR1  UNL     1      15.304  -1.290  51.422  1.00  0.00    -0.051 Br
HETATM   28  C11 UNL     1      17.889  -0.198  52.076  1.00  0.00     0.048 A 
ENDBRANCH  20  22
ENDBRANCH  19  20
ENDBRANCH   5  19
TORSDOF 3
ENDMDL
MODEL 9
REMARK VINA RESULT:      -7.7      3.942      8.417
REMARK  3 active torsions:
REMARK  status: ('A' for Active; 'I' for Inactive)
REMARK    1  A    between atoms: C4_5  and  C5_6 
REMARK    2  A    between atoms: C5_6  and  N1_7 
REMARK    3  A    between atoms: N1_7  and  C6_8 
ROOT
HETATM    1  O1  UNL     1      26.356   5.631  48.817  1.00  0.00     0.000 OA
HETATM    2  C1  UNL     1      25.668   6.701  48.185  1.00  0.00    -0.001 A 
HETATM    3  C2  UNL     1      25.483   5.635  48.886  1.00  0.00     0.070 A 
HETATM    4  C3  UNL     1      26.453   4.652  49.394  1.00  0.00     0.119 C 
HETATM    5  C4  UNL     1      25.484   3.900  50.022  1.00  0.00     0.134 C 
HETATM    6  N2  UNL     1      24.210   4.357  49.913  1.00  0.00    -0.410 NA
HETATM    7  C12 UNL     1      23.029   4.489  50.049  1.00  0.00     0.252 C 
HETATM    8  S1  UNL     1      22.008   5.730  49.249  1.00  0.00     0.030 SA
HETATM    9  N3  UNL     1      22.756   6.941  48.367  1.00  0.00    -0.225 NA
HETATM   10  C13 UNL     1      23.736   7.483  47.895  1.00  0.00     0.111 C 
HETATM   11  C14 UNL     1      25.092   7.850  47.495  1.00  0.00     0.022 A 
HETATM   12  C15 UNL     1      26.377   7.743  47.413  1.00  0.00     0.014 A 
HETATM   13  C16 UNL     1      27.757   7.506  47.407  1.00  0.00     0.028 C 
HETATM   14  C17 UNL     1      28.607   6.569  48.110  1.00  0.00     0.147 C 
HETATM   15  N4  UNL     1      28.519   5.187  48.213  1.00  0.00    -0.297 N 
HETATM   16  O2  UNL     1      27.832   4.589  49.236  1.00  0.00    -0.243 OA
HETATM   17  H1  UNL     1      26.699   6.178  49.839  1.00  0.00     0.000 HD
HETATM   18  H17 UNL     1      28.445   4.661  47.330  1.00  0.00     0.188 HD
ENDROOT
BRANCH   5  19
HETATM   19  C5  UNL     1      26.125   2.764  50.673  1.00  0.00     0.195 C 
BRANCH  19  20
HETATM   20  N1  UNL     1      25.766   2.605  52.087  1.00  0.00    -0.383 N 
HETATM   21  H5  UNL     1      26.138   3.382  52.700  1.00  0.00     0.160 HD
BRANCH  20  22
HETATM   22  C6  UNL     1      25.006   1.538  52.635  1.00  0.00     0.029 A 
HETATM   23  C7  UNL     1      25.629   0.390  53.101  1.00  0.00     0.029 A 
HETATM   24  C8  UNL     1      24.874  -0.637  53.636  1.00  0.00     0.004 A 
HETATM   25  C9  UNL     1      23.504  -0.555  53.723  1.00  0.00     0.019 A 
HETATM   26  C10 UNL     1      22.859   0.591  53.259  1.00  0.00     0.013 A 
HETATM   27 BR1  UNL     1      20.945   0.802  53.350  1.00  0.00    -0.051 Br
HETATM   28  C11 UNL     1      23.627   1.639  52.712  1.00  0.00     0.048 A 
ENDBRANCH  20  22
ENDBRANCH  19  20
ENDBRANCH   5  19
TORSDOF 3
ENDMDL
