MODEL 1
REMARK VINA RESULT:      -8.9      0.000      0.000
REMARK  2 active torsions:
REMARK  status: ('A' for Active; 'I' for Inactive)
REMARK    1  A    between atoms: C7_7  and  N1_8 
REMARK    2  A    between atoms: N1_8  and  C8_9 
REMARK       I    between atoms: N4_17  and  C14_18 
ROOT
HETATM    1  C1  UNL     1      18.912   0.520  51.409  1.00  0.00     0.018 C 
HETATM    2  C2  UNL     1      19.846   0.202  52.116  1.00  0.00    -0.078 C 
HETATM    3  C3  UNL     1      20.954  -0.175  52.933  1.00  0.00     0.019 A 
HETATM    4  C4  UNL     1      20.728  -0.633  54.211  1.00  0.00     0.021 A 
HETATM    5  C5  UNL     1      21.815  -0.989  54.977  1.00  0.00     0.004 A 
HETATM    6  C6  UNL     1      23.100  -0.897  54.497  1.00  0.00     0.029 A 
HETATM    7  C7  UNL     1      23.393  -0.440  53.208  1.00  0.00     0.031 A 
HETATM    8  C17 UNL     1      22.261  -0.103  52.502  1.00  0.00     0.049 A 
ENDROOT
BRANCH   7   9
HETATM    9  N1  UNL     1      24.705  -0.370  52.769  1.00  0.00    -0.361 N 
HETATM   10  H5  UNL     1      25.163  -1.297  52.486  1.00  0.00     0.162 HD
BRANCH   9  11
HETATM   11  C8  UNL     1      25.592   0.710  52.617  1.00  0.00     0.173 A 
HETATM   12  N2  UNL     1      25.194   1.546  51.726  1.00  0.00    -0.183 NA
HETATM   13  C9  UNL     1      25.864   2.729  51.343  1.00  0.00     0.094 A 
HETATM   14  N3  UNL     1      26.396   2.007  52.246  1.00  0.00     0.000 N 
HETATM   15  C10 UNL     1      27.555   2.137  52.974  1.00  0.00    -0.022 A 
HETATM   16  C16 UNL     1      26.797   0.888  53.396  1.00  0.00     0.174 A 
HETATM   17  C11 UNL     1      28.658   2.437  53.628  1.00  0.00     0.011 C 
HETATM   18  C12 UNL     1      29.405   1.398  54.324  1.00  0.00     0.018 C 
HETATM   19  C13 UNL     1      28.933   0.162  54.239  1.00  0.00     0.095 C 
HETATM   20  N4  UNL     1      27.740  -0.168  53.490  1.00  0.00    -0.315 N 
HETATM   21  C14 UNL     1      27.726  -1.504  52.968  1.00  0.00     0.220 C 
HETATM   22  C15 UNL     1      28.830  -2.465  53.198  1.00  0.00     0.117 C 
HETATM   23  O1  UNL     1      26.782  -1.967  52.280  1.00  0.00    -0.273 OA
ENDBRANCH   9  11
ENDBRANCH   7   9
TORSDOF 2
ENDMDL
MODEL 2
REMARK VINA RESULT:      -8.1      3.551      6.057
REMARK  2 active torsions:
REMARK  status: ('A' for Active; 'I' for Inactive)
REMARK    1  A    between atoms: C7_7  and  N1_8 
REMARK    2  A    between atoms: N1_8  and  C8_9 
REMARK       I    between atoms: N4_17  and  C14_18 
ROOT
HETATM    1  C1  UNL     1      22.189  -0.766  54.550  1.00  0.00     0.018 C 
HETATM    2  C2  UNL     1      23.142  -0.366  53.914  1.00  0.00    -0.078 C 
HETATM    3  C3  UNL     1      24.251   0.115  53.155  1.00  0.00     0.019 A 
HETATM    4  C4  UNL     1      25.401  -0.637  53.088  1.00  0.00     0.021 A 
HETATM    5  C5  UNL     1      26.457  -0.150  52.350  1.00  0.00     0.004 A 
HETATM    6  C6  UNL     1      26.383   1.054  51.691  1.00  0.00     0.029 A 
HETATM    7  C7  UNL     1      25.242   1.863  51.722  1.00  0.00     0.031 A 
HETATM    8  C17 UNL     1      24.231   1.314  52.476  1.00  0.00     0.049 A 
ENDROOT
BRANCH   7   9
HETATM    9  N1  UNL     1      25.216   3.066  51.036  1.00  0.00    -0.361 N 
HETATM   10  H5  UNL     1      25.970   3.782  51.299  1.00  0.00     0.162 HD
BRANCH   9  11
HETATM   11  C8  UNL     1      24.368   3.560  50.028  1.00  0.00     0.173 A 
HETATM   12  N2  UNL     1      23.482   2.701  49.674  1.00  0.00    -0.183 NA
HETATM   13  C9  UNL     1      22.489   2.895  48.687  1.00  0.00     0.094 A 
HETATM   14  N3  UNL     1      23.295   3.852  48.920  1.00  0.00     0.000 N 
HETATM   15  C10 UNL     1      23.418   5.112  48.384  1.00  0.00    -0.022 A 
HETATM   16  C16 UNL     1      24.454   4.893  49.476  1.00  0.00     0.174 A 
HETATM   17  C11 UNL     1      23.364   6.300  47.818  1.00  0.00     0.011 C 
HETATM   18  C12 UNL     1      24.532   7.170  47.823  1.00  0.00     0.018 C 
HETATM   19  C13 UNL     1      25.629   6.696  48.395  1.00  0.00     0.095 C 
HETATM   20  N4  UNL     1      25.694   5.377  48.985  1.00  0.00    -0.315 N 
HETATM   21  C14 UNL     1      27.002   4.787  48.963  1.00  0.00     0.220 C 
HETATM   22  C15 UNL     1      28.184   5.483  48.402  1.00  0.00     0.117 C 
HETATM   23  O1  UNL     1      27.252   3.642  49.415  1.00  0.00    -0.273 OA
ENDBRANCH   9  11
ENDBRANCH   7   9
TORSDOF 2
ENDMDL
MODEL 3
REMARK VINA RESULT:      -8.1      3.229      6.830
REMARK  2 active torsions:
REMARK  status: ('A' for Active; 'I' for Inactive)
REMARK    1  A    between atoms: C7_7  and  N1_8 
REMARK    2  A    between atoms: N1_8  and  C8_9 
REMARK       I    between atoms: N4_17  and  C14_18 
ROOT
HETATM    1  C1  UNL     1      30.258   5.835  47.890  1.00  0.00     0.018 C 
HETATM    2  C2  UNL     1      29.082   5.717  48.164  1.00  0.00    -0.078 C 
HETATM    3  C3  UNL     1      27.700   5.561  48.487  1.00  0.00     0.019 A 
HETATM    4  C4  UNL     1      26.821   6.580  48.205  1.00  0.00     0.021 A 
HETATM    5  C5  UNL     1      25.493   6.403  48.527  1.00  0.00     0.004 A 
HETATM    6  C6  UNL     1      25.040   5.247  49.116  1.00  0.00     0.029 A 
HETATM    7  C7  UNL     1      25.886   4.177  49.427  1.00  0.00     0.031 A 
HETATM    8  C17 UNL     1      27.193   4.423  49.077  1.00  0.00     0.049 A 
ENDROOT
BRANCH   7   9
HETATM    9  N1  UNL     1      25.378   3.030  50.016  1.00  0.00    -0.361 N 
HETATM   10  H5  UNL     1      25.757   2.097  49.648  1.00  0.00     0.162 HD
BRANCH   9  11
HETATM   11  C8  UNL     1      24.431   2.835  51.037  1.00  0.00     0.173 A 
HETATM   12  N2  UNL     1      23.763   3.902  51.293  1.00  0.00    -0.183 NA
HETATM   13  C9  UNL     1      22.744   4.028  52.263  1.00  0.00     0.094 A 
HETATM   14  N3  UNL     1      23.309   2.895  52.134  1.00  0.00     0.000 N 
HETATM   15  C10 UNL     1      23.133   1.692  52.776  1.00  0.00    -0.022 A 
HETATM   16  C16 UNL     1      24.202   1.572  51.701  1.00  0.00     0.174 A 
HETATM   17  C11 UNL     1      22.801   0.603  53.438  1.00  0.00     0.011 C 
HETATM   18  C12 UNL     1      23.737  -0.508  53.539  1.00  0.00     0.018 C 
HETATM   19  C13 UNL     1      24.919  -0.351  52.962  1.00  0.00     0.095 C 
HETATM   20  N4  UNL     1      25.292   0.861  52.266  1.00  0.00    -0.315 N 
HETATM   21  C14 UNL     1      26.700   1.135  52.276  1.00  0.00     0.220 C 
HETATM   22  C15 UNL     1      27.684   0.238  52.927  1.00  0.00     0.117 C 
HETATM   23  O1  UNL     1      27.212   2.148  51.738  1.00  0.00    -0.273 OA
ENDBRANCH   9  11
ENDBRANCH   7   9
TORSDOF 2
ENDMDL
MODEL 4
REMARK VINA RESULT:      -8.0      2.670      6.740
REMARK  2 active torsions:
REMARK  status: ('A' for Active; 'I' for Inactive)
REMARK    1  A    between atoms: C7_7  and  N1_8 
REMARK    2  A    between atoms: N1_8  and  C8_9 
REMARK       I    between atoms: N4_17  and  C14_18 
ROOT
HETATM    1  C1  UNL     1      28.835  -2.851  53.082  1.00  0.00     0.018 C 
HETATM    2  C2  UNL     1      28.710  -1.651  53.213  1.00  0.00    -0.078 C 
HETATM    3  C3  UNL     1      28.555  -0.239  53.352  1.00  0.00     0.019 A 
HETATM    4  C4  UNL     1      29.417   0.460  54.165  1.00  0.00     0.021 A 
HETATM    5  C5  UNL     1      29.245   1.821  54.281  1.00  0.00     0.004 A 
HETATM    6  C6  UNL     1      28.243   2.483  53.611  1.00  0.00     0.029 A 
HETATM    7  C7  UNL     1      27.336   1.827  52.770  1.00  0.00     0.031 A 
HETATM    8  C17 UNL     1      27.569   0.473  52.703  1.00  0.00     0.049 A 
ENDROOT
BRANCH   7   9
HETATM    9  N1  UNL     1      26.347   2.541  52.114  1.00  0.00    -0.361 N 
HETATM   10  H5  UNL     1      26.678   3.291  51.423  1.00  0.00     0.162 HD
BRANCH   9  11
HETATM   11  C8  UNL     1      24.944   2.479  52.172  1.00  0.00     0.173 A 
HETATM   12  N2  UNL     1      24.514   1.278  52.322  1.00  0.00    -0.183 NA
HETATM   13  C9  UNL     1      23.159   0.888  52.415  1.00  0.00     0.094 A 
HETATM   14  N3  UNL     1      23.416   2.126  52.267  1.00  0.00     0.000 N 
HETATM   15  C10 UNL     1      22.610   3.236  52.169  1.00  0.00    -0.022 A 
HETATM   16  C16 UNL     1      24.077   3.634  52.109  1.00  0.00     0.174 A 
HETATM   17  C11 UNL     1      21.710   4.198  52.155  1.00  0.00     0.011 C 
HETATM   18  C12 UNL     1      22.033   5.496  51.580  1.00  0.00     0.018 C 
HETATM   19  C13 UNL     1      23.245   5.639  51.064  1.00  0.00     0.095 C 
HETATM   20  N4  UNL     1      24.218   4.568  51.050  1.00  0.00    -0.315 N 
HETATM   21  C14 UNL     1      25.151   4.636  49.962  1.00  0.00     0.220 C 
HETATM   22  C15 UNL     1      25.128   5.723  48.955  1.00  0.00     0.117 C 
HETATM   23  O1  UNL     1      26.059   3.787  49.775  1.00  0.00    -0.273 OA
ENDBRANCH   9  11
ENDBRANCH   7   9
TORSDOF 2
ENDMDL
MODEL 5
REMARK VINA RESULT:      -7.9      2.376      5.279
REMARK  2 active torsions:
REMARK  status: ('A' for Active; 'I' for Inactive)
REMARK    1  A    between atoms: C7_7  and  N1_8 
REMARK    2  A    between atoms: N1_8  and  C8_9 
REMARK       I    between atoms: N4_17  and  C14_18 
ROOT
HETATM    1  C1  UNL     1      27.221   6.442  48.225  1.00  0.00     0.018 C 
HETATM    2  C2  UNL     1      26.478   5.637  48.746  1.00  0.00    -0.078 C 
HETATM    3  C3  UNL     1      25.618   4.682  49.367  1.00  0.00     0.019 A 
HETATM    4  C4  UNL     1      24.388   4.416  48.809  1.00  0.00     0.021 A 
HETATM    5  C5  UNL     1      23.578   3.490  49.429  1.00  0.00     0.004 A 
HETATM    6  C6  UNL     1      23.969   2.839  50.574  1.00  0.00     0.029 A 
HETATM    7  C7  UNL     1      25.206   3.067  51.187  1.00  0.00     0.031 A 
HETATM    8  C17 UNL     1      25.960   4.000  50.515  1.00  0.00     0.049 A 
ENDROOT
BRANCH   7   9
HETATM    9  N1  UNL     1      25.555   2.381  52.339  1.00  0.00    -0.361 N 
HETATM   10  H5  UNL     1      25.903   2.974  53.161  1.00  0.00     0.162 HD
BRANCH   9  11
HETATM   11  C8  UNL     1      25.548   1.011  52.660  1.00  0.00     0.173 A 
HETATM   12  N2  UNL     1      24.380   0.596  52.997  1.00  0.00    -0.183 NA
HETATM   13  C9  UNL     1      24.047  -0.724  53.375  1.00  0.00     0.094 A 
HETATM   14  N3  UNL     1      25.258  -0.477  53.068  1.00  0.00     0.000 N 
HETATM   15  C10 UNL     1      26.383  -1.266  53.023  1.00  0.00    -0.022 A 
HETATM   16  C16 UNL     1      26.709   0.154  52.585  1.00  0.00     0.174 A 
HETATM   17  C11 UNL     1      27.347  -2.162  52.971  1.00  0.00     0.011 C 
HETATM   18  C12 UNL     1      28.741  -1.744  53.022  1.00  0.00     0.018 C 
HETATM   19  C13 UNL     1      28.974  -0.446  53.145  1.00  0.00     0.095 C 
HETATM   20  N4  UNL     1      27.911   0.532  53.237  1.00  0.00    -0.315 N 
HETATM   21  C14 UNL     1      28.259   1.710  53.979  1.00  0.00     0.220 C 
HETATM   22  C15 UNL     1      29.599   1.911  54.578  1.00  0.00     0.117 C 
HETATM   23  O1  UNL     1      27.463   2.661  54.179  1.00  0.00    -0.273 OA
ENDBRANCH   9  11
ENDBRANCH   7   9
TORSDOF 2
ENDMDL
MODEL 6
REMARK VINA RESULT:      -7.9      3.173      6.425
REMARK  2 active torsions:
REMARK  status: ('A' for Active; 'I' for Inactive)
REMARK    1  A    between atoms: C7_7  and  N1_8 
REMARK    2  A    between atoms: N1_8  and  C8_9 
REMARK       I    between atoms: N4_17  and  C14_18 
ROOT
HETATM    1  C1  UNL     1      29.601  -0.976  53.445  1.00  0.00     0.018 C 
HETATM    2  C2  UNL     1      28.471  -0.542  53.358  1.00  0.00    -0.078 C 
HETATM    3  C3  UNL     1      27.148  -0.016  53.253  1.00  0.00     0.019 A 
HETATM    4  C4  UNL     1      26.108  -0.674  53.866  1.00  0.00     0.021 A 
HETATM    5  C5  UNL     1      24.842  -0.145  53.748  1.00  0.00     0.004 A 
HETATM    6  C6  UNL     1      24.604   1.010  53.041  1.00  0.00     0.029 A 
HETATM    7  C7  UNL     1      25.620   1.723  52.396  1.00  0.00     0.031 A 
HETATM    8  C17 UNL     1      26.854   1.138  52.557  1.00  0.00     0.049 A 
ENDROOT
BRANCH   7   9
HETATM    9  N1  UNL     1      25.329   2.885  51.700  1.00  0.00    -0.361 N 
HETATM   10  H5  UNL     1      25.925   3.744  51.934  1.00  0.00     0.162 HD
BRANCH   9  11
HETATM   11  C8  UNL     1      24.372   3.176  50.711  1.00  0.00     0.173 A 
HETATM   12  N2  UNL     1      23.542   2.212  50.537  1.00  0.00    -0.183 NA
HETATM   13  C9  UNL     1      22.469   2.199  49.617  1.00  0.00     0.094 A 
HETATM   14  N3  UNL     1      23.202   3.239  49.666  1.00  0.00     0.000 N 
HETATM   15  C10 UNL     1      23.175   4.425  48.972  1.00  0.00    -0.022 A 
HETATM   16  C16 UNL     1      24.301   4.430  49.995  1.00  0.00     0.174 A 
HETATM   17  C11 UNL     1      22.977   5.523  48.271  1.00  0.00     0.011 C 
HETATM   18  C12 UNL     1      24.061   6.475  48.076  1.00  0.00     0.018 C 
HETATM   19  C13 UNL     1      25.233   6.167  48.611  1.00  0.00     0.095 C 
HETATM   20  N4  UNL     1      25.456   4.943  49.350  1.00  0.00    -0.315 N 
HETATM   21  C14 UNL     1      26.806   4.460  49.295  1.00  0.00     0.220 C 
HETATM   22  C15 UNL     1      27.879   5.169  48.559  1.00  0.00     0.117 C 
HETATM   23  O1  UNL     1      27.187   3.406  49.862  1.00  0.00    -0.273 OA
ENDBRANCH   9  11
ENDBRANCH   7   9
TORSDOF 2
ENDMDL
MODEL 7
REMARK VINA RESULT:      -7.8      4.028      6.621
REMARK  2 active torsions:
REMARK  status: ('A' for Active; 'I' for Inactive)
REMARK    1  A    between atoms: C7_7  and  N1_8 
REMARK    2  A    between atoms: N1_8  and  C8_9 
REMARK       I    between atoms: N4_17  and  C14_18 
ROOT
HETATM    1  C1  UNL     1      27.176  -1.560  52.643  1.00  0.00     0.018 C 
HETATM    2  C2  UNL     1      26.421  -0.614  52.563  1.00  0.00    -0.078 C 
HETATM    3  C3  UNL     1      25.546   0.510  52.466  1.00  0.00     0.019 A 
HETATM    4  C4  UNL     1      24.355   0.502  53.156  1.00  0.00     0.021 A 
HETATM    5  C5  UNL     1      23.530   1.599  53.044  1.00  0.00     0.004 A 
HETATM    6  C6  UNL     1      23.868   2.682  52.268  1.00  0.00     0.029 A 
HETATM    7  C7  UNL     1      25.063   2.748  51.543  1.00  0.00     0.031 A 
HETATM    8  C17 UNL     1      25.835   1.621  51.703  1.00  0.00     0.049 A 
ENDROOT
BRANCH   7   9
HETATM    9  N1  UNL     1      25.360   3.864  50.779  1.00  0.00    -0.361 N 
HETATM   10  H5  UNL     1      26.295   4.347  50.981  1.00  0.00     0.162 HD
BRANCH   9  11
HETATM   11  C8  UNL     1      24.655   4.518  49.752  1.00  0.00     0.173 A 
HETATM   12  N2  UNL     1      23.607   3.870  49.391  1.00  0.00    -0.183 NA
HETATM   13  C9  UNL     1      22.695   4.264  48.386  1.00  0.00     0.094 A 
HETATM   14  N3  UNL     1      23.688   5.025  48.624  1.00  0.00     0.000 N 
HETATM   15  C10 UNL     1      24.092   6.221  48.079  1.00  0.00    -0.022 A 
HETATM   16  C16 UNL     1      25.039   5.793  49.189  1.00  0.00     0.174 A 
HETATM   17  C11 UNL     1      24.307   7.384  47.500  1.00  0.00     0.011 C 
HETATM   18  C12 UNL     1      25.637   7.977  47.517  1.00  0.00     0.018 C 
HETATM   19  C13 UNL     1      26.596   7.282  48.111  1.00  0.00     0.095 C 
HETATM   20  N4  UNL     1      26.361   5.987  48.714  1.00  0.00    -0.315 N 
HETATM   21  C14 UNL     1      27.509   5.126  48.719  1.00  0.00     0.220 C 
HETATM   22  C15 UNL     1      28.822   5.539  48.172  1.00  0.00     0.117 C 
HETATM   23  O1  UNL     1      27.495   3.959  49.186  1.00  0.00    -0.273 OA
ENDBRANCH   9  11
ENDBRANCH   7   9
TORSDOF 2
ENDMDL
MODEL 8
REMARK VINA RESULT:      -7.6      2.494      7.157
REMARK  2 active torsions:
REMARK  status: ('A' for Active; 'I' for Inactive)
REMARK    1  A    between atoms: C7_7  and  N1_8 
REMARK    2  A    between atoms: N1_8  and  C8_9 
REMARK       I    between atoms: N4_17  and  C14_18 
ROOT
HETATM    1  C1  UNL     1      27.181  -2.365  52.351  1.00  0.00     0.018 C 
HETATM    2  C2  UNL     1      26.666  -1.295  52.601  1.00  0.00    -0.078 C 
HETATM    3  C3  UNL     1      26.047  -0.041  52.886  1.00  0.00     0.019 A 
HETATM    4  C4  UNL     1      26.830   1.040  53.220  1.00  0.00     0.021 A 
HETATM    5  C5  UNL     1      26.206   2.238  53.490  1.00  0.00     0.004 A 
HETATM    6  C6  UNL     1      24.839   2.370  53.434  1.00  0.00     0.029 A 
HETATM    7  C7  UNL     1      23.991   1.308  53.102  1.00  0.00     0.031 A 
HETATM    8  C17 UNL     1      24.682   0.147  52.845  1.00  0.00     0.049 A 
ENDROOT
BRANCH   7   9
HETATM    9  N1  UNL     1      22.619   1.494  53.055  1.00  0.00    -0.361 N 
HETATM   10  H5  UNL     1      22.278   2.503  52.934  1.00  0.00     0.162 HD
BRANCH   9  11
HETATM   11  C8  UNL     1      21.542   0.593  53.139  1.00  0.00     0.173 A 
HETATM   12  N2  UNL     1      21.781  -0.378  53.944  1.00  0.00    -0.183 NA
HETATM   13  C9  UNL     1      20.900  -1.442  54.242  1.00  0.00     0.094 A 
HETATM   14  N3  UNL     1      20.508  -0.555  53.417  1.00  0.00     0.000 N 
HETATM   15  C10 UNL     1      19.341  -0.400  52.707  1.00  0.00    -0.022 A 
HETATM   16  C16 UNL     1      20.292   0.755  52.431  1.00  0.00     0.174 A 
HETATM   17  C11 UNL     1      18.148  -0.361  52.150  1.00  0.00     0.011 C 
HETATM   18  C12 UNL     1      17.929   0.418  50.940  1.00  0.00     0.018 C 
HETATM   19  C13 UNL     1      18.979   1.047  50.433  1.00  0.00     0.095 C 
HETATM   20  N4  UNL     1      20.295   0.973  51.029  1.00  0.00    -0.315 N 
HETATM   21  C14 UNL     1      21.373   1.127  50.095  1.00  0.00     0.220 C 
HETATM   22  C15 UNL     1      21.150   1.362  48.649  1.00  0.00     0.117 C 
HETATM   23  O1  UNL     1      22.585   1.077  50.422  1.00  0.00    -0.273 OA
ENDBRANCH   9  11
ENDBRANCH   7   9
TORSDOF 2
ENDMDL
MODEL 9
REMARK VINA RESULT:      -7.5      7.961     10.313
REMARK  2 active torsions:
REMARK  status: ('A' for Active; 'I' for Inactive)
REMARK    1  A    between atoms: C7_7  and  N1_8 
REMARK    2  A    between atoms: N1_8  and  C8_9 
REMARK       I    between atoms: N4_17  and  C14_18 
ROOT
HETATM    1  C1  UNL     1      26.493   3.123  49.717  1.00  0.00     0.018 C 
HETATM    2  C2  UNL     1      26.948   4.121  49.197  1.00  0.00    -0.078 C 
HETATM    3  C3  UNL     1      27.500   5.289  48.589  1.00  0.00     0.019 A 
HETATM    4  C4  UNL     1      26.722   6.417  48.462  1.00  0.00     0.021 A 
HETATM    5  C5  UNL     1      27.279   7.529  47.872  1.00  0.00     0.004 A 
HETATM    6  C6  UNL     1      28.575   7.533  47.415  1.00  0.00     0.029 A 
HETATM    7  C7  UNL     1      29.414   6.418  47.515  1.00  0.00     0.031 A 
HETATM    8  C17 UNL     1      28.792   5.347  48.114  1.00  0.00     0.049 A 
ENDROOT
BRANCH   7   9
HETATM    9  N1  UNL     1      30.715   6.474  47.043  1.00  0.00    -0.361 N 
HETATM   10  H5  UNL     1      30.835   6.681  45.998  1.00  0.00     0.162 HD
BRANCH   9  11
HETATM   11  C8  UNL     1      31.958   6.305  47.680  1.00  0.00     0.173 A 
HETATM   12  N2  UNL     1      32.199   7.237  48.531  1.00  0.00    -0.183 NA
HETATM   13  C9  UNL     1      33.360   7.350  49.328  1.00  0.00     0.094 A 
HETATM   14  N3  UNL     1      33.276   6.360  48.531  1.00  0.00     0.000 N 
HETATM   15  C10 UNL     1      34.125   5.313  48.259  1.00  0.00    -0.022 A 
HETATM   16  C16 UNL     1      32.850   5.194  47.439  1.00  0.00     0.174 A 
HETATM   17  C11 UNL     1      35.013   4.346  48.160  1.00  0.00     0.011 C 
HETATM   18  C12 UNL     1      35.053   3.506  46.971  1.00  0.00     0.018 C 
HETATM   19  C13 UNL     1      34.181   3.781  46.012  1.00  0.00     0.095 C 
HETATM   20  N4  UNL     1      33.231   4.868  46.112  1.00  0.00    -0.315 N 
HETATM   21  C14 UNL     1      32.845   5.428  44.848  1.00  0.00     0.220 C 
HETATM   22  C15 UNL     1      33.364   4.920  43.556  1.00  0.00     0.117 C 
HETATM   23  O1  UNL     1      32.042   6.387  44.733  1.00  0.00    -0.273 OA
ENDBRANCH   9  11
ENDBRANCH   7   9
TORSDOF 2
ENDMDL
