MODEL 1
REMARK VINA RESULT:      -8.1      0.000      0.000
REMARK  5 active torsions:
REMARK  status: ('A' for Active; 'I' for Inactive)
REMARK    1  A    between atoms: C2_2  and  C3_3 
REMARK    2  A    between atoms: C3_3  and  C4_4 
REMARK    3  A    between atoms: C8_9  and  N2_10 
REMARK    4  A    between atoms: N2_10  and  N3_11 
REMARK    5  A    between atoms: N3_11  and  C9_12 
ROOT
HETATM    1  C4  UNL     1      27.165   2.600  51.730  1.00  0.00    -0.010 C 
HETATM    2  C5  UNL     1      27.865   2.251  52.717  1.00  0.00    -0.021 A 
HETATM    3  C6  UNL     1      28.729   1.944  53.822  1.00  0.00     0.121 A 
HETATM    4  N1  UNL     1      28.866   1.099  54.741  1.00  0.00    -0.295 NA
HETATM    5  C7  UNL     1      27.966  -0.030  54.939  1.00  0.00     0.206 A 
HETATM    6  C8  UNL     1      26.903   0.052  53.859  1.00  0.00     0.046 A 
HETATM    7  C15 UNL     1      26.885   1.052  52.909  1.00  0.00     0.040 A 
ENDROOT
BRANCH   6   8
HETATM    8  N2  UNL     1      26.099  -1.079  54.167  1.00  0.00    -0.303 N 
HETATM    9  H9  UNL     1      26.298  -1.981  53.670  1.00  0.00     0.186 HD
BRANCH   8  10
HETATM   10  N3  UNL     1      25.073  -0.969  55.121  1.00  0.00    -0.301 N 
HETATM   11  H10 UNL     1      25.339  -0.921  56.117  1.00  0.00     0.187 HD
BRANCH  10  12
HETATM   12  C9  UNL     1      23.745  -0.932  54.632  1.00  0.00     0.050 A 
HETATM   13  C10 UNL     1      22.614  -1.470  55.150  1.00  0.00     0.034 A 
HETATM   14  C11 UNL     1      21.358  -1.335  54.544  1.00  0.00     0.046 A 
HETATM   15  C12 UNL     1      21.341  -0.611  53.373  1.00  0.00     0.138 A 
HETATM   16  F1  UNL     1      20.081  -0.525  52.845  1.00  0.00    -0.204 F 
HETATM   17  C13 UNL     1      22.452  -0.047  52.806  1.00  0.00     0.074 A 
HETATM   18 CL1  UNL     1      22.175   0.827  51.314  1.00  0.00    -0.081 Cl
HETATM   19  C14 UNL     1      23.645  -0.211  53.437  1.00  0.00     0.057 A 
ENDBRANCH  10  12
ENDBRANCH   8  10
ENDBRANCH   6   8
BRANCH   1  20
HETATM   20  C3  UNL     1      26.061   2.506  50.763  1.00  0.00     0.062 C 
BRANCH  20  21
HETATM   21  C2  UNL     1      26.016   3.794  50.021  1.00  0.00    -0.073 A 
HETATM   22  C1  UNL     1      26.946   4.176  49.171  1.00  0.00     0.039 A 
HETATM   23  O1  UNL     1      25.719   5.028  49.482  1.00  0.00     0.000 OA
HETATM   24  C16 UNL     1      24.985   5.982  50.200  1.00  0.00     0.000 C 
ENDBRANCH  20  21
ENDBRANCH   1  20
TORSDOF 5
ENDMDL
MODEL 2
REMARK VINA RESULT:      -8.0      4.023      6.812
REMARK  5 active torsions:
REMARK  status: ('A' for Active; 'I' for Inactive)
REMARK    1  A    between atoms: C2_2  and  C3_3 
REMARK    2  A    between atoms: C3_3  and  C4_4 
REMARK    3  A    between atoms: C8_9  and  N2_10 
REMARK    4  A    between atoms: N2_10  and  N3_11 
REMARK    5  A    between atoms: N3_11  and  C9_12 
ROOT
HETATM    1  C4  UNL     1      21.598   0.972  52.479  1.00  0.00    -0.010 C 
HETATM    2  C5  UNL     1      21.493   2.223  52.371  1.00  0.00    -0.021 A 
HETATM    3  C6  UNL     1      21.260   3.635  52.264  1.00  0.00     0.121 A 
HETATM    4  N1  UNL     1      21.885   4.712  52.096  1.00  0.00    -0.295 NA
HETATM    5  C7  UNL     1      23.330   4.788  51.932  1.00  0.00     0.206 A 
HETATM    6  C8  UNL     1      23.864   3.368  52.010  1.00  0.00     0.046 A 
HETATM    7  C15 UNL     1      23.043   2.277  52.200  1.00  0.00     0.040 A 
ENDROOT
BRANCH   6   8
HETATM    8  N2  UNL     1      25.260   3.581  51.849  1.00  0.00    -0.303 N 
HETATM    9  H9  UNL     1      25.673   4.474  52.215  1.00  0.00     0.186 HD
BRANCH   8  10
HETATM   10  N3  UNL     1      26.048   2.604  51.217  1.00  0.00    -0.301 N 
HETATM   11  H10 UNL     1      25.985   2.519  50.191  1.00  0.00     0.187 HD
BRANCH  10  12
HETATM   12  C9  UNL     1      26.872   1.811  52.050  1.00  0.00     0.050 A 
HETATM   13  C10 UNL     1      27.831   2.184  52.932  1.00  0.00     0.034 A 
HETATM   14  C11 UNL     1      28.561   1.267  53.700  1.00  0.00     0.046 A 
HETATM   15  C12 UNL     1      28.239  -0.057  53.504  1.00  0.00     0.138 A 
HETATM   16  F1  UNL     1      28.995  -0.886  54.288  1.00  0.00    -0.204 F 
HETATM   17  C13 UNL     1      27.281  -0.490  52.628  1.00  0.00     0.074 A 
HETATM   18 CL1  UNL     1      27.055  -2.224  52.555  1.00  0.00    -0.081 Cl
HETATM   19  C14 UNL     1      26.605   0.445  51.907  1.00  0.00     0.057 A 
ENDBRANCH  10  12
ENDBRANCH   8  10
ENDBRANCH   6   8
BRANCH   1  20
HETATM   20  C3  UNL     1      22.299  -0.320  52.520  1.00  0.00     0.062 C 
BRANCH  20  21
HETATM   21  C2  UNL     1      22.188  -0.835  53.911  1.00  0.00    -0.073 A 
HETATM   22  C1  UNL     1      21.101  -0.720  54.645  1.00  0.00     0.039 A 
HETATM   23  O1  UNL     1      22.368  -1.398  55.156  1.00  0.00     0.000 OA
HETATM   24  C16 UNL     1      23.629  -1.437  55.766  1.00  0.00     0.000 C 
ENDBRANCH  20  21
ENDBRANCH   1  20
TORSDOF 5
ENDMDL
MODEL 3
REMARK VINA RESULT:      -7.9      4.018      6.899
REMARK  5 active torsions:
REMARK  status: ('A' for Active; 'I' for Inactive)
REMARK    1  A    between atoms: C2_2  and  C3_3 
REMARK    2  A    between atoms: C3_3  and  C4_4 
REMARK    3  A    between atoms: C8_9  and  N2_10 
REMARK    4  A    between atoms: N2_10  and  N3_11 
REMARK    5  A    between atoms: N3_11  and  C9_12 
ROOT
HETATM    1  C4  UNL     1      25.179  -0.585  53.142  1.00  0.00    -0.010 C 
HETATM    2  C5  UNL     1      23.958  -0.440  53.420  1.00  0.00    -0.021 A 
HETATM    3  C6  UNL     1      22.577  -0.369  53.801  1.00  0.00     0.121 A 
HETATM    4  N1  UNL     1      21.557   0.343  53.624  1.00  0.00    -0.295 NA
HETATM    5  C7  UNL     1      21.543   1.540  52.794  1.00  0.00     0.206 A 
HETATM    6  C8  UNL     1      22.945   1.714  52.239  1.00  0.00     0.046 A 
HETATM    7  C15 UNL     1      23.971   0.839  52.527  1.00  0.00     0.040 A 
ENDROOT
BRANCH   6   8
HETATM    8  N2  UNL     1      22.799   2.901  51.470  1.00  0.00    -0.303 N 
HETATM    9  H9  UNL     1      22.032   2.940  50.754  1.00  0.00     0.186 HD
BRANCH   8  10
HETATM   10  N3  UNL     1      23.668   3.985  51.684  1.00  0.00    -0.301 N 
HETATM   11  H10 UNL     1      23.455   4.631  52.460  1.00  0.00     0.187 HD
BRANCH  10  12
HETATM   12  C9  UNL     1      24.774   4.101  50.809  1.00  0.00     0.050 A 
HETATM   13  C10 UNL     1      25.752   3.207  50.523  1.00  0.00     0.034 A 
HETATM   14  C11 UNL     1      26.785   3.472  49.614  1.00  0.00     0.046 A 
HETATM   15  C12 UNL     1      26.746   4.712  49.019  1.00  0.00     0.138 A 
HETATM   16  F1  UNL     1      27.786   4.892  48.147  1.00  0.00    -0.204 F 
HETATM   17  C13 UNL     1      25.783   5.652  49.271  1.00  0.00     0.074 A 
HETATM   18 CL1  UNL     1      25.949   7.156  48.389  1.00  0.00    -0.081 Cl
HETATM   19  C14 UNL     1      24.805   5.342  50.163  1.00  0.00     0.057 A 
ENDBRANCH  10  12
ENDBRANCH   8  10
ENDBRANCH   6   8
BRANCH   1  20
HETATM   20  C3  UNL     1      26.463  -0.253  52.506  1.00  0.00     0.062 C 
BRANCH  20  21
HETATM   21  C2  UNL     1      27.517  -0.395  53.544  1.00  0.00    -0.073 A 
HETATM   22  C1  UNL     1      27.472   0.207  54.714  1.00  0.00     0.039 A 
HETATM   23  O1  UNL     1      28.624  -0.706  54.306  1.00  0.00     0.000 OA
HETATM   24  C16 UNL     1      29.858  -1.004  53.713  1.00  0.00     0.000 C 
ENDBRANCH  20  21
ENDBRANCH   1  20
TORSDOF 5
ENDMDL
MODEL 4
REMARK VINA RESULT:      -7.9      4.377      6.513
REMARK  5 active torsions:
REMARK  status: ('A' for Active; 'I' for Inactive)
REMARK    1  A    between atoms: C2_2  and  C3_3 
REMARK    2  A    between atoms: C3_3  and  C4_4 
REMARK    3  A    between atoms: C8_9  and  N2_10 
REMARK    4  A    between atoms: N2_10  and  N3_11 
REMARK    5  A    between atoms: N3_11  and  C9_12 
ROOT
HETATM    1  C4  UNL     1      28.568   6.241  48.026  1.00  0.00    -0.010 C 
HETATM    2  C5  UNL     1      27.329   6.291  48.249  1.00  0.00    -0.021 A 
HETATM    3  C6  UNL     1      25.916   6.448  48.447  1.00  0.00     0.121 A 
HETATM    4  N1  UNL     1      24.937   5.855  48.963  1.00  0.00    -0.295 NA
HETATM    5  C7  UNL     1      25.038   4.569  49.640  1.00  0.00     0.206 A 
HETATM    6  C8  UNL     1      26.495   4.145  49.576  1.00  0.00     0.046 A 
HETATM    7  C15 UNL     1      27.465   4.912  48.967  1.00  0.00     0.040 A 
ENDROOT
BRANCH   6   8
HETATM    8  N2  UNL     1      26.455   2.894  50.250  1.00  0.00    -0.303 N 
HETATM    9  H9  UNL     1      26.541   2.018  49.680  1.00  0.00     0.186 HD
BRANCH   8  10
HETATM   10  N3  UNL     1      26.309   2.857  51.648  1.00  0.00    -0.301 N 
HETATM   11  H10 UNL     1      25.607   3.478  52.079  1.00  0.00     0.187 HD
BRANCH  10  12
HETATM   12  C9  UNL     1      27.145   1.961  52.355  1.00  0.00     0.050 A 
HETATM   13  C10 UNL     1      28.197   2.215  53.170  1.00  0.00     0.034 A 
HETATM   14  C11 UNL     1      28.926   1.205  53.813  1.00  0.00     0.046 A 
HETATM   15  C12 UNL     1      28.501  -0.080  53.564  1.00  0.00     0.138 A 
HETATM   16  F1  UNL     1      29.262  -1.005  54.227  1.00  0.00    -0.204 F 
HETATM   17  C13 UNL     1      27.446  -0.394  52.751  1.00  0.00     0.074 A 
HETATM   18 CL1  UNL     1      27.099  -2.103  52.592  1.00  0.00    -0.081 Cl
HETATM   19  C14 UNL     1      26.775   0.626  52.152  1.00  0.00     0.057 A 
ENDBRANCH  10  12
ENDBRANCH   8  10
ENDBRANCH   6   8
BRANCH   1  20
HETATM   20  C3  UNL     1      29.921   5.665  48.072  1.00  0.00     0.062 C 
BRANCH  20  21
HETATM   21  C2  UNL     1      30.830   6.722  48.590  1.00  0.00    -0.073 A 
HETATM   22  C1  UNL     1      30.448   7.960  48.823  1.00  0.00     0.039 A 
HETATM   23  O1  UNL     1      31.877   7.484  49.063  1.00  0.00     0.000 OA
HETATM   24  C16 UNL     1      33.203   7.212  48.698  1.00  0.00     0.000 C 
ENDBRANCH  20  21
ENDBRANCH   1  20
TORSDOF 5
ENDMDL
MODEL 5
REMARK VINA RESULT:      -7.8      2.933      5.038
REMARK  5 active torsions:
REMARK  status: ('A' for Active; 'I' for Inactive)
REMARK    1  A    between atoms: C2_2  and  C3_3 
REMARK    2  A    between atoms: C3_3  and  C4_4 
REMARK    3  A    between atoms: C8_9  and  N2_10 
REMARK    4  A    between atoms: N2_10  and  N3_11 
REMARK    5  A    between atoms: N3_11  and  C9_12 
ROOT
HETATM    1  C4  UNL     1      25.217  -0.596  53.996  1.00  0.00    -0.010 C 
HETATM    2  C5  UNL     1      26.330  -0.098  54.315  1.00  0.00    -0.021 A 
HETATM    3  C6  UNL     1      27.605   0.389  54.759  1.00  0.00     0.121 A 
HETATM    4  N1  UNL     1      28.446   1.285  54.499  1.00  0.00    -0.295 NA
HETATM    5  C7  UNL     1      28.276   2.266  53.437  1.00  0.00     0.206 A 
HETATM    6  C8  UNL     1      26.946   1.972  52.766  1.00  0.00     0.046 A 
HETATM    7  C15 UNL     1      26.124   0.941  53.169  1.00  0.00     0.040 A 
ENDROOT
BRANCH   6   8
HETATM    8  N2  UNL     1      26.908   2.976  51.761  1.00  0.00    -0.303 N 
HETATM    9  H9  UNL     1      27.648   3.720  51.772  1.00  0.00     0.186 HD
BRANCH   8  10
HETATM   10  N3  UNL     1      25.899   2.949  50.783  1.00  0.00    -0.301 N 
HETATM   11  H10 UNL     1      26.180   2.819  49.799  1.00  0.00     0.187 HD
BRANCH  10  12
HETATM   12  C9  UNL     1      24.567   3.104  51.234  1.00  0.00     0.050 A 
HETATM   13  C10 UNL     1      24.008   4.100  51.964  1.00  0.00     0.034 A 
HETATM   14  C11 UNL     1      22.654   4.115  52.326  1.00  0.00     0.046 A 
HETATM   15  C12 UNL     1      21.914   3.040  51.887  1.00  0.00     0.138 A 
HETATM   16  F1  UNL     1      20.606   3.128  52.281  1.00  0.00    -0.204 F 
HETATM   17  C13 UNL     1      22.426   2.008  51.149  1.00  0.00     0.074 A 
HETATM   18 CL1  UNL     1      21.284   0.755  50.711  1.00  0.00    -0.081 Cl
HETATM   19  C14 UNL     1      23.747   2.045  50.828  1.00  0.00     0.057 A 
ENDBRANCH  10  12
ENDBRANCH   8  10
ENDBRANCH   6   8
BRANCH   1  20
HETATM   20  C3  UNL     1      23.969  -0.718  53.229  1.00  0.00     0.062 C 
BRANCH  20  21
HETATM   21  C2  UNL     1      22.846  -0.599  54.196  1.00  0.00    -0.073 A 
HETATM   22  C1  UNL     1      22.703  -1.381  55.245  1.00  0.00     0.039 A 
HETATM   23  O1  UNL     1      21.718  -0.264  54.915  1.00  0.00     0.000 OA
HETATM   24  C16 UNL     1      20.592   0.292  54.292  1.00  0.00     0.000 C 
ENDBRANCH  20  21
ENDBRANCH   1  20
TORSDOF 5
ENDMDL
MODEL 6
REMARK VINA RESULT:      -7.8      3.209      4.810
REMARK  5 active torsions:
REMARK  status: ('A' for Active; 'I' for Inactive)
REMARK    1  A    between atoms: C2_2  and  C3_3 
REMARK    2  A    between atoms: C3_3  and  C4_4 
REMARK    3  A    between atoms: C8_9  and  N2_10 
REMARK    4  A    between atoms: N2_10  and  N3_11 
REMARK    5  A    between atoms: N3_11  and  C9_12 
ROOT
HETATM    1  C4  UNL     1      26.807   0.918  51.637  1.00  0.00    -0.010 C 
HETATM    2  C5  UNL     1      26.636   2.026  51.062  1.00  0.00    -0.021 A 
HETATM    3  C6  UNL     1      26.545   3.274  50.358  1.00  0.00     0.121 A 
HETATM    4  N1  UNL     1      25.758   4.239  50.191  1.00  0.00    -0.295 NA
HETATM    5  C7  UNL     1      24.450   4.331  50.826  1.00  0.00     0.206 A 
HETATM    6  C8  UNL     1      24.274   3.080  51.668  1.00  0.00     0.046 A 
HETATM    7  C15 UNL     1      25.239   2.099  51.752  1.00  0.00     0.040 A 
ENDROOT
BRANCH   6   8
HETATM    8  N2  UNL     1      22.978   3.288  52.214  1.00  0.00    -0.303 N 
HETATM    9  H9  UNL     1      22.843   4.078  52.891  1.00  0.00     0.186 HD
BRANCH   8  10
HETATM   10  N3  UNL     1      21.917   2.446  51.837  1.00  0.00    -0.301 N 
HETATM   11  H10 UNL     1      21.352   2.715  51.017  1.00  0.00     0.187 HD
BRANCH  10  12
HETATM   12  C9  UNL     1      21.709   1.287  52.622  1.00  0.00     0.050 A 
HETATM   13  C10 UNL     1      22.568   0.623  53.433  1.00  0.00     0.034 A 
HETATM   14  C11 UNL     1      22.203  -0.518  54.161  1.00  0.00     0.046 A 
HETATM   15  C12 UNL     1      20.899  -0.929  54.001  1.00  0.00     0.138 A 
HETATM   16  F1  UNL     1      20.623  -2.046  54.742  1.00  0.00    -0.204 F 
HETATM   17  C13 UNL     1      19.991  -0.297  53.196  1.00  0.00     0.074 A 
HETATM   18 CL1  UNL     1      18.392  -1.011  53.158  1.00  0.00    -0.081 Cl
HETATM   19  C14 UNL     1      20.400   0.805  52.512  1.00  0.00     0.057 A 
ENDBRANCH  10  12
ENDBRANCH   8  10
ENDBRANCH   6   8
BRANCH   1  20
HETATM   20  C3  UNL     1      26.456  -0.213  52.508  1.00  0.00     0.062 C 
BRANCH  20  21
HETATM   21  C2  UNL     1      27.513  -0.309  53.550  1.00  0.00    -0.073 A 
HETATM   22  C1  UNL     1      27.488   0.372  54.676  1.00  0.00     0.039 A 
HETATM   23  O1  UNL     1      28.616  -0.593  54.326  1.00  0.00     0.000 OA
HETATM   24  C16 UNL     1      29.840  -0.960  53.749  1.00  0.00     0.000 C 
ENDBRANCH  20  21
ENDBRANCH   1  20
TORSDOF 5
ENDMDL
MODEL 7
REMARK VINA RESULT:      -7.7      3.789      6.659
REMARK  5 active torsions:
REMARK  status: ('A' for Active; 'I' for Inactive)
REMARK    1  A    between atoms: C2_2  and  C3_3 
REMARK    2  A    between atoms: C3_3  and  C4_4 
REMARK    3  A    between atoms: C8_9  and  N2_10 
REMARK    4  A    between atoms: N2_10  and  N3_11 
REMARK    5  A    between atoms: N3_11  and  C9_12 
ROOT
HETATM    1  C4  UNL     1      25.066  -0.510  54.013  1.00  0.00    -0.010 C 
HETATM    2  C5  UNL     1      26.193  -0.082  54.381  1.00  0.00    -0.021 A 
HETATM    3  C6  UNL     1      27.475   0.325  54.881  1.00  0.00     0.121 A 
HETATM    4  N1  UNL     1      28.386   1.159  54.652  1.00  0.00    -0.295 NA
HETATM    5  C7  UNL     1      28.334   2.132  53.569  1.00  0.00     0.206 A 
HETATM    6  C8  UNL     1      27.022   1.916  52.837  1.00  0.00     0.046 A 
HETATM    7  C15 UNL     1      26.113   0.949  53.213  1.00  0.00     0.040 A 
ENDROOT
BRANCH   6   8
HETATM    8  N2  UNL     1      27.100   2.904  51.818  1.00  0.00    -0.303 N 
HETATM    9  H9  UNL     1      27.588   3.807  52.037  1.00  0.00     0.186 HD
BRANCH   8  10
HETATM   10  N3  UNL     1      26.537   2.653  50.555  1.00  0.00    -0.301 N 
HETATM   11  H10 UNL     1      26.587   1.692  50.184  1.00  0.00     0.187 HD
BRANCH  10  12
HETATM   12  C9  UNL     1      25.941   3.751  49.892  1.00  0.00     0.050 A 
HETATM   13  C10 UNL     1      24.633   4.078  49.756  1.00  0.00     0.034 A 
HETATM   14  C11 UNL     1      24.198   5.220  49.070  1.00  0.00     0.046 A 
HETATM   15  C12 UNL     1      25.195   6.003  48.534  1.00  0.00     0.138 A 
HETATM   16  F1  UNL     1      24.690   7.095  47.881  1.00  0.00    -0.204 F 
HETATM   17  C13 UNL     1      26.530   5.721  48.639  1.00  0.00     0.074 A 
HETATM   18 CL1  UNL     1      27.606   6.869  47.872  1.00  0.00    -0.081 Cl
HETATM   19  C14 UNL     1      26.895   4.599  49.316  1.00  0.00     0.057 A 
ENDBRANCH  10  12
ENDBRANCH   8  10
ENDBRANCH   6   8
BRANCH   1  20
HETATM   20  C3  UNL     1      23.851  -0.562  53.186  1.00  0.00     0.062 C 
BRANCH  20  21
HETATM   21  C2  UNL     1      22.688  -0.516  54.111  1.00  0.00    -0.073 A 
HETATM   22  C1  UNL     1      22.476  -1.406  55.058  1.00  0.00     0.039 A 
HETATM   23  O1  UNL     1      21.538  -0.228  54.815  1.00  0.00     0.000 OA
HETATM   24  C16 UNL     1      20.458   0.432  54.212  1.00  0.00     0.000 C 
ENDBRANCH  20  21
ENDBRANCH   1  20
TORSDOF 5
ENDMDL
MODEL 8
REMARK VINA RESULT:      -7.7      3.265      5.457
REMARK  5 active torsions:
REMARK  status: ('A' for Active; 'I' for Inactive)
REMARK    1  A    between atoms: C2_2  and  C3_3 
REMARK    2  A    between atoms: C3_3  and  C4_4 
REMARK    3  A    between atoms: C8_9  and  N2_10 
REMARK    4  A    between atoms: N2_10  and  N3_11 
REMARK    5  A    between atoms: N3_11  and  C9_12 
ROOT
HETATM    1  C4  UNL     1      25.677  -0.668  53.786  1.00  0.00    -0.010 C 
HETATM    2  C5  UNL     1      24.692  -0.977  54.510  1.00  0.00    -0.021 A 
HETATM    3  C6  UNL     1      23.647  -1.364  55.414  1.00  0.00     0.121 A 
HETATM    4  N1  UNL     1      22.393  -1.378  55.499  1.00  0.00    -0.295 NA
HETATM    5  C7  UNL     1      21.509  -0.891  54.449  1.00  0.00     0.206 A 
HETATM    6  C8  UNL     1      22.390  -0.396  53.316  1.00  0.00     0.046 A 
HETATM    7  C15 UNL     1      23.767  -0.447  53.371  1.00  0.00     0.040 A 
ENDROOT
BRANCH   6   8
HETATM    8  N2  UNL     1      21.421   0.053  52.379  1.00  0.00    -0.303 N 
HETATM    9  H9  UNL     1      20.407  -0.113  52.593  1.00  0.00     0.186 HD
BRANCH   8  10
HETATM   10  N3  UNL     1      21.833   0.706  51.205  1.00  0.00    -0.301 N 
HETATM   11  H10 UNL     1      21.736   0.202  50.310  1.00  0.00     0.187 HD
BRANCH  10  12
HETATM   12  C9  UNL     1      22.351   2.015  51.349  1.00  0.00     0.050 A 
HETATM   13  C10 UNL     1      21.944   3.027  52.153  1.00  0.00     0.034 A 
HETATM   14  C11 UNL     1      22.577   4.277  52.188  1.00  0.00     0.046 A 
HETATM   15  C12 UNL     1      23.656   4.417  51.345  1.00  0.00     0.138 A 
HETATM   16  F1  UNL     1      24.217   5.662  51.438  1.00  0.00    -0.204 F 
HETATM   17  C13 UNL     1      24.110   3.430  50.512  1.00  0.00     0.074 A 
HETATM   18 CL1  UNL     1      25.500   3.850  49.534  1.00  0.00    -0.081 Cl
HETATM   19  C14 UNL     1      23.456   2.237  50.519  1.00  0.00     0.057 A 
ENDBRANCH  10  12
ENDBRANCH   8  10
ENDBRANCH   6   8
BRANCH   1  20
HETATM   20  C3  UNL     1      26.356  -0.147  52.590  1.00  0.00     0.062 C 
BRANCH  20  21
HETATM   21  C2  UNL     1      27.686   0.355  53.025  1.00  0.00    -0.073 A 
HETATM   22  C1  UNL     1      28.620  -0.413  53.546  1.00  0.00     0.039 A 
HETATM   23  O1  UNL     1      28.813   1.086  53.337  1.00  0.00     0.000 OA
HETATM   24  C16 UNL     1      28.732   2.438  53.695  1.00  0.00     0.000 C 
ENDBRANCH  20  21
ENDBRANCH   1  20
TORSDOF 5
ENDMDL
MODEL 9
REMARK VINA RESULT:      -7.5      3.353      6.369
REMARK  5 active torsions:
REMARK  status: ('A' for Active; 'I' for Inactive)
REMARK    1  A    between atoms: C2_2  and  C3_3 
REMARK    2  A    between atoms: C3_3  and  C4_4 
REMARK    3  A    between atoms: C8_9  and  N2_10 
REMARK    4  A    between atoms: N2_10  and  N3_11 
REMARK    5  A    between atoms: N3_11  and  C9_12 
ROOT
HETATM    1  C4  UNL     1      24.531  -0.226  53.793  1.00  0.00    -0.010 C 
HETATM    2  C5  UNL     1      25.682   0.072  54.212  1.00  0.00    -0.021 A 
HETATM    3  C6  UNL     1      26.977   0.334  54.772  1.00  0.00     0.121 A 
HETATM    4  N1  UNL     1      27.988   1.055  54.584  1.00  0.00    -0.295 NA
HETATM    5  C7  UNL     1      28.100   2.019  53.497  1.00  0.00     0.206 A 
HETATM    6  C8  UNL     1      26.807   1.949  52.704  1.00  0.00     0.046 A 
HETATM    7  C15 UNL     1      25.776   1.096  53.039  1.00  0.00     0.040 A 
ENDROOT
BRANCH   6   8
HETATM    8  N2  UNL     1      27.047   2.913  51.687  1.00  0.00    -0.303 N 
HETATM    9  H9  UNL     1      27.582   3.780  51.939  1.00  0.00     0.186 HD
BRANCH   8  10
HETATM   10  N3  UNL     1      26.575   2.686  50.383  1.00  0.00    -0.301 N 
HETATM   11  H10 UNL     1      26.778   1.775  49.945  1.00  0.00     0.187 HD
BRANCH  10  12
HETATM   12  C9  UNL     1      25.852   3.738  49.773  1.00  0.00     0.050 A 
HETATM   13  C10 UNL     1      26.283   4.942  49.325  1.00  0.00     0.034 A 
HETATM   14  C11 UNL     1      25.434   5.883  48.726  1.00  0.00     0.046 A 
HETATM   15  C12 UNL     1      24.115   5.504  48.617  1.00  0.00     0.138 A 
HETATM   16  F1  UNL     1      23.353   6.474  48.024  1.00  0.00    -0.204 F 
HETATM   17  C13 UNL     1      23.625   4.302  49.052  1.00  0.00     0.074 A 
HETATM   18 CL1  UNL     1      21.911   4.051  48.802  1.00  0.00    -0.081 Cl
HETATM   19  C14 UNL     1      24.495   3.428  49.626  1.00  0.00     0.057 A 
ENDBRANCH  10  12
ENDBRANCH   8  10
ENDBRANCH   6   8
BRANCH   1  20
HETATM   20  C3  UNL     1      23.359  -0.144  52.909  1.00  0.00     0.062 C 
BRANCH  20  21
HETATM   21  C2  UNL     1      22.168  -0.498  53.727  1.00  0.00    -0.073 A 
HETATM   22  C1  UNL     1      22.217  -1.285  54.781  1.00  0.00     0.039 A 
HETATM   23  O1  UNL     1      20.919  -0.653  54.289  1.00  0.00     0.000 OA
HETATM   24  C16 UNL     1      19.754  -0.586  53.513  1.00  0.00     0.000 C 
ENDBRANCH  20  21
ENDBRANCH   1  20
TORSDOF 5
ENDMDL
