MODEL 1
REMARK VINA RESULT:      -7.7      0.000      0.000
REMARK  5 active torsions:
REMARK  status: ('A' for Active; 'I' for Inactive)
REMARK    1  A    between atoms: O1_2  and  C2_3 
REMARK    2  A    between atoms: C4_5  and  O2_6 
REMARK    3  A    between atoms: C7_9  and  C8_10 
REMARK    4  A    between atoms: S1_13  and  C9_14 
REMARK    5  A    between atoms: C9_14  and  C10_15 
ROOT
HETATM    1  C8  UNL     1      23.852   1.544  51.777  1.00  0.00     0.204 A 
HETATM    2  N1  UNL     1      22.850   1.306  51.060  1.00  0.00    -0.141 NA
HETATM    3  N2  UNL     1      22.712   2.228  49.959  1.00  0.00    -0.024 NA
HETATM    4  S1  UNL     1      23.893   3.283  49.989  1.00  0.00     0.035 SA
HETATM    5  O3  UNL     1      24.753   2.584  51.554  1.00  0.00    -0.251 OA
ENDROOT
BRANCH   1   6
HETATM    6  C7  UNL     1      24.036   0.629  52.914  1.00  0.00     0.024 A 
HETATM    7  C6  UNL     1      25.285   0.438  53.479  1.00  0.00     0.053 A 
HETATM    8  C4  UNL     1      25.567  -0.388  54.537  1.00  0.00     0.071 A 
HETATM    9  C3  UNL     1      24.531  -1.099  55.103  1.00  0.00     0.073 A 
HETATM   10  C2  UNL     1      23.255  -0.971  54.606  1.00  0.00     0.071 A 
HETATM   11  C15 UNL     1      23.065  -0.120  53.542  1.00  0.00     0.053 A 
BRANCH   8  12
HETATM   12  O2  UNL     1      26.833  -0.523  55.040  1.00  0.00    -0.356 OA
HETATM   13  C5  UNL     1      27.829   0.378  54.600  1.00  0.00     0.210 C 
ENDBRANCH   8  12
BRANCH  10  14
HETATM   14  O1  UNL     1      22.147  -1.656  55.122  1.00  0.00    -0.356 OA
HETATM   15  C1  UNL     1      20.946  -1.528  54.389  1.00  0.00     0.210 C 
ENDBRANCH  10  14
ENDBRANCH   1   6
BRANCH   4  16
HETATM   16  C9  UNL     1      24.470   4.700  49.057  1.00  0.00     0.125 C 
BRANCH  16  17
HETATM   17  C10 UNL     1      25.782   5.160  49.649  1.00  0.00     0.042 A 
HETATM   18  C11 UNL     1      26.876   4.227  49.201  1.00  0.00    -0.017 A 
HETATM   19  C12 UNL     1      27.808   4.890  48.547  1.00  0.00    -0.004 A 
HETATM   20  C13 UNL     1      27.425   6.309  48.499  1.00  0.00    -0.004 A 
HETATM   21  C14 UNL     1      26.256   6.450  49.138  1.00  0.00    -0.017 A 
ENDBRANCH  16  17
ENDBRANCH   4  16
TORSDOF 5
ENDMDL
MODEL 2
REMARK VINA RESULT:      -7.6      0.166      2.847
REMARK  5 active torsions:
REMARK  status: ('A' for Active; 'I' for Inactive)
REMARK    1  A    between atoms: O1_2  and  C2_3 
REMARK    2  A    between atoms: C4_5  and  O2_6 
REMARK    3  A    between atoms: C7_9  and  C8_10 
REMARK    4  A    between atoms: S1_13  and  C9_14 
REMARK    5  A    between atoms: C9_14  and  C10_15 
ROOT
HETATM    1  C8  UNL     1      23.983   1.549  51.837  1.00  0.00     0.204 A 
HETATM    2  N1  UNL     1      22.971   1.271  51.147  1.00  0.00    -0.141 NA
HETATM    3  N2  UNL     1      22.787   2.164  50.029  1.00  0.00    -0.024 NA
HETATM    4  S1  UNL     1      23.942   3.248  50.010  1.00  0.00     0.035 SA
HETATM    5  O3  UNL     1      24.853   2.605  51.570  1.00  0.00    -0.251 OA
ENDROOT
BRANCH   1   6
HETATM    6  C7  UNL     1      24.213   0.665  52.989  1.00  0.00     0.024 A 
HETATM    7  C6  UNL     1      23.168  -0.031  53.572  1.00  0.00     0.053 A 
HETATM    8  C4  UNL     1      23.272  -0.878  54.645  1.00  0.00     0.071 A 
HETATM    9  C3  UNL     1      24.516  -1.068  55.209  1.00  0.00     0.073 A 
HETATM   10  C2  UNL     1      25.612  -0.416  54.695  1.00  0.00     0.071 A 
HETATM   11  C15 UNL     1      25.415   0.415  53.617  1.00  0.00     0.053 A 
BRANCH   8  12
HETATM   12  O2  UNL     1      22.188  -1.533  55.166  1.00  0.00    -0.356 OA
HETATM   13  C5  UNL     1      21.075  -1.760  54.325  1.00  0.00     0.210 C 
ENDBRANCH   8  12
BRANCH  10  14
HETATM   14  O1  UNL     1      26.909  -0.553  55.207  1.00  0.00    -0.356 OA
HETATM   15  C1  UNL     1      27.945  -0.007  54.416  1.00  0.00     0.210 C 
ENDBRANCH  10  14
ENDBRANCH   1   6
BRANCH   4  16
HETATM   16  C9  UNL     1      24.464   4.657  49.034  1.00  0.00     0.125 C 
BRANCH  16  17
HETATM   17  C10 UNL     1      25.759   5.182  49.609  1.00  0.00     0.042 A 
HETATM   18  C11 UNL     1      26.876   4.239  49.246  1.00  0.00    -0.017 A 
HETATM   19  C12 UNL     1      27.806   4.869  48.557  1.00  0.00    -0.004 A 
HETATM   20  C13 UNL     1      27.400   6.273  48.399  1.00  0.00    -0.004 A 
HETATM   21  C14 UNL     1      26.218   6.440  49.010  1.00  0.00    -0.017 A 
ENDBRANCH  16  17
ENDBRANCH   4  16
TORSDOF 5
ENDMDL
MODEL 3
REMARK VINA RESULT:      -7.5      4.413      6.293
REMARK  5 active torsions:
REMARK  status: ('A' for Active; 'I' for Inactive)
REMARK    1  A    between atoms: O1_2  and  C2_3 
REMARK    2  A    between atoms: C4_5  and  O2_6 
REMARK    3  A    between atoms: C7_9  and  C8_10 
REMARK    4  A    between atoms: S1_13  and  C9_14 
REMARK    5  A    between atoms: C9_14  and  C10_15 
ROOT
HETATM    1  C8  UNL     1      22.860  -0.385  53.632  1.00  0.00     0.204 A 
HETATM    2  N1  UNL     1      22.899  -1.138  54.636  1.00  0.00    -0.141 NA
HETATM    3  N2  UNL     1      24.213  -1.228  55.224  1.00  0.00    -0.024 NA
HETATM    4  S1  UNL     1      25.231  -0.330  54.408  1.00  0.00     0.035 SA
HETATM    5  O3  UNL     1      23.959   0.304  53.120  1.00  0.00    -0.251 OA
ENDROOT
BRANCH   1   6
HETATM    6  C7  UNL     1      21.540  -0.260  52.997  1.00  0.00     0.024 A 
HETATM    7  C6  UNL     1      21.405   0.302  51.739  1.00  0.00     0.053 A 
HETATM    8  C4  UNL     1      20.226   0.465  51.058  1.00  0.00     0.071 A 
HETATM    9  C3  UNL     1      19.062   0.040  51.659  1.00  0.00     0.073 A 
HETATM   10  C2  UNL     1      19.100  -0.531  52.910  1.00  0.00     0.071 A 
HETATM   11  C15 UNL     1      20.327  -0.655  53.519  1.00  0.00     0.053 A 
BRANCH   8  12
HETATM   12  O2  UNL     1      20.176   1.032  49.812  1.00  0.00    -0.356 OA
HETATM   13  C5  UNL     1      21.365   1.084  49.051  1.00  0.00     0.210 C 
ENDBRANCH   8  12
BRANCH  10  14
HETATM   14  O1  UNL     1      17.964  -0.989  53.590  1.00  0.00    -0.356 OA
HETATM   15  C1  UNL     1      17.803  -2.393  53.645  1.00  0.00     0.210 C 
ENDBRANCH  10  14
ENDBRANCH   1   6
BRANCH   4  16
HETATM   16  C9  UNL     1      26.964   0.122  54.435  1.00  0.00     0.125 C 
BRANCH  16  17
HETATM   17  C10 UNL     1      27.621  -0.429  53.191  1.00  0.00     0.042 A 
HETATM   18  C11 UNL     1      29.068  -0.725  53.489  1.00  0.00    -0.017 A 
HETATM   19  C12 UNL     1      29.331  -1.997  53.277  1.00  0.00    -0.004 A 
HETATM   20  C13 UNL     1      28.101  -2.661  52.824  1.00  0.00    -0.004 A 
HETATM   21  C14 UNL     1      27.122  -1.746  52.779  1.00  0.00    -0.017 A 
ENDBRANCH  16  17
ENDBRANCH   4  16
TORSDOF 5
ENDMDL
MODEL 4
REMARK VINA RESULT:      -7.4      1.584      3.444
REMARK  5 active torsions:
REMARK  status: ('A' for Active; 'I' for Inactive)
REMARK    1  A    between atoms: O1_2  and  C2_3 
REMARK    2  A    between atoms: C4_5  and  O2_6 
REMARK    3  A    between atoms: C7_9  and  C8_10 
REMARK    4  A    between atoms: S1_13  and  C9_14 
REMARK    5  A    between atoms: C9_14  and  C10_15 
ROOT
HETATM    1  C8  UNL     1      25.759   2.279  51.303  1.00  0.00     0.204 A 
HETATM    2  N1  UNL     1      24.696   2.658  50.755  1.00  0.00    -0.141 NA
HETATM    3  N2  UNL     1      24.915   3.629  49.710  1.00  0.00    -0.024 NA
HETATM    4  S1  UNL     1      26.464   3.928  49.569  1.00  0.00     0.035 SA
HETATM    5  O3  UNL     1      27.031   2.732  50.958  1.00  0.00    -0.251 OA
ENDROOT
BRANCH   1   6
HETATM    6  C7  UNL     1      25.587   1.287  52.376  1.00  0.00     0.024 A 
HETATM    7  C6  UNL     1      24.376   0.643  52.561  1.00  0.00     0.053 A 
HETATM    8  C4  UNL     1      24.109  -0.295  53.525  1.00  0.00     0.071 A 
HETATM    9  C3  UNL     1      25.119  -0.641  54.397  1.00  0.00     0.073 A 
HETATM   10  C2  UNL     1      26.356  -0.051  54.287  1.00  0.00     0.071 A 
HETATM   11  C15 UNL     1      26.535   0.880  53.289  1.00  0.00     0.053 A 
BRANCH   8  12
HETATM   12  O2  UNL     1      22.881  -0.889  53.645  1.00  0.00    -0.356 OA
HETATM   13  C5  UNL     1      22.370  -1.117  54.943  1.00  0.00     0.210 C 
ENDBRANCH   8  12
BRANCH  10  14
HETATM   14  O1  UNL     1      27.436  -0.345  55.130  1.00  0.00    -0.356 OA
HETATM   15  C1  UNL     1      28.681   0.210  54.755  1.00  0.00     0.210 C 
ENDBRANCH  10  14
ENDBRANCH   1   6
BRANCH   4  16
HETATM   16  C9  UNL     1      27.566   4.942  48.585  1.00  0.00     0.125 C 
BRANCH  16  17
HETATM   17  C10 UNL     1      27.203   6.392  48.802  1.00  0.00     0.042 A 
HETATM   18  C11 UNL     1      28.075   7.253  47.927  1.00  0.00    -0.017 A 
HETATM   19  C12 UNL     1      27.338   7.976  47.109  1.00  0.00    -0.004 A 
HETATM   20  C13 UNL     1      25.922   7.667  47.359  1.00  0.00    -0.004 A 
HETATM   21  C14 UNL     1      25.859   6.753  48.337  1.00  0.00    -0.017 A 
ENDBRANCH  16  17
ENDBRANCH   4  16
TORSDOF 5
ENDMDL
MODEL 5
REMARK VINA RESULT:      -7.3      1.580      2.095
REMARK  5 active torsions:
REMARK  status: ('A' for Active; 'I' for Inactive)
REMARK    1  A    between atoms: O1_2  and  C2_3 
REMARK    2  A    between atoms: C4_5  and  O2_6 
REMARK    3  A    between atoms: C7_9  and  C8_10 
REMARK    4  A    between atoms: S1_13  and  C9_14 
REMARK    5  A    between atoms: C9_14  and  C10_15 
ROOT
HETATM    1  C8  UNL     1      25.674   2.305  51.286  1.00  0.00     0.204 A 
HETATM    2  N1  UNL     1      24.624   2.782  50.790  1.00  0.00    -0.141 NA
HETATM    3  N2  UNL     1      24.880   3.767  49.768  1.00  0.00    -0.024 NA
HETATM    4  S1  UNL     1      26.442   3.951  49.576  1.00  0.00     0.035 SA
HETATM    5  O3  UNL     1      26.964   2.671  50.905  1.00  0.00    -0.251 OA
ENDROOT
BRANCH   1   6
HETATM    6  C7  UNL     1      25.464   1.294  52.334  1.00  0.00     0.024 A 
HETATM    7  C6  UNL     1      26.483   0.954  53.208  1.00  0.00     0.053 A 
HETATM    8  C4  UNL     1      26.395   0.030  54.217  1.00  0.00     0.071 A 
HETATM    9  C3  UNL     1      25.198  -0.630  54.395  1.00  0.00     0.073 A 
HETATM   10  C2  UNL     1      24.130  -0.355  53.573  1.00  0.00     0.071 A 
HETATM   11  C15 UNL     1      24.309   0.587  52.586  1.00  0.00     0.053 A 
BRANCH   8  12
HETATM   12  O2  UNL     1      27.450  -0.253  55.042  1.00  0.00    -0.356 OA
HETATM   13  C5  UNL     1      28.712   0.301  54.729  1.00  0.00     0.210 C 
ENDBRANCH   8  12
BRANCH  10  14
HETATM   14  O1  UNL     1      22.881  -0.979  53.685  1.00  0.00    -0.356 OA
HETATM   15  C1  UNL     1      22.421  -1.203  55.003  1.00  0.00     0.210 C 
ENDBRANCH  10  14
ENDBRANCH   1   6
BRANCH   4  16
HETATM   16  C9  UNL     1      27.583   4.909  48.581  1.00  0.00     0.125 C 
BRANCH  16  17
HETATM   17  C10 UNL     1      27.281   6.376  48.787  1.00  0.00     0.042 A 
HETATM   18  C11 UNL     1      28.220   7.194  47.940  1.00  0.00    -0.017 A 
HETATM   19  C12 UNL     1      27.543   7.949  47.100  1.00  0.00    -0.004 A 
HETATM   20  C13 UNL     1      26.108   7.708  47.305  1.00  0.00    -0.004 A 
HETATM   21  C14 UNL     1      25.971   6.799  48.280  1.00  0.00    -0.017 A 
ENDBRANCH  16  17
ENDBRANCH   4  16
TORSDOF 5
ENDMDL
MODEL 6
REMARK VINA RESULT:      -7.1      1.388      1.702
REMARK  5 active torsions:
REMARK  status: ('A' for Active; 'I' for Inactive)
REMARK    1  A    between atoms: O1_2  and  C2_3 
REMARK    2  A    between atoms: C4_5  and  O2_6 
REMARK    3  A    between atoms: C7_9  and  C8_10 
REMARK    4  A    between atoms: S1_13  and  C9_14 
REMARK    5  A    between atoms: C9_14  and  C10_15 
ROOT
HETATM    1  C8  UNL     1      23.663   2.849  52.087  1.00  0.00     0.204 A 
HETATM    2  N1  UNL     1      22.556   3.398  51.864  1.00  0.00    -0.141 NA
HETATM    3  N2  UNL     1      22.682   4.664  51.184  1.00  0.00    -0.024 NA
HETATM    4  S1  UNL     1      24.210   4.984  50.918  1.00  0.00     0.035 SA
HETATM    5  O3  UNL     1      24.897   3.385  51.725  1.00  0.00    -0.251 OA
ENDROOT
BRANCH   1   6
HETATM    6  C7  UNL     1      23.587   1.553  52.780  1.00  0.00     0.024 A 
HETATM    7  C6  UNL     1      24.735   0.857  53.113  1.00  0.00     0.053 A 
HETATM    8  C4  UNL     1      24.778  -0.353  53.757  1.00  0.00     0.071 A 
HETATM    9  C3  UNL     1      23.585  -0.945  54.112  1.00  0.00     0.073 A 
HETATM   10  C2  UNL     1      22.393  -0.324  53.820  1.00  0.00     0.071 A 
HETATM   11  C15 UNL     1      22.446   0.888  53.172  1.00  0.00     0.053 A 
BRANCH   8  12
HETATM   12  O2  UNL     1      25.958  -0.981  54.053  1.00  0.00    -0.356 OA
HETATM   13  C5  UNL     1      26.949  -1.056  53.048  1.00  0.00     0.210 C 
ENDBRANCH   8  12
BRANCH  10  14
HETATM   14  O1  UNL     1      21.139  -0.857  54.145  1.00  0.00    -0.356 OA
HETATM   15  C1  UNL     1      20.024  -0.205  53.570  1.00  0.00     0.210 C 
ENDBRANCH  10  14
ENDBRANCH   1   6
BRANCH   4  16
HETATM   16  C9  UNL     1      25.219   6.264  50.175  1.00  0.00     0.125 C 
BRANCH  16  17
HETATM   17  C10 UNL     1      25.797   5.729  48.885  1.00  0.00     0.042 A 
HETATM   18  C11 UNL     1      26.651   6.794  48.250  1.00  0.00    -0.017 A 
HETATM   19  C12 UNL     1      27.887   6.364  48.098  1.00  0.00    -0.004 A 
HETATM   20  C13 UNL     1      27.970   4.989  48.612  1.00  0.00    -0.004 A 
HETATM   21  C14 UNL     1      26.758   4.636  49.063  1.00  0.00    -0.017 A 
ENDBRANCH  16  17
ENDBRANCH   4  16
TORSDOF 5
ENDMDL
MODEL 7
REMARK VINA RESULT:      -6.9      3.384      6.363
REMARK  5 active torsions:
REMARK  status: ('A' for Active; 'I' for Inactive)
REMARK    1  A    between atoms: O1_2  and  C2_3 
REMARK    2  A    between atoms: C4_5  and  O2_6 
REMARK    3  A    between atoms: C7_9  and  C8_10 
REMARK    4  A    between atoms: S1_13  and  C9_14 
REMARK    5  A    between atoms: C9_14  and  C10_15 
ROOT
HETATM    1  C8  UNL     1      23.610  -0.190  53.417  1.00  0.00     0.204 A 
HETATM    2  N1  UNL     1      23.409  -0.893  54.437  1.00  0.00    -0.141 NA
HETATM    3  N2  UNL     1      22.009  -1.146  54.681  1.00  0.00    -0.024 NA
HETATM    4  S1  UNL     1      21.133  -0.445  53.563  1.00  0.00     0.035 SA
HETATM    5  O3  UNL     1      22.604   0.306  52.590  1.00  0.00    -0.251 OA
ENDROOT
BRANCH   1   6
HETATM    6  C7  UNL     1      25.024   0.095  53.126  1.00  0.00     0.024 A 
HETATM    7  C6  UNL     1      26.021  -0.782  53.516  1.00  0.00     0.053 A 
HETATM    8  C4  UNL     1      27.364  -0.615  53.297  1.00  0.00     0.071 A 
HETATM    9  C3  UNL     1      27.780   0.518  52.631  1.00  0.00     0.073 A 
HETATM   10  C2  UNL     1      26.857   1.446  52.206  1.00  0.00     0.071 A 
HETATM   11  C15 UNL     1      25.531   1.195  52.470  1.00  0.00     0.053 A 
BRANCH   8  12
HETATM   12  O2  UNL     1      28.292  -1.531  53.715  1.00  0.00    -0.356 OA
HETATM   13  C5  UNL     1      29.661  -1.201  53.595  1.00  0.00     0.210 C 
ENDBRANCH   8  12
BRANCH  10  14
HETATM   14  O1  UNL     1      27.195   2.622  51.525  1.00  0.00    -0.356 OA
HETATM   15  C1  UNL     1      26.407   2.926  50.391  1.00  0.00     0.210 C 
ENDBRANCH  10  14
ENDBRANCH   1   6
BRANCH   4  16
HETATM   16  C9  UNL     1      19.409  -0.249  53.115  1.00  0.00     0.125 C 
BRANCH  16  17
HETATM   17  C10 UNL     1      19.331   0.040  51.634  1.00  0.00     0.042 A 
HETATM   18  C11 UNL     1      17.938  -0.264  51.147  1.00  0.00    -0.017 A 
HETATM   19  C12 UNL     1      17.391   0.811  50.616  1.00  0.00    -0.004 A 
HETATM   20  C13 UNL     1      18.356   1.917  50.699  1.00  0.00    -0.004 A 
HETATM   21  C14 UNL     1      19.470   1.459  51.288  1.00  0.00    -0.017 A 
ENDBRANCH  16  17
ENDBRANCH   4  16
TORSDOF 5
ENDMDL
MODEL 8
REMARK VINA RESULT:      -6.9      3.506      5.752
REMARK  5 active torsions:
REMARK  status: ('A' for Active; 'I' for Inactive)
REMARK    1  A    between atoms: O1_2  and  C2_3 
REMARK    2  A    between atoms: C4_5  and  O2_6 
REMARK    3  A    between atoms: C7_9  and  C8_10 
REMARK    4  A    between atoms: S1_13  and  C9_14 
REMARK    5  A    between atoms: C9_14  and  C10_15 
ROOT
HETATM    1  C8  UNL     1      24.441   1.803  52.478  1.00  0.00     0.204 A 
HETATM    2  N1  UNL     1      24.820   2.321  51.399  1.00  0.00    -0.141 NA
HETATM    3  N2  UNL     1      26.254   2.457  51.312  1.00  0.00    -0.024 NA
HETATM    4  S1  UNL     1      26.929   1.900  52.633  1.00  0.00     0.035 SA
HETATM    5  O3  UNL     1      25.295   1.395  53.501  1.00  0.00    -0.251 OA
ENDROOT
BRANCH   1   6
HETATM    6  C7  UNL     1      22.985   1.643  52.614  1.00  0.00     0.024 A 
HETATM    7  C6  UNL     1      22.124   2.689  52.327  1.00  0.00     0.053 A 
HETATM    8  C4  UNL     1      20.757   2.647  52.419  1.00  0.00     0.071 A 
HETATM    9  C3  UNL     1      20.166   1.471  52.831  1.00  0.00     0.073 A 
HETATM   10  C2  UNL     1      20.945   0.379  53.138  1.00  0.00     0.071 A 
HETATM   11  C15 UNL     1      22.308   0.512  53.017  1.00  0.00     0.053 A 
BRANCH   8  12
HETATM   12  O2  UNL     1      19.971   3.727  52.117  1.00  0.00    -0.356 OA
HETATM   13  C5  UNL     1      18.705   3.493  51.533  1.00  0.00     0.210 C 
ENDBRANCH   8  12
BRANCH  10  14
HETATM   14  O1  UNL     1      20.425  -0.850  53.563  1.00  0.00    -0.356 OA
HETATM   15  C1  UNL     1      21.261  -1.611  54.413  1.00  0.00     0.210 C 
ENDBRANCH  10  14
ENDBRANCH   1   6
BRANCH   4  16
HETATM   16  C9  UNL     1      28.563   1.690  53.336  1.00  0.00     0.125 C 
BRANCH  16  17
HETATM   17  C10 UNL     1      28.599   0.372  54.075  1.00  0.00     0.042 A 
HETATM   18  C11 UNL     1      27.651  -0.590  53.409  1.00  0.00    -0.017 A 
HETATM   19  C12 UNL     1      28.295  -1.665  53.003  1.00  0.00    -0.004 A 
HETATM   20  C13 UNL     1      29.715  -1.521  53.355  1.00  0.00    -0.004 A 
HETATM   21  C14 UNL     1      29.876  -0.342  53.972  1.00  0.00    -0.017 A 
ENDBRANCH  16  17
ENDBRANCH   4  16
TORSDOF 5
ENDMDL
MODEL 9
REMARK VINA RESULT:      -6.9      3.139      7.020
REMARK  5 active torsions:
REMARK  status: ('A' for Active; 'I' for Inactive)
REMARK    1  A    between atoms: O1_2  and  C2_3 
REMARK    2  A    between atoms: C4_5  and  O2_6 
REMARK    3  A    between atoms: C7_9  and  C8_10 
REMARK    4  A    between atoms: S1_13  and  C9_14 
REMARK    5  A    between atoms: C9_14  and  C10_15 
ROOT
HETATM    1  C8  UNL     1      23.467   0.319  52.892  1.00  0.00     0.204 A 
HETATM    2  N1  UNL     1      23.085  -0.621  53.632  1.00  0.00    -0.141 NA
HETATM    3  N2  UNL     1      21.651  -0.777  53.650  1.00  0.00    -0.024 NA
HETATM    4  S1  UNL     1      20.978   0.307  52.711  1.00  0.00     0.035 SA
HETATM    5  O3  UNL     1      22.614   1.139  52.155  1.00  0.00    -0.251 OA
ENDROOT
BRANCH   1   6
HETATM    6  C7  UNL     1      24.923   0.518  52.840  1.00  0.00     0.024 A 
HETATM    7  C6  UNL     1      25.474   1.542  52.089  1.00  0.00     0.053 A 
HETATM    8  C4  UNL     1      26.813   1.815  51.972  1.00  0.00     0.071 A 
HETATM    9  C3  UNL     1      27.705   1.015  52.652  1.00  0.00     0.073 A 
HETATM   10  C2  UNL     1      27.246  -0.027  53.424  1.00  0.00     0.071 A 
HETATM   11  C15 UNL     1      25.887  -0.228  53.483  1.00  0.00     0.053 A 
BRANCH   8  12
HETATM   12  O2  UNL     1      27.282   2.850  51.206  1.00  0.00    -0.356 OA
HETATM   13  C5  UNL     1      26.424   3.405  50.231  1.00  0.00     0.210 C 
ENDBRANCH   8  12
BRANCH  10  14
HETATM   14  O1  UNL     1      28.083  -0.887  54.146  1.00  0.00    -0.356 OA
HETATM   15  C1  UNL     1      29.228  -1.354  53.460  1.00  0.00     0.210 C 
ENDBRANCH  10  14
ENDBRANCH   1   6
BRANCH   4  16
HETATM   16  C9  UNL     1      19.345   0.811  52.173  1.00  0.00     0.125 C 
BRANCH  16  17
HETATM   17  C10 UNL     1      18.608  -0.411  51.676  1.00  0.00     0.042 A 
HETATM   18  C11 UNL     1      17.974  -1.112  52.849  1.00  0.00    -0.017 A 
HETATM   19  C12 UNL     1      16.669  -1.192  52.687  1.00  0.00    -0.004 A 
HETATM   20  C13 UNL     1      16.316  -0.558  51.408  1.00  0.00    -0.004 A 
HETATM   21  C14 UNL     1      17.443  -0.112  50.836  1.00  0.00    -0.017 A 
ENDBRANCH  16  17
ENDBRANCH   4  16
TORSDOF 5
ENDMDL
