MODEL 1
REMARK VINA RESULT:      -8.6      0.000      0.000
REMARK  6 active torsions:
REMARK  status: ('A' for Active; 'I' for Inactive)
REMARK    1  A    between atoms: N1_1  and  C1_2 
REMARK    2  A    between atoms: N2_7  and  C5_8 
REMARK    3  A    between atoms: C5_8  and  C6_9 
REMARK    4  A    between atoms: C6_9  and  O2_10 
REMARK    5  A    between atoms: O2_10  and  C7_11 
REMARK    6  A    between atoms: N3_22  and  C16_23 
ROOT
HETATM    1  C7  UNL     1      22.622   2.170  52.035  1.00  0.00     0.105 A 
HETATM    2  C8  UNL     1      23.934   2.257  51.631  1.00  0.00     0.048 A 
HETATM    3  C9  UNL     1      24.923   1.392  52.040  1.00  0.00    -0.031 A 
HETATM    4  C10 UNL     1      24.574   0.378  52.907  1.00  0.00     0.000 A 
HETATM    5  C11 UNL     1      23.287   0.228  53.350  1.00  0.00     0.113 A 
HETATM    6  C12 UNL     1      22.309   1.127  52.913  1.00  0.00     0.136 A 
HETATM    7  O3  UNL     1      21.066   0.833  53.456  1.00  0.00    -0.344 OA
HETATM    8  C13 UNL     1      20.775  -0.499  53.910  1.00  0.00     0.202 C 
HETATM    9  C14 UNL     1      21.818  -0.869  54.911  1.00  0.00     0.202 C 
HETATM   10  O4  UNL     1      23.073  -0.826  54.213  1.00  0.00    -0.345 OA
HETATM   11  C15 UNL     1      25.703  -0.508  53.296  1.00  0.00     0.151 C 
HETATM   12  N3  UNL     1      26.831   0.383  53.496  1.00  0.00    -0.234 NA
HETATM   13  N4  UNL     1      27.272   0.802  52.246  1.00  0.00    -0.254 NA
HETATM   14  C21 UNL     1      26.300   1.589  51.538  1.00  0.00     0.144 C 
HETATM   15  H25 UNL     1      28.219   1.273  52.308  1.00  0.00     0.141 HD
ENDROOT
BRANCH   1  16
HETATM   16  O2  UNL     1      21.515   2.890  51.764  1.00  0.00    -0.346 OA
BRANCH  16  17
HETATM   17  C6  UNL     1      21.271   3.975  50.954  1.00  0.00     0.206 C 
BRANCH  17  18
HETATM   18  C5  UNL     1      21.866   5.242  51.454  1.00  0.00     0.302 C 
BRANCH  18  19
HETATM   19  N2  UNL     1      23.013   5.674  50.681  1.00  0.00     0.128 N 
HETATM   20  C1  UNL     1      23.378   7.042  50.968  1.00  0.00     0.474 C 
HETATM   21  C2  UNL     1      23.832   7.815  49.768  1.00  0.00     0.235 C 
HETATM   22  O1  UNL     1      24.638   6.974  49.001  1.00  0.00    -0.385 OA
HETATM   23  C3  UNL     1      23.906   5.958  48.415  1.00  0.00     0.198 C 
HETATM   24  C4  UNL     1      22.802   5.438  49.268  1.00  0.00     0.301 C 
BRANCH  20  25
HETATM   25  N1  UNL     1      24.426   7.082  51.967  1.00  0.00     0.114 N 
HETATM   26  H1  UNL     1      25.231   7.678  51.662  1.00  0.00     0.315 HD
HETATM   27  H2  UNL     1      24.064   7.445  52.884  1.00  0.00     0.315 HD
ENDBRANCH  20  25
ENDBRANCH  18  19
ENDBRANCH  17  18
ENDBRANCH  16  17
ENDBRANCH   1  16
BRANCH  12  28
HETATM   28  C16 UNL     1      27.888  -0.355  54.148  1.00  0.00     0.137 A 
HETATM   29  C17 UNL     1      28.024  -1.704  53.516  1.00  0.00    -0.001 A 
HETATM   30  C18 UNL     1      29.274  -1.798  53.075  1.00  0.00    -0.001 A 
HETATM   31  C19 UNL     1      30.030  -0.572  53.368  1.00  0.00     0.016 A 
HETATM   32  C20 UNL     1      29.208   0.261  53.995  1.00  0.00     0.011 A 
HETATM   33 BR1  UNL     1      29.540   2.032  54.661  1.00  0.00    -0.054 Br
ENDBRANCH  12  28
TORSDOF 6
ENDMDL
MODEL 2
REMARK VINA RESULT:      -8.5      3.646      7.906
REMARK  6 active torsions:
REMARK  status: ('A' for Active; 'I' for Inactive)
REMARK    1  A    between atoms: N1_1  and  C1_2 
REMARK    2  A    between atoms: N2_7  and  C5_8 
REMARK    3  A    between atoms: C5_8  and  C6_9 
REMARK    4  A    between atoms: C6_9  and  O2_10 
REMARK    5  A    between atoms: O2_10  and  C7_11 
REMARK    6  A    between atoms: N3_22  and  C16_23 
ROOT
HETATM    1  C7  UNL     1      24.909   2.840  50.607  1.00  0.00     0.105 A 
HETATM    2  C8  UNL     1      26.027   3.226  49.905  1.00  0.00     0.048 A 
HETATM    3  C9  UNL     1      26.299   4.527  49.548  1.00  0.00    -0.031 A 
HETATM    4  C10 UNL     1      25.394   5.499  49.918  1.00  0.00     0.000 A 
HETATM    5  C11 UNL     1      24.259   5.189  50.618  1.00  0.00     0.113 A 
HETATM    6  C12 UNL     1      24.017   3.856  50.964  1.00  0.00     0.136 A 
HETATM    7  O3  UNL     1      22.828   3.719  51.668  1.00  0.00    -0.344 OA
HETATM    8  C13 UNL     1      22.285   4.838  52.388  1.00  0.00     0.202 C 
HETATM    9  C14 UNL     1      22.122   5.959  51.417  1.00  0.00     0.202 C 
HETATM   10  O4  UNL     1      23.439   6.255  50.925  1.00  0.00    -0.345 OA
HETATM   11  C15 UNL     1      25.767   6.874  49.491  1.00  0.00     0.151 C 
HETATM   12  N3  UNL     1      26.297   6.722  48.147  1.00  0.00    -0.234 NA
HETATM   13  N4  UNL     1      27.560   6.149  48.249  1.00  0.00    -0.254 NA
HETATM   14  C21 UNL     1      27.536   4.818  48.791  1.00  0.00     0.144 C 
HETATM   15  H25 UNL     1      28.089   6.213  47.333  1.00  0.00     0.141 HD
ENDROOT
BRANCH   1  16
HETATM   16  O2  UNL     1      24.455   1.652  51.054  1.00  0.00    -0.346 OA
BRANCH  16  17
HETATM   17  C6  UNL     1      24.804   0.848  52.115  1.00  0.00     0.206 C 
BRANCH  17  18
HETATM   18  C5  UNL     1      26.190   0.321  52.038  1.00  0.00     0.302 C 
BRANCH  18  19
HETATM   19  N2  UNL     1      26.976   0.611  53.221  1.00  0.00     0.128 N 
HETATM   20  C1  UNL     1      27.457   1.973  53.233  1.00  0.00     0.474 C 
HETATM   21  C2  UNL     1      28.842   2.123  53.785  1.00  0.00     0.235 C 
HETATM   22  O1  UNL     1      28.952   1.284  54.893  1.00  0.00    -0.385 OA
HETATM   23  C3  UNL     1      28.942  -0.050  54.528  1.00  0.00     0.198 C 
HETATM   24  C4  UNL     1      28.039  -0.358  53.385  1.00  0.00     0.301 C 
BRANCH  20  25
HETATM   25  N1  UNL     1      26.561   2.815  54.000  1.00  0.00     0.114 N 
HETATM   26  H1  UNL     1      25.640   2.942  53.518  1.00  0.00     0.315 HD
HETATM   27  H2  UNL     1      26.389   2.415  54.957  1.00  0.00     0.315 HD
ENDBRANCH  20  25
ENDBRANCH  18  19
ENDBRANCH  17  18
ENDBRANCH  16  17
ENDBRANCH   1  16
BRANCH  12  28
HETATM   28  C16 UNL     1      26.418   8.032  47.552  1.00  0.00     0.137 A 
HETATM   29  C17 UNL     1      27.788   8.199  46.974  1.00  0.00    -0.001 A 
HETATM   30  C18 UNL     1      27.630   8.468  45.683  1.00  0.00    -0.001 A 
HETATM   31  C19 UNL     1      26.207   8.498  45.319  1.00  0.00     0.016 A 
HETATM   32  C20 UNL     1      25.511   8.242  46.421  1.00  0.00     0.011 A 
HETATM   33 BR1  UNL     1      23.609   8.129  46.664  1.00  0.00    -0.054 Br
ENDBRANCH  12  28
TORSDOF 6
ENDMDL
MODEL 3
REMARK VINA RESULT:      -8.2      4.446      8.474
REMARK  6 active torsions:
REMARK  status: ('A' for Active; 'I' for Inactive)
REMARK    1  A    between atoms: N1_1  and  C1_2 
REMARK    2  A    between atoms: N2_7  and  C5_8 
REMARK    3  A    between atoms: C5_8  and  C6_9 
REMARK    4  A    between atoms: C6_9  and  O2_10 
REMARK    5  A    between atoms: O2_10  and  C7_11 
REMARK    6  A    between atoms: N3_22  and  C16_23 
ROOT
HETATM    1  C7  UNL     1      22.236   0.101  53.453  1.00  0.00     0.105 A 
HETATM    2  C8  UNL     1      21.084  -0.585  53.759  1.00  0.00     0.048 A 
HETATM    3  C9  UNL     1      19.921  -0.499  53.028  1.00  0.00    -0.031 A 
HETATM    4  C10 UNL     1      19.915   0.327  51.923  1.00  0.00     0.000 A 
HETATM    5  C11 UNL     1      21.025   1.041  51.558  1.00  0.00     0.113 A 
HETATM    6  C12 UNL     1      22.188   0.927  52.325  1.00  0.00     0.136 A 
HETATM    7  O3  UNL     1      23.213   1.714  51.818  1.00  0.00    -0.344 OA
HETATM    8  C13 UNL     1      23.208   2.097  50.433  1.00  0.00     0.202 C 
HETATM    9  C14 UNL     1      21.915   2.790  50.164  1.00  0.00     0.202 C 
HETATM   10  O4  UNL     1      20.883   1.828  50.434  1.00  0.00    -0.345 OA
HETATM   11  C15 UNL     1      18.619   0.360  51.194  1.00  0.00     0.151 C 
HETATM   12  N3  UNL     1      17.602   0.375  52.231  1.00  0.00    -0.234 NA
HETATM   13  N4  UNL     1      17.536  -0.899  52.784  1.00  0.00    -0.254 NA
HETATM   14  C21 UNL     1      18.746  -1.286  53.457  1.00  0.00     0.144 C 
HETATM   15  H25 UNL     1      16.672  -1.014  53.386  1.00  0.00     0.141 HD
ENDROOT
BRANCH   1  16
HETATM   16  O2  UNL     1      23.460   0.162  54.015  1.00  0.00    -0.346 OA
BRANCH  16  17
HETATM   17  C6  UNL     1      24.434  -0.778  54.259  1.00  0.00     0.206 C 
BRANCH  17  18
HETATM   18  C5  UNL     1      25.657  -0.602  53.434  1.00  0.00     0.302 C 
BRANCH  18  19
HETATM   19  N2  UNL     1      26.548   0.419  53.949  1.00  0.00     0.128 N 
HETATM   20  C1  UNL     1      26.551   1.604  53.123  1.00  0.00     0.474 C 
HETATM   21  C2  UNL     1      27.898   2.246  52.985  1.00  0.00     0.235 C 
HETATM   22  O1  UNL     1      28.517   2.206  54.234  1.00  0.00    -0.385 OA
HETATM   23  C3  UNL     1      28.860   0.916  54.595  1.00  0.00     0.198 C 
HETATM   24  C4  UNL     1      27.876  -0.115  54.163  1.00  0.00     0.301 C 
BRANCH  20  25
HETATM   25  N1  UNL     1      25.623   2.585  53.650  1.00  0.00     0.114 N 
HETATM   26  H1  UNL     1      24.937   2.153  54.312  1.00  0.00     0.315 HD
HETATM   27  H2  UNL     1      26.131   3.360  54.146  1.00  0.00     0.315 HD
ENDBRANCH  20  25
ENDBRANCH  18  19
ENDBRANCH  17  18
ENDBRANCH  16  17
ENDBRANCH   1  16
BRANCH  12  28
HETATM   28  C16 UNL     1      16.332   0.693  51.621  1.00  0.00     0.137 A 
HETATM   29  C17 UNL     1      15.277  -0.231  52.142  1.00  0.00    -0.001 A 
HETATM   30  C18 UNL     1      14.336   0.529  52.691  1.00  0.00    -0.001 A 
HETATM   31  C19 UNL     1      14.678   1.954  52.582  1.00  0.00     0.016 A 
HETATM   32  C20 UNL     1      15.846   2.034  51.954  1.00  0.00     0.011 A 
HETATM   33 BR1  UNL     1      16.873   3.587  51.482  1.00  0.00    -0.054 Br
ENDBRANCH  12  28
TORSDOF 6
ENDMDL
MODEL 4
REMARK VINA RESULT:      -8.1      4.320      6.988
REMARK  6 active torsions:
REMARK  status: ('A' for Active; 'I' for Inactive)
REMARK    1  A    between atoms: N1_1  and  C1_2 
REMARK    2  A    between atoms: N2_7  and  C5_8 
REMARK    3  A    between atoms: C5_8  and  C6_9 
REMARK    4  A    between atoms: C6_9  and  O2_10 
REMARK    5  A    between atoms: O2_10  and  C7_11 
REMARK    6  A    between atoms: N3_22  and  C16_23 
ROOT
HETATM    1  C7  UNL     1      26.801   6.023  48.703  1.00  0.00     0.105 A 
HETATM    2  C8  UNL     1      27.025   4.697  48.990  1.00  0.00     0.048 A 
HETATM    3  C9  UNL     1      26.225   3.943  49.818  1.00  0.00    -0.031 A 
HETATM    4  C10 UNL     1      25.134   4.559  50.394  1.00  0.00     0.000 A 
HETATM    5  C11 UNL     1      24.847   5.876  50.154  1.00  0.00     0.113 A 
HETATM    6  C12 UNL     1      25.683   6.610  49.307  1.00  0.00     0.136 A 
HETATM    7  O3  UNL     1      25.251   7.922  49.174  1.00  0.00    -0.344 OA
HETATM    8  C13 UNL     1      23.873   8.254  49.414  1.00  0.00     0.202 C 
HETATM    9  C14 UNL     1      23.534   7.791  50.791  1.00  0.00     0.202 C 
HETATM   10  O4  UNL     1      23.728   6.368  50.792  1.00  0.00    -0.345 OA
HETATM   11  C15 UNL     1      24.326   3.672  51.273  1.00  0.00     0.151 C 
HETATM   12  N3  UNL     1      25.298   2.881  52.007  1.00  0.00    -0.234 NA
HETATM   13  N4  UNL     1      25.828   1.938  51.133  1.00  0.00    -0.254 NA
HETATM   14  C21 UNL     1      26.570   2.524  50.051  1.00  0.00     0.144 C 
HETATM   15  H25 UNL     1      26.374   1.194  51.653  1.00  0.00     0.141 HD
ENDROOT
BRANCH   1  16
HETATM   16  O2  UNL     1      27.438   6.930  47.937  1.00  0.00    -0.346 OA
BRANCH  16  17
HETATM   17  C6  UNL     1      28.729   7.031  47.471  1.00  0.00     0.206 C 
BRANCH  17  18
HETATM   18  C5  UNL     1      29.749   7.124  48.547  1.00  0.00     0.302 C 
BRANCH  18  19
HETATM   19  N2  UNL     1      30.658   5.995  48.567  1.00  0.00     0.128 N 
HETATM   20  C1  UNL     1      31.823   6.249  49.384  1.00  0.00     0.474 C 
HETATM   21  C2  UNL     1      33.092   5.681  48.826  1.00  0.00     0.235 C 
HETATM   22  O1  UNL     1      32.802   4.418  48.313  1.00  0.00    -0.385 OA
HETATM   23  C3  UNL     1      32.012   4.493  47.180  1.00  0.00     0.198 C 
HETATM   24  C4  UNL     1      30.999   5.584  47.221  1.00  0.00     0.301 C 
BRANCH  20  25
HETATM   25  N1  UNL     1      31.625   5.717  50.717  1.00  0.00     0.114 N 
HETATM   26  H1  UNL     1      31.613   4.670  50.719  1.00  0.00     0.315 HD
HETATM   27  H2  UNL     1      32.376   6.048  51.373  1.00  0.00     0.315 HD
ENDBRANCH  20  25
ENDBRANCH  18  19
ENDBRANCH  17  18
ENDBRANCH  16  17
ENDBRANCH   1  16
BRANCH  12  28
HETATM   28  C16 UNL     1      24.615   2.199  53.082  1.00  0.00     0.137 A 
HETATM   29  C17 UNL     1      23.237   1.818  52.642  1.00  0.00    -0.001 A 
HETATM   30  C18 UNL     1      23.143   0.499  52.771  1.00  0.00    -0.001 A 
HETATM   31  C19 UNL     1      24.396  -0.072  53.285  1.00  0.00     0.016 A 
HETATM   32  C20 UNL     1      25.246   0.933  53.461  1.00  0.00     0.011 A 
HETATM   33 BR1  UNL     1      27.056   0.901  54.105  1.00  0.00    -0.054 Br
ENDBRANCH  12  28
TORSDOF 6
ENDMDL
MODEL 5
REMARK VINA RESULT:      -8.1      2.227      3.798
REMARK  6 active torsions:
REMARK  status: ('A' for Active; 'I' for Inactive)
REMARK    1  A    between atoms: N1_1  and  C1_2 
REMARK    2  A    between atoms: N2_7  and  C5_8 
REMARK    3  A    between atoms: C5_8  and  C6_9 
REMARK    4  A    between atoms: C6_9  and  O2_10 
REMARK    5  A    between atoms: O2_10  and  C7_11 
REMARK    6  A    between atoms: N3_22  and  C16_23 
ROOT
HETATM    1  C7  UNL     1      23.561   5.238  49.430  1.00  0.00     0.105 A 
HETATM    2  C8  UNL     1      24.783   4.609  49.433  1.00  0.00     0.048 A 
HETATM    3  C9  UNL     1      25.069   3.488  50.181  1.00  0.00    -0.031 A 
HETATM    4  C10 UNL     1      24.067   2.970  50.973  1.00  0.00     0.000 A 
HETATM    5  C11 UNL     1      22.824   3.543  51.020  1.00  0.00     0.113 A 
HETATM    6  C12 UNL     1      22.571   4.680  50.246  1.00  0.00     0.136 A 
HETATM    7  O3  UNL     1      21.269   5.131  50.412  1.00  0.00    -0.344 OA
HETATM    8  C13 UNL     1      20.244   4.225  50.851  1.00  0.00     0.202 C 
HETATM    9  C14 UNL     1      20.696   3.629  52.142  1.00  0.00     0.202 C 
HETATM   10  O4  UNL     1      21.914   2.926  51.852  1.00  0.00    -0.345 OA
HETATM   11  C15 UNL     1      24.462   1.762  51.745  1.00  0.00     0.151 C 
HETATM   12  N3  UNL     1      25.811   2.036  52.210  1.00  0.00    -0.234 NA
HETATM   13  N4  UNL     1      26.669   1.920  51.123  1.00  0.00    -0.254 NA
HETATM   14  C21 UNL     1      26.424   2.901  50.101  1.00  0.00     0.144 C 
HETATM   15  H25 UNL     1      27.682   1.889  51.432  1.00  0.00     0.141 HD
ENDROOT
BRANCH   1  16
HETATM   16  O2  UNL     1      23.072   6.319  48.789  1.00  0.00    -0.346 OA
BRANCH  16  17
HETATM   17  C6  UNL     1      23.568   7.129  47.794  1.00  0.00     0.206 C 
BRANCH  17  18
HETATM   18  C5  UNL     1      24.343   8.292  48.298  1.00  0.00     0.302 C 
BRANCH  18  19
HETATM   19  N2  UNL     1      25.740   7.986  48.534  1.00  0.00     0.128 N 
HETATM   20  C1  UNL     1      26.227   8.576  49.759  1.00  0.00     0.474 C 
HETATM   21  C2  UNL     1      27.632   9.090  49.670  1.00  0.00     0.235 C 
HETATM   22  O1  UNL     1      28.377   8.166  48.940  1.00  0.00    -0.385 OA
HETATM   23  C3  UNL     1      28.005   8.144  47.608  1.00  0.00     0.198 C 
HETATM   24  C4  UNL     1      26.546   8.341  47.385  1.00  0.00     0.301 C 
BRANCH  20  25
HETATM   25  N1  UNL     1      26.155   7.615  50.841  1.00  0.00     0.114 N 
HETATM   26  H1  UNL     1      25.285   7.034  50.786  1.00  0.00     0.315 HD
HETATM   27  H2  UNL     1      26.989   6.976  50.839  1.00  0.00     0.315 HD
ENDBRANCH  20  25
ENDBRANCH  18  19
ENDBRANCH  17  18
ENDBRANCH  16  17
ENDBRANCH   1  16
BRANCH  12  28
HETATM   28  C16 UNL     1      26.163   1.045  53.200  1.00  0.00     0.137 A 
HETATM   29  C17 UNL     1      25.602  -0.285  52.804  1.00  0.00    -0.001 A 
HETATM   30  C18 UNL     1      26.628  -1.123  52.712  1.00  0.00    -0.001 A 
HETATM   31  C19 UNL     1      27.894  -0.446  53.026  1.00  0.00     0.016 A 
HETATM   32  C20 UNL     1      27.606   0.819  53.309  1.00  0.00     0.011 A 
HETATM   33 BR1  UNL     1      28.782   2.256  53.802  1.00  0.00    -0.054 Br
ENDBRANCH  12  28
TORSDOF 6
ENDMDL
MODEL 6
REMARK VINA RESULT:      -7.9      2.696      4.021
REMARK  6 active torsions:
REMARK  status: ('A' for Active; 'I' for Inactive)
REMARK    1  A    between atoms: N1_1  and  C1_2 
REMARK    2  A    between atoms: N2_7  and  C5_8 
REMARK    3  A    between atoms: C5_8  and  C6_9 
REMARK    4  A    between atoms: C6_9  and  O2_10 
REMARK    5  A    between atoms: O2_10  and  C7_11 
REMARK    6  A    between atoms: N3_22  and  C16_23 
ROOT
HETATM    1  C7  UNL     1      22.491   2.162  52.150  1.00  0.00     0.105 A 
HETATM    2  C8  UNL     1      23.798   2.287  51.741  1.00  0.00     0.048 A 
HETATM    3  C9  UNL     1      24.803   1.417  52.100  1.00  0.00    -0.031 A 
HETATM    4  C10 UNL     1      24.475   0.359  52.921  1.00  0.00     0.000 A 
HETATM    5  C11 UNL     1      23.195   0.170  53.367  1.00  0.00     0.113 A 
HETATM    6  C12 UNL     1      22.200   1.074  52.981  1.00  0.00     0.136 A 
HETATM    7  O3  UNL     1      20.967   0.737  53.520  1.00  0.00    -0.344 OA
HETATM    8  C13 UNL     1      20.699  -0.620  53.912  1.00  0.00     0.202 C 
HETATM    9  C14 UNL     1      21.755  -1.021  54.886  1.00  0.00     0.202 C 
HETATM   10  O4  UNL     1      23.003  -0.927  54.181  1.00  0.00    -0.345 OA
HETATM   11  C15 UNL     1      25.620  -0.528  53.258  1.00  0.00     0.151 C 
HETATM   12  N3  UNL     1      26.738   0.369  53.492  1.00  0.00    -0.234 NA
HETATM   13  N4  UNL     1      27.162   0.853  52.259  1.00  0.00    -0.254 NA
HETATM   14  C21 UNL     1      26.172   1.658  51.597  1.00  0.00     0.144 C 
HETATM   15  H25 UNL     1      28.103   1.334  52.336  1.00  0.00     0.141 HD
ENDROOT
BRANCH   1  16
HETATM   16  O2  UNL     1      21.372   2.878  51.923  1.00  0.00    -0.346 OA
BRANCH  16  17
HETATM   17  C6  UNL     1      20.527   2.988  50.843  1.00  0.00     0.206 C 
BRANCH  17  18
HETATM   18  C5  UNL     1      19.358   3.872  51.085  1.00  0.00     0.302 C 
BRANCH  18  19
HETATM   19  N2  UNL     1      18.087   3.196  50.910  1.00  0.00     0.128 N 
HETATM   20  C1  UNL     1      16.982   3.976  51.418  1.00  0.00     0.474 C 
HETATM   21  C2  UNL     1      15.920   3.160  52.089  1.00  0.00     0.235 C 
HETATM   22  O1  UNL     1      15.732   2.004  51.333  1.00  0.00    -0.385 OA
HETATM   23  C3  UNL     1      16.822   1.156  51.411  1.00  0.00     0.198 C 
HETATM   24  C4  UNL     1      18.132   1.862  51.470  1.00  0.00     0.301 C 
BRANCH  20  25
HETATM   25  N1  UNL     1      16.372   4.737  50.347  1.00  0.00     0.114 N 
HETATM   26  H1  UNL     1      15.939   5.624  50.698  1.00  0.00     0.315 HD
HETATM   27  H2  UNL     1      17.074   4.975  49.602  1.00  0.00     0.315 HD
ENDBRANCH  20  25
ENDBRANCH  18  19
ENDBRANCH  17  18
ENDBRANCH  16  17
ENDBRANCH   1  16
BRANCH  12  28
HETATM   28  C16 UNL     1      27.810  -0.384  54.099  1.00  0.00     0.137 A 
HETATM   29  C17 UNL     1      27.938  -1.713  53.425  1.00  0.00    -0.001 A 
HETATM   30  C18 UNL     1      29.179  -1.788  52.956  1.00  0.00    -0.001 A 
HETATM   31  C19 UNL     1      29.937  -0.569  53.269  1.00  0.00     0.016 A 
HETATM   32  C20 UNL     1      29.124   0.242  53.937  1.00  0.00     0.011 A 
HETATM   33 BR1  UNL     1      29.464   1.993  54.648  1.00  0.00    -0.054 Br
ENDBRANCH  12  28
TORSDOF 6
ENDMDL
MODEL 7
REMARK VINA RESULT:      -7.9      4.126      6.996
REMARK  6 active torsions:
REMARK  status: ('A' for Active; 'I' for Inactive)
REMARK    1  A    between atoms: N1_1  and  C1_2 
REMARK    2  A    between atoms: N2_7  and  C5_8 
REMARK    3  A    between atoms: C5_8  and  C6_9 
REMARK    4  A    between atoms: C6_9  and  O2_10 
REMARK    5  A    between atoms: O2_10  and  C7_11 
REMARK    6  A    between atoms: N3_22  and  C16_23 
ROOT
HETATM    1  C7  UNL     1      27.151   5.884  48.625  1.00  0.00     0.105 A 
HETATM    2  C8  UNL     1      27.206   4.543  48.923  1.00  0.00     0.048 A 
HETATM    3  C9  UNL     1      26.307   3.900  49.743  1.00  0.00    -0.031 A 
HETATM    4  C10 UNL     1      25.291   4.650  50.298  1.00  0.00     0.000 A 
HETATM    5  C11 UNL     1      25.173   5.991  50.046  1.00  0.00     0.113 A 
HETATM    6  C12 UNL     1      26.106   6.609  49.207  1.00  0.00     0.136 A 
HETATM    7  O3  UNL     1      25.841   7.963  49.060  1.00  0.00    -0.344 OA
HETATM    8  C13 UNL     1      24.511   8.465  49.277  1.00  0.00     0.202 C 
HETATM    9  C14 UNL     1      24.097   8.058  50.651  1.00  0.00     0.202 C 
HETATM   10  O4  UNL     1      24.114   6.622  50.664  1.00  0.00    -0.345 OA
HETATM   11  C15 UNL     1      24.368   3.876  51.170  1.00  0.00     0.151 C 
HETATM   12  N3  UNL     1      25.224   2.977  51.923  1.00  0.00    -0.234 NA
HETATM   13  N4  UNL     1      25.647   1.969  51.064  1.00  0.00    -0.254 NA
HETATM   14  C21 UNL     1      26.471   2.451  49.989  1.00  0.00     0.144 C 
HETATM   15  H25 UNL     1      26.089   1.168  51.597  1.00  0.00     0.141 HD
ENDROOT
BRANCH   1  16
HETATM   16  O2  UNL     1      27.906   6.700  47.863  1.00  0.00    -0.346 OA
BRANCH  16  17
HETATM   17  C6  UNL     1      29.243   7.028  47.871  1.00  0.00     0.206 C 
BRANCH  17  18
HETATM   18  C5  UNL     1      29.552   8.300  47.168  1.00  0.00     0.302 C 
BRANCH  18  19
HETATM   19  N2  UNL     1      29.984   9.355  48.064  1.00  0.00     0.128 N 
HETATM   20  C1  UNL     1      28.869  10.010  48.709  1.00  0.00     0.474 C 
HETATM   21  C2  UNL     1      29.047  11.488  48.875  1.00  0.00     0.235 C 
HETATM   22  O1  UNL     1      30.368  11.718  49.254  1.00  0.00    -0.385 OA
HETATM   23  C3  UNL     1      31.252  11.447  48.226  1.00  0.00     0.198 C 
HETATM   24  C4  UNL     1      30.859  10.285  47.382  1.00  0.00     0.301 C 
BRANCH  20  25
HETATM   25  N1  UNL     1      28.631   9.424  50.013  1.00  0.00     0.114 N 
HETATM   26  H1  UNL     1      28.732  10.130  50.780  1.00  0.00     0.315 HD
HETATM   27  H2  UNL     1      27.672   8.999  50.069  1.00  0.00     0.315 HD
ENDBRANCH  20  25
ENDBRANCH  18  19
ENDBRANCH  17  18
ENDBRANCH  16  17
ENDBRANCH   1  16
BRANCH  12  28
HETATM   28  C16 UNL     1      24.447   2.393  52.992  1.00  0.00     0.137 A 
HETATM   29  C17 UNL     1      23.056   2.119  52.512  1.00  0.00    -0.001 A 
HETATM   30  C18 UNL     1      22.842   0.818  52.677  1.00  0.00    -0.001 A 
HETATM   31  C19 UNL     1      24.022   0.158  53.254  1.00  0.00     0.016 A 
HETATM   32  C20 UNL     1      24.950   1.091  53.432  1.00  0.00     0.011 A 
HETATM   33 BR1  UNL     1      26.726   0.922  54.144  1.00  0.00    -0.054 Br
ENDBRANCH  12  28
TORSDOF 6
ENDMDL
MODEL 8
REMARK VINA RESULT:      -7.9      3.778      8.057
REMARK  6 active torsions:
REMARK  status: ('A' for Active; 'I' for Inactive)
REMARK    1  A    between atoms: N1_1  and  C1_2 
REMARK    2  A    between atoms: N2_7  and  C5_8 
REMARK    3  A    between atoms: C5_8  and  C6_9 
REMARK    4  A    between atoms: C6_9  and  O2_10 
REMARK    5  A    between atoms: O2_10  and  C7_11 
REMARK    6  A    between atoms: N3_22  and  C16_23 
ROOT
HETATM    1  C7  UNL     1      25.252   3.159  50.421  1.00  0.00     0.105 A 
HETATM    2  C8  UNL     1      26.386   3.523  49.734  1.00  0.00     0.048 A 
HETATM    3  C9  UNL     1      26.656   4.809  49.324  1.00  0.00    -0.031 A 
HETATM    4  C10 UNL     1      25.731   5.788  49.621  1.00  0.00     0.000 A 
HETATM    5  C11 UNL     1      24.579   5.499  50.303  1.00  0.00     0.113 A 
HETATM    6  C12 UNL     1      24.339   4.181  50.704  1.00  0.00     0.136 A 
HETATM    7  O3  UNL     1      23.132   4.065  51.379  1.00  0.00    -0.344 OA
HETATM    8  C13 UNL     1      22.558   5.210  52.030  1.00  0.00     0.202 C 
HETATM    9  C14 UNL     1      22.413   6.283  51.003  1.00  0.00     0.202 C 
HETATM   10  O4  UNL     1      23.740   6.569  50.536  1.00  0.00    -0.345 OA
HETATM   11  C15 UNL     1      26.103   7.145  49.141  1.00  0.00     0.151 C 
HETATM   12  N3  UNL     1      26.674   6.936  47.822  1.00  0.00    -0.234 NA
HETATM   13  N4  UNL     1      27.939   6.382  47.987  1.00  0.00    -0.254 NA
HETATM   14  C21 UNL     1      27.911   5.078  48.590  1.00  0.00     0.144 C 
HETATM   15  H25 UNL     1      28.493   6.409  47.085  1.00  0.00     0.141 HD
ENDROOT
BRANCH   1  16
HETATM   16  O2  UNL     1      24.796   1.989  50.911  1.00  0.00    -0.346 OA
BRANCH  16  17
HETATM   17  C6  UNL     1      25.260   1.127  51.878  1.00  0.00     0.206 C 
BRANCH  17  18
HETATM   18  C5  UNL     1      24.437   1.115  53.115  1.00  0.00     0.302 C 
BRANCH  18  19
HETATM   19  N2  UNL     1      23.218   0.341  52.980  1.00  0.00     0.128 N 
HETATM   20  C1  UNL     1      22.043   1.180  52.947  1.00  0.00     0.474 C 
HETATM   21  C2  UNL     1      20.864   0.604  53.671  1.00  0.00     0.235 C 
HETATM   22  O1  UNL     1      20.815  -0.760  53.385  1.00  0.00    -0.385 OA
HETATM   23  C3  UNL     1      21.863  -1.445  53.973  1.00  0.00     0.198 C 
HETATM   24  C4  UNL     1      23.144  -0.685  53.999  1.00  0.00     0.301 C 
BRANCH  20  25
HETATM   25  N1  UNL     1      21.657   1.448  51.577  1.00  0.00     0.114 N 
HETATM   26  H1  UNL     1      22.150   2.288  51.192  1.00  0.00     0.315 HD
HETATM   27  H2  UNL     1      21.858   0.625  50.957  1.00  0.00     0.315 HD
ENDBRANCH  20  25
ENDBRANCH  18  19
ENDBRANCH  17  18
ENDBRANCH  16  17
ENDBRANCH   1  16
BRANCH  12  28
HETATM   28  C16 UNL     1      26.800   8.218  47.169  1.00  0.00     0.137 A 
HETATM   29  C17 UNL     1      28.159   8.340  46.555  1.00  0.00    -0.001 A 
HETATM   30  C18 UNL     1      27.976   8.556  45.257  1.00  0.00    -0.001 A 
HETATM   31  C19 UNL     1      26.545   8.593  44.924  1.00  0.00     0.016 A 
HETATM   32  C20 UNL     1      25.871   8.394  46.051  1.00  0.00     0.011 A 
HETATM   33 BR1  UNL     1      23.973   8.320  46.340  1.00  0.00    -0.054 Br
ENDBRANCH  12  28
TORSDOF 6
ENDMDL
MODEL 9
REMARK VINA RESULT:      -7.8      5.406      9.191
REMARK  6 active torsions:
REMARK  status: ('A' for Active; 'I' for Inactive)
REMARK    1  A    between atoms: N1_1  and  C1_2 
REMARK    2  A    between atoms: N2_7  and  C5_8 
REMARK    3  A    between atoms: C5_8  and  C6_9 
REMARK    4  A    between atoms: C6_9  and  O2_10 
REMARK    5  A    between atoms: O2_10  and  C7_11 
REMARK    6  A    between atoms: N3_22  and  C16_23 
ROOT
HETATM    1  C7  UNL     1      28.775   6.382  48.178  1.00  0.00     0.105 A 
HETATM    2  C8  UNL     1      28.378   5.118  48.548  1.00  0.00     0.048 A 
HETATM    3  C9  UNL     1      27.081   4.780  48.860  1.00  0.00    -0.031 A 
HETATM    4  C10 UNL     1      26.124   5.772  48.798  1.00  0.00     0.000 A 
HETATM    5  C11 UNL     1      26.446   7.053  48.436  1.00  0.00     0.113 A 
HETATM    6  C12 UNL     1      27.775   7.358  48.125  1.00  0.00     0.136 A 
HETATM    7  O3  UNL     1      27.925   8.694  47.783  1.00  0.00    -0.344 OA
HETATM    8  C13 UNL     1      26.801   9.441  47.287  1.00  0.00     0.202 C 
HETATM    9  C14 UNL     1      25.714   9.343  48.304  1.00  0.00     0.202 C 
HETATM   10  O4  UNL     1      25.396   7.947  48.413  1.00  0.00    -0.345 OA
HETATM   11  C15 UNL     1      24.753   5.319  49.151  1.00  0.00     0.151 C 
HETATM   12  N3  UNL     1      24.929   4.426  50.282  1.00  0.00    -0.234 NA
HETATM   13  N4  UNL     1      25.462   3.233  49.806  1.00  0.00    -0.254 NA
HETATM   14  C21 UNL     1      26.777   3.386  49.246  1.00  0.00     0.144 C 
HETATM   15  H25 UNL     1      25.409   2.468  50.537  1.00  0.00     0.141 HD
ENDROOT
BRANCH   1  16
HETATM   16  O2  UNL     1      29.961   6.921  47.835  1.00  0.00    -0.346 OA
BRANCH  16  17
HETATM   17  C6  UNL     1      31.100   6.407  47.258  1.00  0.00     0.206 C 
BRANCH  17  18
HETATM   18  C5  UNL     1      32.272   6.375  48.170  1.00  0.00     0.302 C 
BRANCH  18  19
HETATM   19  N2  UNL     1      32.858   5.055  48.297  1.00  0.00     0.128 N 
HETATM   20  C1  UNL     1      34.291   5.077  48.114  1.00  0.00     0.474 C 
HETATM   21  C2  UNL     1      34.827   3.892  47.371  1.00  0.00     0.235 C 
HETATM   22  O1  UNL     1      34.151   2.762  47.829  1.00  0.00    -0.385 OA
HETATM   23  C3  UNL     1      32.826   2.761  47.432  1.00  0.00     0.198 C 
HETATM   24  C4  UNL     1      32.198   4.112  47.420  1.00  0.00     0.301 C 
BRANCH  20  25
HETATM   25  N1  UNL     1      34.959   5.158  49.398  1.00  0.00     0.114 N 
HETATM   26  H1  UNL     1      35.993   5.026  49.306  1.00  0.00     0.315 HD
HETATM   27  H2  UNL     1      34.776   6.081  49.864  1.00  0.00     0.315 HD
ENDBRANCH  20  25
ENDBRANCH  18  19
ENDBRANCH  17  18
ENDBRANCH  16  17
ENDBRANCH   1  16
BRANCH  12  28
HETATM   28  C16 UNL     1      23.633   4.166  50.866  1.00  0.00     0.137 A 
HETATM   29  C17 UNL     1      22.620   3.978  49.782  1.00  0.00    -0.001 A 
HETATM   30  C18 UNL     1      22.090   2.773  49.956  1.00  0.00    -0.001 A 
HETATM   31  C19 UNL     1      22.683   2.097  51.119  1.00  0.00     0.016 A 
HETATM   32  C20 UNL     1      23.583   2.924  51.639  1.00  0.00     0.011 A 
HETATM   33 BR1  UNL     1      24.723   2.679  53.166  1.00  0.00    -0.054 Br
ENDBRANCH  12  28
TORSDOF 6
ENDMDL
