MODEL 1
REMARK VINA RESULT:      -8.7      0.000      0.000
REMARK  3 active torsions:
REMARK  status: ('A' for Active; 'I' for Inactive)
REMARK    1  A    between atoms: C2_2  and  C3_3 
REMARK    2  A    between atoms: C2_2  and  N1_5 
REMARK    3  A    between atoms: N1_5  and  C4_6 
ROOT
HETATM    1  C4  UNL     1      25.611   0.825  53.287  1.00  0.00     0.020 C 
HETATM    2  C5  UNL     1      26.129   1.675  52.375  1.00  0.00     0.047 C 
HETATM    3  C6  UNL     1      25.429   2.313  51.204  1.00  0.00    -0.007 C 
HETATM    4  C7  UNL     1      24.597   2.767  50.220  1.00  0.00     0.064 C 
HETATM    5  C8  UNL     1      23.371   2.934  49.433  1.00  0.00     0.089 C 
HETATM    6  N2  UNL     1      22.218   2.351  49.676  1.00  0.00    -0.302 NA
HETATM    7  C9  UNL     1      21.088   2.608  48.815  1.00  0.00     0.176 C 
HETATM    8  C10 UNL     1      19.869   1.916  49.237  1.00  0.00     0.005 C 
HETATM    9  C11 UNL     1      19.241   1.082  50.116  1.00  0.00    -0.024 A 
HETATM   10  C12 UNL     1      17.825   0.542  50.244  1.00  0.00     0.071 A 
HETATM   11  C13 UNL     1      18.418  -0.125  51.393  1.00  0.00     0.015 A 
HETATM   12  C14 UNL     1      19.674   0.352  51.290  1.00  0.00     0.072 A 
HETATM   13  O2  UNL     1      20.827   0.166  52.035  1.00  0.00    -0.346 OA
HETATM   14  C15 UNL     1      20.806  -0.092  53.427  1.00  0.00     0.214 C 
HETATM   15  C16 UNL     1      22.168  -0.327  53.887  1.00  0.00    -0.033 A 
HETATM   16  C17 UNL     1      22.440  -1.237  54.874  1.00  0.00     0.009 A 
HETATM   17  C18 UNL     1      23.717  -1.499  55.359  1.00  0.00     0.002 A 
HETATM   18  C19 UNL     1      24.844  -0.868  54.892  1.00  0.00     0.013 A 
HETATM   19  C20 UNL     1      24.557   0.020  53.924  1.00  0.00    -0.013 A 
HETATM   20  C21 UNL     1      23.306   0.288  53.439  1.00  0.00     0.022 A 
ENDROOT
BRANCH   1  21
HETATM   21  N1  UNL     1      26.902   0.768  53.927  1.00  0.00    -0.385 N 
HETATM   22  H6  UNL     1      27.054   1.098  54.929  1.00  0.00     0.160 HD
BRANCH  21  23
HETATM   23  C2  UNL     1      28.064   0.246  53.223  1.00  0.00     0.111 C 
HETATM   24  C1  UNL     1      29.374   0.616  53.864  1.00  0.00     0.035 C 
BRANCH  23  25
HETATM   25  C3  UNL     1      28.005  -1.235  53.110  1.00  0.00     0.415 C 
HETATM   26  O1  UNL     1      28.664  -2.183  53.473  1.00  0.00    -0.428 OA
ENDBRANCH  23  25
ENDBRANCH  21  23
ENDBRANCH   1  21
TORSDOF 3
ENDMDL
MODEL 2
REMARK VINA RESULT:      -8.6      1.744      4.096
REMARK  3 active torsions:
REMARK  status: ('A' for Active; 'I' for Inactive)
REMARK    1  A    between atoms: C2_2  and  C3_3 
REMARK    2  A    between atoms: C2_2  and  N1_5 
REMARK    3  A    between atoms: N1_5  and  C4_6 
ROOT
HETATM    1  C4  UNL     1      24.871   0.785  53.080  1.00  0.00     0.020 C 
HETATM    2  C5  UNL     1      24.666  -0.081  54.096  1.00  0.00     0.047 C 
HETATM    3  C6  UNL     1      23.383  -0.773  54.475  1.00  0.00    -0.007 C 
HETATM    4  C7  UNL     1      22.124  -1.279  54.629  1.00  0.00     0.064 C 
HETATM    5  C8  UNL     1      20.697  -1.502  54.372  1.00  0.00     0.089 C 
HETATM    6  N2  UNL     1      19.994  -0.942  53.412  1.00  0.00    -0.302 NA
HETATM    7  C9  UNL     1      18.591  -1.255  53.274  1.00  0.00     0.176 C 
HETATM    8  C10 UNL     1      17.956  -0.582  52.140  1.00  0.00     0.005 C 
HETATM    9  C11 UNL     1      18.060   0.263  51.073  1.00  0.00    -0.024 A 
HETATM   10  C12 UNL     1      17.087   0.770  50.020  1.00  0.00     0.071 A 
HETATM   11  C13 UNL     1      18.274   1.487  49.584  1.00  0.00     0.015 A 
HETATM   12  C14 UNL     1      19.144   1.040  50.511  1.00  0.00     0.072 A 
HETATM   13  O2  UNL     1      20.488   1.280  50.749  1.00  0.00    -0.346 OA
HETATM   14  C15 UNL     1      21.408   1.581  49.715  1.00  0.00     0.214 C 
HETATM   15  C16 UNL     1      22.708   1.865  50.306  1.00  0.00    -0.033 A 
HETATM   16  C17 UNL     1      23.542   2.813  49.772  1.00  0.00     0.009 A 
HETATM   17  C18 UNL     1      24.797   3.123  50.286  1.00  0.00     0.002 A 
HETATM   18  C19 UNL     1      25.330   2.507  51.390  1.00  0.00     0.013 A 
HETATM   19  C20 UNL     1      24.499   1.581  51.900  1.00  0.00    -0.013 A 
HETATM   20  C21 UNL     1      23.263   1.266  51.404  1.00  0.00     0.022 A 
ENDROOT
BRANCH   1  21
HETATM   21  N1  UNL     1      26.250   0.895  53.488  1.00  0.00    -0.385 N 
HETATM   22  H6  UNL     1      26.748   1.836  53.556  1.00  0.00     0.160 HD
BRANCH  21  23
HETATM   23  C2  UNL     1      27.025  -0.287  53.834  1.00  0.00     0.111 C 
HETATM   24  C1  UNL     1      27.479  -1.080  52.639  1.00  0.00     0.035 C 
BRANCH  23  25
HETATM   25  C3  UNL     1      28.225   0.072  54.635  1.00  0.00     0.415 C 
HETATM   26  O1  UNL     1      28.715   1.073  55.107  1.00  0.00    -0.428 OA
ENDBRANCH  23  25
ENDBRANCH  21  23
ENDBRANCH   1  21
TORSDOF 3
ENDMDL
MODEL 3
REMARK VINA RESULT:      -8.5      2.225      2.950
REMARK  3 active torsions:
REMARK  status: ('A' for Active; 'I' for Inactive)
REMARK    1  A    between atoms: C2_2  and  C3_3 
REMARK    2  A    between atoms: C2_2  and  N1_5 
REMARK    3  A    between atoms: N1_5  and  C4_6 
ROOT
HETATM    1  C4  UNL     1      25.570   0.744  52.175  1.00  0.00     0.020 C 
HETATM    2  C5  UNL     1      26.590   1.350  51.530  1.00  0.00     0.047 C 
HETATM    3  C6  UNL     1      26.527   2.561  50.637  1.00  0.00    -0.007 C 
HETATM    4  C7  UNL     1      26.230   3.654  49.873  1.00  0.00     0.064 C 
HETATM    5  C8  UNL     1      25.424   4.700  49.235  1.00  0.00     0.089 C 
HETATM    6  N2  UNL     1      24.122   4.845  49.354  1.00  0.00    -0.302 NA
HETATM    7  C9  UNL     1      23.454   5.925  48.665  1.00  0.00     0.176 C 
HETATM    8  C10 UNL     1      22.015   5.975  48.927  1.00  0.00     0.005 C 
HETATM    9  C11 UNL     1      20.920   5.453  49.552  1.00  0.00    -0.024 A 
HETATM   10  C12 UNL     1      19.443   5.814  49.586  1.00  0.00     0.071 A 
HETATM   11  C13 UNL     1      19.404   4.648  50.456  1.00  0.00     0.015 A 
HETATM   12  C14 UNL     1      20.712   4.324  50.434  1.00  0.00     0.072 A 
HETATM   13  O2  UNL     1      21.453   3.317  51.031  1.00  0.00    -0.346 OA
HETATM   14  C15 UNL     1      21.110   2.754  52.285  1.00  0.00     0.214 C 
HETATM   15  C16 UNL     1      22.032   1.667  52.584  1.00  0.00    -0.033 A 
HETATM   16  C17 UNL     1      21.616   0.541  53.244  1.00  0.00     0.009 A 
HETATM   17  C18 UNL     1      22.449  -0.526  53.564  1.00  0.00     0.002 A 
HETATM   18  C19 UNL     1      23.785  -0.558  53.247  1.00  0.00     0.013 A 
HETATM   19  C20 UNL     1      24.175   0.554  52.600  1.00  0.00    -0.013 A 
HETATM   20  C21 UNL     1      23.366   1.610  52.280  1.00  0.00     0.022 A 
ENDROOT
BRANCH   1  21
HETATM   21  N1  UNL     1      26.511  -0.214  52.703  1.00  0.00    -0.385 N 
HETATM   22  H6  UNL     1      26.515  -1.234  52.394  1.00  0.00     0.160 HD
BRANCH  21  23
HETATM   23  C2  UNL     1      27.506   0.180  53.689  1.00  0.00     0.111 C 
HETATM   24  C1  UNL     1      26.956   0.309  55.083  1.00  0.00     0.035 C 
BRANCH  23  25
HETATM   25  C3  UNL     1      28.638  -0.784  53.725  1.00  0.00     0.415 C 
HETATM   26  O1  UNL     1      28.833  -1.941  53.432  1.00  0.00    -0.428 OA
ENDBRANCH  23  25
ENDBRANCH  21  23
ENDBRANCH   1  21
TORSDOF 3
ENDMDL
MODEL 4
REMARK VINA RESULT:      -8.3      2.060      7.077
REMARK  3 active torsions:
REMARK  status: ('A' for Active; 'I' for Inactive)
REMARK    1  A    between atoms: C2_2  and  C3_3 
REMARK    2  A    between atoms: C2_2  and  N1_5 
REMARK    3  A    between atoms: N1_5  and  C4_6 
ROOT
HETATM    1  C4  UNL     1      20.346   1.201  50.458  1.00  0.00     0.020 C 
HETATM    2  C5  UNL     1      20.744   2.001  49.445  1.00  0.00     0.047 C 
HETATM    3  C6  UNL     1      22.114   2.582  49.211  1.00  0.00    -0.007 C 
HETATM    4  C7  UNL     1      23.417   2.993  49.206  1.00  0.00     0.064 C 
HETATM    5  C8  UNL     1      24.807   3.140  49.647  1.00  0.00     0.089 C 
HETATM    6  N2  UNL     1      25.331   2.600  50.725  1.00  0.00    -0.302 NA
HETATM    7  C9  UNL     1      26.722   2.830  51.041  1.00  0.00     0.176 C 
HETATM    8  C10 UNL     1      27.164   2.134  52.250  1.00  0.00     0.005 C 
HETATM    9  C11 UNL     1      26.872   1.314  53.301  1.00  0.00    -0.024 A 
HETATM   10  C12 UNL     1      27.672   0.757  54.469  1.00  0.00     0.071 A 
HETATM   11  C13 UNL     1      26.384   0.158  54.781  1.00  0.00     0.015 A 
HETATM   12  C14 UNL     1      25.669   0.643  53.746  1.00  0.00     0.072 A 
HETATM   13  O2  UNL     1      24.346   0.507  53.357  1.00  0.00    -0.346 OA
HETATM   14  C15 UNL     1      23.586  -0.658  53.619  1.00  0.00     0.214 C 
HETATM   15  C16 UNL     1      22.219  -0.446  53.163  1.00  0.00    -0.033 A 
HETATM   16  C17 UNL     1      21.152  -0.973  53.841  1.00  0.00     0.009 A 
HETATM   17  C18 UNL     1      19.826  -0.811  53.451  1.00  0.00     0.002 A 
HETATM   18  C19 UNL     1      19.451  -0.098  52.339  1.00  0.00     0.013 A 
HETATM   19  C20 UNL     1      20.511   0.412  51.688  1.00  0.00    -0.013 A 
HETATM   20  C21 UNL     1      21.819   0.259  52.060  1.00  0.00     0.022 A 
ENDROOT
BRANCH   1  21
HETATM   21  N1  UNL     1      19.022   1.182  49.886  1.00  0.00    -0.385 N 
HETATM   22  H6  UNL     1      18.560   0.280  49.555  1.00  0.00     0.160 HD
BRANCH  21  23
HETATM   23  C2  UNL     1      18.253   2.408  49.738  1.00  0.00     0.111 C 
HETATM   24  C1  UNL     1      17.078   2.276  48.808  1.00  0.00     0.035 C 
BRANCH  23  25
HETATM   25  C3  UNL     1      17.751   2.890  51.053  1.00  0.00     0.415 C 
HETATM   26  O1  UNL     1      18.185   3.501  52.002  1.00  0.00    -0.428 OA
ENDBRANCH  23  25
ENDBRANCH  21  23
ENDBRANCH   1  21
TORSDOF 3
ENDMDL
MODEL 5
REMARK VINA RESULT:      -7.9      3.296      6.421
REMARK  3 active torsions:
REMARK  status: ('A' for Active; 'I' for Inactive)
REMARK    1  A    between atoms: C2_2  and  C3_3 
REMARK    2  A    between atoms: C2_2  and  N1_5 
REMARK    3  A    between atoms: N1_5  and  C4_6 
ROOT
HETATM    1  C4  UNL     1      24.600   4.899  49.687  1.00  0.00     0.020 C 
HETATM    2  C5  UNL     1      25.853   4.401  49.613  1.00  0.00     0.047 C 
HETATM    3  C6  UNL     1      26.399   3.171  50.288  1.00  0.00    -0.007 C 
HETATM    4  C7  UNL     1      26.669   2.032  50.994  1.00  0.00     0.064 C 
HETATM    5  C8  UNL     1      26.444   0.885  51.880  1.00  0.00     0.089 C 
HETATM    6  N2  UNL     1      25.312   0.591  52.482  1.00  0.00    -0.302 NA
HETATM    7  C9  UNL     1      25.233  -0.575  53.330  1.00  0.00     0.176 C 
HETATM    8  C10 UNL     1      23.900  -0.788  53.898  1.00  0.00     0.005 C 
HETATM    9  C11 UNL     1      22.603  -0.383  54.023  1.00  0.00    -0.024 A 
HETATM   10  C12 UNL     1      21.391  -0.914  54.773  1.00  0.00     0.071 A 
HETATM   11  C13 UNL     1      20.778   0.259  54.169  1.00  0.00     0.015 A 
HETATM   12  C14 UNL     1      21.846   0.734  53.498  1.00  0.00     0.072 A 
HETATM   13  O2  UNL     1      22.043   1.835  52.680  1.00  0.00    -0.346 OA
HETATM   14  C15 UNL     1      21.017   2.383  51.872  1.00  0.00     0.214 C 
HETATM   15  C16 UNL     1      21.522   3.577  51.210  1.00  0.00    -0.033 A 
HETATM   16  C17 UNL     1      20.716   4.662  50.984  1.00  0.00     0.009 A 
HETATM   17  C18 UNL     1      21.139   5.826  50.351  1.00  0.00     0.002 A 
HETATM   18  C19 UNL     1      22.418   6.007  49.884  1.00  0.00     0.013 A 
HETATM   19  C20 UNL     1      23.193   4.933  50.115  1.00  0.00    -0.013 A 
HETATM   20  C21 UNL     1      22.790   3.783  50.736  1.00  0.00     0.022 A 
ENDROOT
BRANCH   1  21
HETATM   21  N1  UNL     1      25.005   5.973  48.813  1.00  0.00    -0.385 N 
HETATM   22  H6  UNL     1      24.462   6.220  47.929  1.00  0.00     0.160 HD
BRANCH  21  23
HETATM   23  C2  UNL     1      26.183   6.774  49.108  1.00  0.00     0.111 C 
HETATM   24  C1  UNL     1      26.890   7.282  47.882  1.00  0.00     0.035 C 
BRANCH  23  25
HETATM   25  C3  UNL     1      25.839   7.943  49.961  1.00  0.00     0.415 C 
HETATM   26  O1  UNL     1      24.836   8.498  50.349  1.00  0.00    -0.428 OA
ENDBRANCH  23  25
ENDBRANCH  21  23
ENDBRANCH   1  21
TORSDOF 3
ENDMDL
MODEL 6
REMARK VINA RESULT:      -7.9      2.151      8.119
REMARK  3 active torsions:
REMARK  status: ('A' for Active; 'I' for Inactive)
REMARK    1  A    between atoms: C2_2  and  C3_3 
REMARK    2  A    between atoms: C2_2  and  N1_5 
REMARK    3  A    between atoms: N1_5  and  C4_6 
ROOT
HETATM    1  C4  UNL     1      19.708   0.268  51.398  1.00  0.00     0.020 C 
HETATM    2  C5  UNL     1      19.358  -0.437  52.495  1.00  0.00     0.047 C 
HETATM    3  C6  UNL     1      20.248  -0.896  53.620  1.00  0.00    -0.007 C 
HETATM    4  C7  UNL     1      21.235  -1.203  54.513  1.00  0.00     0.064 C 
HETATM    5  C8  UNL     1      22.576  -1.268  55.103  1.00  0.00     0.089 C 
HETATM    6  N2  UNL     1      23.669  -0.753  54.583  1.00  0.00    -0.302 NA
HETATM    7  C9  UNL     1      24.928  -0.893  55.275  1.00  0.00     0.176 C 
HETATM    8  C10 UNL     1      26.042  -0.237  54.589  1.00  0.00     0.005 C 
HETATM    9  C11 UNL     1      26.497   0.494  53.530  1.00  0.00    -0.024 A 
HETATM   10  C12 UNL     1      27.856   1.041  53.121  1.00  0.00     0.071 A 
HETATM   11  C13 UNL     1      27.077   1.520  51.989  1.00  0.00     0.015 A 
HETATM   12  C14 UNL     1      25.869   1.042  52.346  1.00  0.00     0.072 A 
HETATM   13  O2  UNL     1      24.613   1.098  51.762  1.00  0.00    -0.346 OA
HETATM   14  C15 UNL     1      24.189   2.184  50.958  1.00  0.00     0.214 C 
HETATM   15  C16 UNL     1      22.864   1.893  50.429  1.00  0.00    -0.033 A 
HETATM   16  C17 UNL     1      22.494   2.295  49.173  1.00  0.00     0.009 A 
HETATM   17  C18 UNL     1      21.243   2.054  48.616  1.00  0.00     0.002 A 
HETATM   18  C19 UNL     1      20.243   1.381  49.275  1.00  0.00     0.013 A 
HETATM   19  C20 UNL     1      20.624   0.994  50.505  1.00  0.00    -0.013 A 
HETATM   20  C21 UNL     1      21.851   1.225  51.064  1.00  0.00     0.022 A 
ENDROOT
BRANCH   1  21
HETATM   21  N1  UNL     1      18.334   0.218  50.962  1.00  0.00    -0.385 N 
HETATM   22  H6  UNL     1      18.021  -0.382  50.138  1.00  0.00     0.160 HD
BRANCH  21  23
HETATM   23  C2  UNL     1      17.305   0.992  51.640  1.00  0.00     0.111 C 
HETATM   24  C1  UNL     1      17.262   2.436  51.222  1.00  0.00     0.035 C 
BRANCH  23  25
HETATM   25  C3  UNL     1      15.956   0.405  51.420  1.00  0.00     0.415 C 
HETATM   26  O1  UNL     1      15.474  -0.504  50.783  1.00  0.00    -0.428 OA
ENDBRANCH  23  25
ENDBRANCH  21  23
ENDBRANCH   1  21
TORSDOF 3
ENDMDL
MODEL 7
REMARK VINA RESULT:      -7.8      2.115      2.976
REMARK  3 active torsions:
REMARK  status: ('A' for Active; 'I' for Inactive)
REMARK    1  A    between atoms: C2_2  and  C3_3 
REMARK    2  A    between atoms: C2_2  and  N1_5 
REMARK    3  A    between atoms: N1_5  and  C4_6 
ROOT
HETATM    1  C4  UNL     1      23.892   2.372  52.534  1.00  0.00     0.020 C 
HETATM    2  C5  UNL     1      23.578   3.479  51.827  1.00  0.00     0.047 C 
HETATM    3  C6  UNL     1      22.242   3.851  51.239  1.00  0.00    -0.007 C 
HETATM    4  C7  UNL     1      20.954   3.975  50.802  1.00  0.00     0.064 C 
HETATM    5  C8  UNL     1      19.544   3.636  50.581  1.00  0.00     0.089 C 
HETATM    6  N2  UNL     1      18.942   2.545  51.002  1.00  0.00    -0.302 NA
HETATM    7  C9  UNL     1      17.543   2.340  50.712  1.00  0.00     0.176 C 
HETATM    8  C10 UNL     1      17.011   1.099  51.278  1.00  0.00     0.005 C 
HETATM    9  C11 UNL     1      17.216  -0.041  51.999  1.00  0.00    -0.024 A 
HETATM   10  C12 UNL     1      16.333  -1.205  52.422  1.00  0.00     0.071 A 
HETATM   11  C13 UNL     1      17.583  -1.651  53.017  1.00  0.00     0.015 A 
HETATM   12  C14 UNL     1      18.371  -0.621  52.651  1.00  0.00     0.072 A 
HETATM   13  O2  UNL     1      19.711  -0.329  52.853  1.00  0.00    -0.346 OA
HETATM   14  C15 UNL     1      20.420  -0.746  54.006  1.00  0.00     0.214 C 
HETATM   15  C16 UNL     1      21.817  -0.357  53.869  1.00  0.00    -0.033 A 
HETATM   16  C17 UNL     1      22.827  -1.146  54.353  1.00  0.00     0.009 A 
HETATM   17  C18 UNL     1      24.177  -0.825  54.259  1.00  0.00     0.002 A 
HETATM   18  C19 UNL     1      24.638   0.325  53.666  1.00  0.00     0.013 A 
HETATM   19  C20 UNL     1      23.633   1.085  53.197  1.00  0.00    -0.013 A 
HETATM   20  C21 UNL     1      22.302   0.781  53.283  1.00  0.00     0.022 A 
ENDROOT
BRANCH   1  21
HETATM   21  N1  UNL     1      25.247   2.857  52.638  1.00  0.00    -0.385 N 
HETATM   22  H6  UNL     1      25.526   3.616  53.334  1.00  0.00     0.160 HD
BRANCH  21  23
HETATM   23  C2  UNL     1      26.301   2.322  51.790  1.00  0.00     0.111 C 
HETATM   24  C1  UNL     1      26.642   3.205  50.621  1.00  0.00     0.035 C 
BRANCH  23  25
HETATM   25  C3  UNL     1      27.546   2.081  52.566  1.00  0.00     0.415 C 
HETATM   26  O1  UNL     1      28.593   2.652  52.771  1.00  0.00    -0.428 OA
ENDBRANCH  23  25
ENDBRANCH  21  23
ENDBRANCH   1  21
TORSDOF 3
ENDMDL
MODEL 8
REMARK VINA RESULT:      -7.5      4.012      5.551
REMARK  3 active torsions:
REMARK  status: ('A' for Active; 'I' for Inactive)
REMARK    1  A    between atoms: C2_2  and  C3_3 
REMARK    2  A    between atoms: C2_2  and  N1_5 
REMARK    3  A    between atoms: N1_5  and  C4_6 
ROOT
HETATM    1  C4  UNL     1      25.224   2.482  51.069  1.00  0.00     0.020 C 
HETATM    2  C5  UNL     1      26.401   2.717  50.448  1.00  0.00     0.047 C 
HETATM    3  C6  UNL     1      26.793   3.926  49.640  1.00  0.00    -0.007 C 
HETATM    4  C7  UNL     1      26.922   5.102  48.958  1.00  0.00     0.064 C 
HETATM    5  C8  UNL     1      26.559   6.411  48.405  1.00  0.00     0.089 C 
HETATM    6  N2  UNL     1      25.400   7.014  48.556  1.00  0.00    -0.302 NA
HETATM    7  C9  UNL     1      25.179   8.307  47.953  1.00  0.00     0.176 C 
HETATM    8  C10 UNL     1      23.855   8.861  48.242  1.00  0.00     0.005 C 
HETATM    9  C11 UNL     1      22.640   8.734  48.849  1.00  0.00    -0.024 A 
HETATM   10  C12 UNL     1      21.397   9.606  48.934  1.00  0.00     0.071 A 
HETATM   11  C13 UNL     1      20.927   8.478  49.723  1.00  0.00     0.015 A 
HETATM   12  C14 UNL     1      22.026   7.701  49.657  1.00  0.00     0.072 A 
HETATM   13  O2  UNL     1      22.342   6.454  50.172  1.00  0.00    -0.346 OA
HETATM   14  C15 UNL     1      21.807   5.970  51.390  1.00  0.00     0.214 C 
HETATM   15  C16 UNL     1      22.265   4.603  51.600  1.00  0.00    -0.033 A 
HETATM   16  C17 UNL     1      21.460   3.664  52.189  1.00  0.00     0.009 A 
HETATM   17  C18 UNL     1      21.843   2.348  52.422  1.00  0.00     0.002 A 
HETATM   18  C19 UNL     1      23.078   1.852  52.081  1.00  0.00     0.013 A 
HETATM   19  C20 UNL     1      23.852   2.787  51.504  1.00  0.00    -0.013 A 
HETATM   20  C21 UNL     1      23.488   4.085  51.270  1.00  0.00     0.022 A 
ENDROOT
BRANCH   1  21
HETATM   21  N1  UNL     1      25.745   1.213  51.515  1.00  0.00    -0.385 N 
HETATM   22  H6  UNL     1      25.380   0.286  51.136  1.00  0.00     0.160 HD
BRANCH  21  23
HETATM   23  C2  UNL     1      26.804   1.147  52.510  1.00  0.00     0.111 C 
HETATM   24  C1  UNL     1      26.413   1.713  53.847  1.00  0.00     0.035 C 
BRANCH  23  25
HETATM   25  C3  UNL     1      27.263  -0.253  52.716  1.00  0.00     0.415 C 
HETATM   26  O1  UNL     1      27.028  -1.164  53.477  1.00  0.00    -0.428 OA
ENDBRANCH  23  25
ENDBRANCH  21  23
ENDBRANCH   1  21
TORSDOF 3
ENDMDL
MODEL 9
REMARK VINA RESULT:      -7.4      3.095      5.978
REMARK  3 active torsions:
REMARK  status: ('A' for Active; 'I' for Inactive)
REMARK    1  A    between atoms: C2_2  and  C3_3 
REMARK    2  A    between atoms: C2_2  and  N1_5 
REMARK    3  A    between atoms: N1_5  and  C4_6 
ROOT
HETATM    1  C4  UNL     1      23.985   4.378  49.440  1.00  0.00     0.020 C 
HETATM    2  C5  UNL     1      22.818   4.862  48.965  1.00  0.00     0.047 C 
HETATM    3  C6  UNL     1      21.424   4.380  49.273  1.00  0.00    -0.007 C 
HETATM    4  C7  UNL     1      20.273   3.777  49.695  1.00  0.00     0.064 C 
HETATM    5  C8  UNL     1      19.401   2.836  50.406  1.00  0.00     0.089 C 
HETATM    6  N2  UNL     1      19.803   1.875  51.208  1.00  0.00    -0.302 NA
HETATM    7  C9  UNL     1      18.831   1.018  51.844  1.00  0.00     0.176 C 
HETATM    8  C10 UNL     1      19.431   0.022  52.733  1.00  0.00     0.005 C 
HETATM    9  C11 UNL     1      20.550  -0.529  53.289  1.00  0.00    -0.024 A 
HETATM   10  C12 UNL     1      20.802  -1.664  54.269  1.00  0.00     0.071 A 
HETATM   11  C13 UNL     1      22.182  -1.274  54.027  1.00  0.00     0.015 A 
HETATM   12  C14 UNL     1      21.967  -0.264  53.161  1.00  0.00     0.072 A 
HETATM   13  O2  UNL     1      22.809   0.604  52.483  1.00  0.00    -0.346 OA
HETATM   14  C15 UNL     1      24.056   1.026  53.004  1.00  0.00     0.214 C 
HETATM   15  C16 UNL     1      24.728   1.855  52.014  1.00  0.00    -0.033 A 
HETATM   16  C17 UNL     1      26.089   1.822  51.861  1.00  0.00     0.009 A 
HETATM   17  C18 UNL     1      26.788   2.595  50.939  1.00  0.00     0.002 A 
HETATM   18  C19 UNL     1      26.177   3.476  50.081  1.00  0.00     0.013 A 
HETATM   19  C20 UNL     1      24.843   3.495  50.245  1.00  0.00    -0.013 A 
HETATM   20  C21 UNL     1      24.144   2.740  51.148  1.00  0.00     0.022 A 
ENDROOT
BRANCH   1  21
HETATM   21  N1  UNL     1      24.683   5.368  48.657  1.00  0.00    -0.385 N 
HETATM   22  H6  UNL     1      25.240   5.112  47.785  1.00  0.00     0.160 HD
BRANCH  21  23
HETATM   23  C2  UNL     1      24.650   6.775  49.027  1.00  0.00     0.111 C 
HETATM   24  C1  UNL     1      25.508   7.105  50.217  1.00  0.00     0.035 C 
BRANCH  23  25
HETATM   25  C3  UNL     1      25.074   7.640  47.895  1.00  0.00     0.415 C 
HETATM   26  O1  UNL     1      26.019   8.343  47.617  1.00  0.00    -0.428 OA
ENDBRANCH  23  25
ENDBRANCH  21  23
ENDBRANCH   1  21
TORSDOF 3
ENDMDL
