MODEL 1
REMARK VINA RESULT:      -6.2      0.000      0.000
REMARK  9 active torsions:
REMARK  status: ('A' for Active; 'I' for Inactive)
REMARK    1  A    between atoms: O1_1  and  C1_2 
REMARK    2  A    between atoms: C1_2  and  C2_3 
REMARK    3  A    between atoms: C2_3  and  O2_4 
REMARK    4  A    between atoms: O2_4  and  C3_5 
REMARK    5  A    between atoms: C3_5  and  C4_6 
REMARK    6  A    between atoms: C10_13  and  N2_14 
REMARK    7  A    between atoms: N2_14  and  C11_15 
REMARK    8  A    between atoms: C11_15  and  C12_16 
REMARK    9  A    between atoms: C13_17  and  C14_18 
ROOT
HETATM    1  C4  UNL     1      25.514  -0.334  53.555  1.00  0.00     0.088 C 
HETATM    2  C5  UNL     1      26.343   0.021  52.241  1.00  0.00    -0.015 C 
HETATM    3  C6  UNL     1      25.993   1.222  51.560  1.00  0.00     0.007 C 
HETATM    4  C7  UNL     1      24.760   2.114  51.703  1.00  0.00     0.193 C 
HETATM    5  C8  UNL     1      24.833   2.855  53.030  1.00  0.00     0.126 C 
HETATM    6  N1  UNL     1      25.349   1.789  53.412  1.00  0.00    -0.262 NA
HETATM    7  C9  UNL     1      24.395   0.645  53.399  1.00  0.00     0.094 C 
HETATM    8  C10 UNL     1      23.136   0.756  53.053  1.00  0.00     0.165 C 
HETATM    9  O3  UNL     1      23.660   1.228  51.821  1.00  0.00    -0.320 OA
ENDROOT
BRANCH   8  10
HETATM   10  N2  UNL     1      21.771   0.566  53.499  1.00  0.00    -0.366 N 
HETATM   11  H13 UNL     1      21.231   1.449  53.302  1.00  0.00     0.162 HD
BRANCH  10  12
HETATM   12  C11 UNL     1      21.538  -0.762  54.079  1.00  0.00     0.148 C 
BRANCH  12  13
HETATM   13  C12 UNL     1      20.182  -1.258  53.852  1.00  0.00    -0.009 C 
HETATM   14  C13 UNL     1      18.966  -0.999  53.415  1.00  0.00     0.002 C 
BRANCH  14  15
HETATM   15  C14 UNL     1      17.617  -1.567  53.214  1.00  0.00     0.249 C 
HETATM   16  F1  UNL     1      17.192  -1.303  51.928  1.00  0.00    -0.251 F 
ENDBRANCH  14  15
ENDBRANCH  12  13
ENDBRANCH  10  12
ENDBRANCH   8  10
BRANCH   1  17
HETATM   17  C3  UNL     1      26.450  -0.196  54.660  1.00  0.00     0.182 C 
BRANCH  17  18
HETATM   18  O2  UNL     1      27.774  -0.393  54.387  1.00  0.00    -0.388 OA
BRANCH  18  19
HETATM   19  C2  UNL     1      28.669   0.487  54.917  1.00  0.00     0.193 C 
BRANCH  19  20
HETATM   20  C1  UNL     1      29.044   1.654  54.066  1.00  0.00     0.190 C 
BRANCH  20  21
HETATM   21  O1  UNL     1      28.201   2.731  54.109  1.00  0.00    -0.399 OA
HETATM   22  H1  UNL     1      27.785   2.927  53.238  1.00  0.00     0.209 HD
ENDBRANCH  20  21
ENDBRANCH  19  20
ENDBRANCH  18  19
ENDBRANCH  17  18
ENDBRANCH   1  17
TORSDOF 9
ENDMDL
MODEL 2
REMARK VINA RESULT:      -6.2      3.110      4.730
REMARK  9 active torsions:
REMARK  status: ('A' for Active; 'I' for Inactive)
REMARK    1  A    between atoms: O1_1  and  C1_2 
REMARK    2  A    between atoms: C1_2  and  C2_3 
REMARK    3  A    between atoms: C2_3  and  O2_4 
REMARK    4  A    between atoms: O2_4  and  C3_5 
REMARK    5  A    between atoms: C3_5  and  C4_6 
REMARK    6  A    between atoms: C10_13  and  N2_14 
REMARK    7  A    between atoms: N2_14  and  C11_15 
REMARK    8  A    between atoms: C11_15  and  C12_16 
REMARK    9  A    between atoms: C13_17  and  C14_18 
ROOT
HETATM    1  C4  UNL     1      26.978   2.071  53.128  1.00  0.00     0.088 C 
HETATM    2  C5  UNL     1      28.413   2.340  53.764  1.00  0.00    -0.015 C 
HETATM    3  C6  UNL     1      29.129   1.208  54.247  1.00  0.00     0.007 C 
HETATM    4  C7  UNL     1      28.651  -0.218  54.525  1.00  0.00     0.193 C 
HETATM    5  C8  UNL     1      28.380  -0.919  53.201  1.00  0.00     0.126 C 
HETATM    6  N1  UNL     1      28.002   0.218  52.862  1.00  0.00    -0.262 NA
HETATM    7  C9  UNL     1      26.778   0.661  53.585  1.00  0.00     0.094 C 
HETATM    8  C10 UNL     1      26.145  -0.079  54.462  1.00  0.00     0.165 C 
HETATM    9  O3  UNL     1      27.387  -0.080  55.150  1.00  0.00    -0.320 OA
ENDROOT
BRANCH   8  10
HETATM   10  N2  UNL     1      24.875  -0.697  54.785  1.00  0.00    -0.366 N 
HETATM   11  H13 UNL     1      24.867  -0.921  55.814  1.00  0.00     0.162 HD
BRANCH  10  12
HETATM   12  C11 UNL     1      23.992  -0.831  53.620  1.00  0.00     0.148 C 
BRANCH  12  13
HETATM   13  C12 UNL     1      23.276   0.402  53.298  1.00  0.00    -0.009 C 
HETATM   14  C13 UNL     1      23.201   1.471  52.531  1.00  0.00     0.002 C 
BRANCH  14  15
HETATM   15  C14 UNL     1      22.429   2.701  52.261  1.00  0.00     0.249 C 
HETATM   16  F1  UNL     1      23.184   3.804  52.605  1.00  0.00    -0.251 F 
ENDBRANCH  14  15
ENDBRANCH  12  13
ENDBRANCH  10  12
ENDBRANCH   8  10
BRANCH   1  17
HETATM   17  C3  UNL     1      27.114   2.361  51.709  1.00  0.00     0.182 C 
BRANCH  17  18
HETATM   18  O2  UNL     1      25.974   2.662  51.019  1.00  0.00    -0.388 OA
BRANCH  18  19
HETATM   19  C2  UNL     1      25.924   3.857  50.366  1.00  0.00     0.193 C 
BRANCH  19  20
HETATM   20  C1  UNL     1      26.855   4.029  49.213  1.00  0.00     0.190 C 
BRANCH  20  21
HETATM   21  O1  UNL     1      27.930   4.851  49.418  1.00  0.00    -0.399 OA
HETATM   22  H1  UNL     1      28.013   5.148  50.353  1.00  0.00     0.209 HD
ENDBRANCH  20  21
ENDBRANCH  19  20
ENDBRANCH  18  19
ENDBRANCH  17  18
ENDBRANCH   1  17
TORSDOF 9
ENDMDL
MODEL 3
REMARK VINA RESULT:      -6.1      1.462      1.965
REMARK  9 active torsions:
REMARK  status: ('A' for Active; 'I' for Inactive)
REMARK    1  A    between atoms: O1_1  and  C1_2 
REMARK    2  A    between atoms: C1_2  and  C2_3 
REMARK    3  A    between atoms: C2_3  and  O2_4 
REMARK    4  A    between atoms: O2_4  and  C3_5 
REMARK    5  A    between atoms: C3_5  and  C4_6 
REMARK    6  A    between atoms: C10_13  and  N2_14 
REMARK    7  A    between atoms: N2_14  and  C11_15 
REMARK    8  A    between atoms: C11_15  and  C12_16 
REMARK    9  A    between atoms: C13_17  and  C14_18 
ROOT
HETATM    1  C4  UNL     1      26.227   0.125  52.826  1.00  0.00     0.088 C 
HETATM    2  C5  UNL     1      26.750   1.114  51.693  1.00  0.00    -0.015 C 
HETATM    3  C6  UNL     1      25.937   2.245  51.394  1.00  0.00     0.007 C 
HETATM    4  C7  UNL     1      24.487   2.545  51.774  1.00  0.00     0.193 C 
HETATM    5  C8  UNL     1      24.416   2.852  53.263  1.00  0.00     0.126 C 
HETATM    6  N1  UNL     1      25.310   1.986  53.319  1.00  0.00    -0.262 NA
HETATM    7  C9  UNL     1      24.824   0.628  52.949  1.00  0.00     0.094 C 
HETATM    8  C10 UNL     1      23.582   0.364  52.629  1.00  0.00     0.165 C 
HETATM    9  O3  UNL     1      23.788   1.324  51.603  1.00  0.00    -0.320 OA
ENDROOT
BRANCH   8  10
HETATM   10  N2  UNL     1      22.419  -0.429  52.973  1.00  0.00    -0.366 N 
HETATM   11  H13 UNL     1      22.522  -1.379  52.527  1.00  0.00     0.162 HD
BRANCH  10  12
HETATM   12  C11 UNL     1      21.462   0.296  53.815  1.00  0.00     0.148 C 
BRANCH  12  13
HETATM   13  C12 UNL     1      20.075   0.132  53.381  1.00  0.00    -0.009 C 
HETATM   14  C13 UNL     1      19.248  -0.119  52.385  1.00  0.00     0.002 C 
BRANCH  14  15
HETATM   15  C14 UNL     1      17.826  -0.270  52.017  1.00  0.00     0.249 C 
HETATM   16  F1  UNL     1      17.724  -0.519  50.663  1.00  0.00    -0.251 F 
ENDBRANCH  14  15
ENDBRANCH  12  13
ENDBRANCH  10  12
ENDBRANCH   8  10
BRANCH   1  17
HETATM   17  C3  UNL     1      27.151   0.274  53.938  1.00  0.00     0.182 C 
BRANCH  17  18
HETATM   18  O2  UNL     1      27.893  -0.819  54.287  1.00  0.00    -0.388 OA
BRANCH  18  19
HETATM   19  C2  UNL     1      29.119  -0.965  53.711  1.00  0.00     0.193 C 
BRANCH  19  20
HETATM   20  C1  UNL     1      29.509  -2.347  53.307  1.00  0.00     0.190 C 
BRANCH  20  21
HETATM   21  O1  UNL     1      28.536  -3.305  53.403  1.00  0.00    -0.399 OA
HETATM   22  H1  UNL     1      27.868  -3.246  52.683  1.00  0.00     0.209 HD
ENDBRANCH  20  21
ENDBRANCH  19  20
ENDBRANCH  18  19
ENDBRANCH  17  18
ENDBRANCH   1  17
TORSDOF 9
ENDMDL
MODEL 4
REMARK VINA RESULT:      -6.0      2.669      5.276
REMARK  9 active torsions:
REMARK  status: ('A' for Active; 'I' for Inactive)
REMARK    1  A    between atoms: O1_1  and  C1_2 
REMARK    2  A    between atoms: C1_2  and  C2_3 
REMARK    3  A    between atoms: C2_3  and  O2_4 
REMARK    4  A    between atoms: O2_4  and  C3_5 
REMARK    5  A    between atoms: C3_5  and  C4_6 
REMARK    6  A    between atoms: C10_13  and  N2_14 
REMARK    7  A    between atoms: N2_14  and  C11_15 
REMARK    8  A    between atoms: C11_15  and  C12_16 
REMARK    9  A    between atoms: C13_17  and  C14_18 
ROOT
HETATM    1  C4  UNL     1      26.217  -0.780  52.822  1.00  0.00     0.088 C 
HETATM    2  C5  UNL     1      27.385  -1.862  52.796  1.00  0.00    -0.015 C 
HETATM    3  C6  UNL     1      28.647  -1.466  53.322  1.00  0.00     0.007 C 
HETATM    4  C7  UNL     1      29.180  -0.075  53.665  1.00  0.00     0.193 C 
HETATM    5  C8  UNL     1      28.469   0.438  54.909  1.00  0.00     0.126 C 
HETATM    6  N1  UNL     1      27.504  -0.172  54.411  1.00  0.00    -0.262 NA
HETATM    7  C9  UNL     1      27.029   0.435  53.137  1.00  0.00     0.094 C 
HETATM    8  C10 UNL     1      27.549   1.517  52.611  1.00  0.00     0.165 C 
HETATM    9  O3  UNL     1      28.755   0.767  52.608  1.00  0.00    -0.320 OA
ENDROOT
BRANCH   8  10
HETATM   10  N2  UNL     1      27.264   2.868  52.173  1.00  0.00    -0.366 N 
HETATM   11  H13 UNL     1      27.734   3.538  52.836  1.00  0.00     0.162 HD
BRANCH  10  12
HETATM   12  C11 UNL     1      26.428   2.914  50.968  1.00  0.00     0.148 C 
BRANCH  12  13
HETATM   13  C12 UNL     1      25.008   2.704  51.246  1.00  0.00    -0.009 C 
HETATM   14  C13 UNL     1      24.018   1.843  51.368  1.00  0.00     0.002 C 
BRANCH  14  15
HETATM   15  C14 UNL     1      22.576   1.706  51.657  1.00  0.00     0.249 C 
HETATM   16  F1  UNL     1      22.087   0.572  51.041  1.00  0.00    -0.251 F 
ENDBRANCH  14  15
ENDBRANCH  12  13
ENDBRANCH  10  12
ENDBRANCH   8  10
BRANCH   1  17
HETATM   17  C3  UNL     1      25.245  -1.272  53.786  1.00  0.00     0.182 C 
BRANCH  17  18
HETATM   18  O2  UNL     1      24.147  -0.493  54.022  1.00  0.00    -0.388 OA
BRANCH  18  19
HETATM   19  C2  UNL     1      23.144  -1.022  54.777  1.00  0.00     0.193 C 
BRANCH  19  20
HETATM   20  C1  UNL     1      21.870  -1.341  54.068  1.00  0.00     0.190 C 
BRANCH  20  21
HETATM   21  O1  UNL     1      20.822  -1.738  54.853  1.00  0.00    -0.399 OA
HETATM   22  H1  UNL     1      20.252  -0.989  55.140  1.00  0.00     0.209 HD
ENDBRANCH  20  21
ENDBRANCH  19  20
ENDBRANCH  18  19
ENDBRANCH  17  18
ENDBRANCH   1  17
TORSDOF 9
ENDMDL
MODEL 5
REMARK VINA RESULT:      -5.9      3.795      5.859
REMARK  9 active torsions:
REMARK  status: ('A' for Active; 'I' for Inactive)
REMARK    1  A    between atoms: O1_1  and  C1_2 
REMARK    2  A    between atoms: C1_2  and  C2_3 
REMARK    3  A    between atoms: C2_3  and  O2_4 
REMARK    4  A    between atoms: O2_4  and  C3_5 
REMARK    5  A    between atoms: C3_5  and  C4_6 
REMARK    6  A    between atoms: C10_13  and  N2_14 
REMARK    7  A    between atoms: N2_14  and  C11_15 
REMARK    8  A    between atoms: C11_15  and  C12_16 
REMARK    9  A    between atoms: C13_17  and  C14_18 
ROOT
HETATM    1  C4  UNL     1      25.587   2.090  52.957  1.00  0.00     0.088 C 
HETATM    2  C5  UNL     1      24.657   0.836  53.275  1.00  0.00    -0.015 C 
HETATM    3  C6  UNL     1      23.387   0.792  52.633  1.00  0.00     0.007 C 
HETATM    4  C7  UNL     1      22.618   1.886  51.890  1.00  0.00     0.193 C 
HETATM    5  C8  UNL     1      23.311   2.168  50.565  1.00  0.00     0.126 C 
HETATM    6  N1  UNL     1      24.335   1.940  51.236  1.00  0.00    -0.262 NA
HETATM    7  C9  UNL     1      24.578   2.967  52.287  1.00  0.00     0.094 C 
HETATM    8  C10 UNL     1      23.815   4.017  52.466  1.00  0.00     0.165 C 
HETATM    9  O3  UNL     1      22.784   3.060  52.665  1.00  0.00    -0.320 OA
ENDROOT
BRANCH   8  10
HETATM   10  N2  UNL     1      23.791   5.465  52.498  1.00  0.00    -0.366 N 
HETATM   11  H13 UNL     1      24.011   5.779  53.480  1.00  0.00     0.162 HD
BRANCH  10  12
HETATM   12  C11 UNL     1      23.477   6.060  51.195  1.00  0.00     0.148 C 
BRANCH  12  13
HETATM   13  C12 UNL     1      24.655   6.241  50.347  1.00  0.00    -0.009 C 
HETATM   14  C13 UNL     1      25.665   5.674  49.718  1.00  0.00     0.002 C 
BRANCH  14  15
HETATM   15  C14 UNL     1      26.841   5.931  48.863  1.00  0.00     0.249 C 
HETATM   16  F1  UNL     1      27.290   4.742  48.326  1.00  0.00    -0.251 F 
ENDBRANCH  14  15
ENDBRANCH  12  13
ENDBRANCH  10  12
ENDBRANCH   8  10
BRANCH   1  17
HETATM   17  C3  UNL     1      26.710   1.564  52.197  1.00  0.00     0.182 C 
BRANCH  17  18
HETATM   18  O2  UNL     1      27.911   2.202  52.333  1.00  0.00    -0.388 OA
BRANCH  18  19
HETATM   19  C2  UNL     1      28.422   2.331  53.590  1.00  0.00     0.193 C 
BRANCH  19  20
HETATM   20  C1  UNL     1      29.082   1.126  54.172  1.00  0.00     0.190 C 
BRANCH  20  21
HETATM   21  O1  UNL     1      30.130   0.606  53.463  1.00  0.00    -0.399 OA
HETATM   22  H1  UNL     1      30.120  -0.378  53.429  1.00  0.00     0.209 HD
ENDBRANCH  20  21
ENDBRANCH  19  20
ENDBRANCH  18  19
ENDBRANCH  17  18
ENDBRANCH   1  17
TORSDOF 9
ENDMDL
MODEL 6
REMARK VINA RESULT:      -5.7      2.631      2.973
REMARK  9 active torsions:
REMARK  status: ('A' for Active; 'I' for Inactive)
REMARK    1  A    between atoms: O1_1  and  C1_2 
REMARK    2  A    between atoms: C1_2  and  C2_3 
REMARK    3  A    between atoms: C2_3  and  O2_4 
REMARK    4  A    between atoms: O2_4  and  C3_5 
REMARK    5  A    between atoms: C3_5  and  C4_6 
REMARK    6  A    between atoms: C10_13  and  N2_14 
REMARK    7  A    between atoms: N2_14  and  C11_15 
REMARK    8  A    between atoms: C11_15  and  C12_16 
REMARK    9  A    between atoms: C13_17  and  C14_18 
ROOT
HETATM    1  C4  UNL     1      25.536   1.385  52.713  1.00  0.00     0.088 C 
HETATM    2  C5  UNL     1      26.494   1.699  51.481  1.00  0.00    -0.015 C 
HETATM    3  C6  UNL     1      26.030   2.647  50.525  1.00  0.00     0.007 C 
HETATM    4  C7  UNL     1      24.633   3.230  50.310  1.00  0.00     0.193 C 
HETATM    5  C8  UNL     1      24.310   4.181  51.453  1.00  0.00     0.126 C 
HETATM    6  N1  UNL     1      24.960   3.350  52.114  1.00  0.00    -0.262 NA
HETATM    7  C9  UNL     1      24.283   2.027  52.207  1.00  0.00     0.094 C 
HETATM    8  C10 UNL     1      23.113   1.772  51.678  1.00  0.00     0.165 C 
HETATM    9  O3  UNL     1      23.740   2.139  50.458  1.00  0.00    -0.320 OA
ENDROOT
BRANCH   8  10
HETATM   10  N2  UNL     1      21.759   1.340  51.962  1.00  0.00    -0.366 N 
HETATM   11  H13 UNL     1      21.163   2.195  52.115  1.00  0.00     0.162 HD
BRANCH  10  12
HETATM   12  C11 UNL     1      21.613  -0.120  51.956  1.00  0.00     0.148 C 
BRANCH  12  13
HETATM   13  C12 UNL     1      22.261  -0.766  53.096  1.00  0.00    -0.009 C 
HETATM   14  C13 UNL     1      22.467  -0.770  54.398  1.00  0.00     0.002 C 
BRANCH  14  15
HETATM   15  C14 UNL     1      23.150  -1.473  55.503  1.00  0.00     0.249 C 
HETATM   16  F1  UNL     1      24.504  -1.215  55.446  1.00  0.00    -0.251 F 
ENDBRANCH  14  15
ENDBRANCH  12  13
ENDBRANCH  10  12
ENDBRANCH   8  10
BRANCH   1  17
HETATM   17  C3  UNL     1      26.207   1.928  53.883  1.00  0.00     0.182 C 
BRANCH  17  18
HETATM   18  O2  UNL     1      26.608   1.042  54.843  1.00  0.00    -0.388 OA
BRANCH  18  19
HETATM   19  C2  UNL     1      27.760   0.349  54.626  1.00  0.00     0.193 C 
BRANCH  19  20
HETATM   20  C1  UNL     1      28.992   1.156  54.388  1.00  0.00     0.190 C 
BRANCH  20  21
HETATM   21  O1  UNL     1      29.875   0.659  53.469  1.00  0.00    -0.399 OA
HETATM   22  H1  UNL     1      29.501   0.619  52.559  1.00  0.00     0.209 HD
ENDBRANCH  20  21
ENDBRANCH  19  20
ENDBRANCH  18  19
ENDBRANCH  17  18
ENDBRANCH   1  17
TORSDOF 9
ENDMDL
MODEL 7
REMARK VINA RESULT:      -5.6      2.805      5.501
REMARK  9 active torsions:
REMARK  status: ('A' for Active; 'I' for Inactive)
REMARK    1  A    between atoms: O1_1  and  C1_2 
REMARK    2  A    between atoms: C1_2  and  C2_3 
REMARK    3  A    between atoms: C2_3  and  O2_4 
REMARK    4  A    between atoms: O2_4  and  C3_5 
REMARK    5  A    between atoms: C3_5  and  C4_6 
REMARK    6  A    between atoms: C10_13  and  N2_14 
REMARK    7  A    between atoms: N2_14  and  C11_15 
REMARK    8  A    between atoms: C11_15  and  C12_16 
REMARK    9  A    between atoms: C13_17  and  C14_18 
ROOT
HETATM    1  C4  UNL     1      24.483   1.058  52.108  1.00  0.00     0.088 C 
HETATM    2  C5  UNL     1      25.393  -0.201  52.462  1.00  0.00    -0.015 C 
HETATM    3  C6  UNL     1      26.719   0.063  52.907  1.00  0.00     0.007 C 
HETATM    4  C7  UNL     1      27.543   1.350  52.846  1.00  0.00     0.193 C 
HETATM    5  C8  UNL     1      26.979   2.350  53.844  1.00  0.00     0.126 C 
HETATM    6  N1  UNL     1      25.898   1.833  53.505  1.00  0.00    -0.262 NA
HETATM    7  C9  UNL     1      25.542   2.114  52.086  1.00  0.00     0.094 C 
HETATM    8  C10 UNL     1      26.271   2.853  51.288  1.00  0.00     0.165 C 
HETATM    9  O3  UNL     1      27.289   1.903  51.566  1.00  0.00    -0.320 OA
ENDROOT
BRANCH   8  10
HETATM   10  N2  UNL     1      26.274   4.038  50.453  1.00  0.00    -0.366 N 
HETATM   11  H13 UNL     1      27.263   4.220  50.139  1.00  0.00     0.162 HD
BRANCH  10  12
HETATM   12  C11 UNL     1      24.940   4.626  50.292  1.00  0.00     0.148 C 
BRANCH  12  13
HETATM   13  C12 UNL     1      24.136   3.956  49.272  1.00  0.00    -0.009 C 
HETATM   14  C13 UNL     1      23.360   2.936  48.967  1.00  0.00     0.002 C 
BRANCH  14  15
HETATM   15  C14 UNL     1      22.566   2.313  47.887  1.00  0.00     0.249 C 
HETATM   16  F1  UNL     1      22.000   1.142  48.348  1.00  0.00    -0.251 F 
ENDBRANCH  14  15
ENDBRANCH  12  13
ENDBRANCH  10  12
ENDBRANCH   8  10
BRANCH   1  17
HETATM   17  C3  UNL     1      23.445   1.092  53.126  1.00  0.00     0.182 C 
BRANCH  17  18
HETATM   18  O2  UNL     1      22.457   0.151  53.045  1.00  0.00    -0.388 OA
BRANCH  18  19
HETATM   19  C2  UNL     1      21.625   0.011  54.114  1.00  0.00     0.193 C 
BRANCH  19  20
HETATM   20  C1  UNL     1      21.400  -1.377  54.611  1.00  0.00     0.190 C 
BRANCH  20  21
HETATM   21  O1  UNL     1      22.367  -1.892  55.432  1.00  0.00    -0.399 OA
HETATM   22  H1  UNL     1      23.272  -1.814  55.053  1.00  0.00     0.209 HD
ENDBRANCH  20  21
ENDBRANCH  19  20
ENDBRANCH  18  19
ENDBRANCH  17  18
ENDBRANCH   1  17
TORSDOF 9
ENDMDL
MODEL 8
REMARK VINA RESULT:      -5.6      3.522      5.404
REMARK  9 active torsions:
REMARK  status: ('A' for Active; 'I' for Inactive)
REMARK    1  A    between atoms: O1_1  and  C1_2 
REMARK    2  A    between atoms: C1_2  and  C2_3 
REMARK    3  A    between atoms: C2_3  and  O2_4 
REMARK    4  A    between atoms: O2_4  and  C3_5 
REMARK    5  A    between atoms: C3_5  and  C4_6 
REMARK    6  A    between atoms: C10_13  and  N2_14 
REMARK    7  A    between atoms: N2_14  and  C11_15 
REMARK    8  A    between atoms: C11_15  and  C12_16 
REMARK    9  A    between atoms: C13_17  and  C14_18 
ROOT
HETATM    1  C4  UNL     1      24.930   0.020  53.722  1.00  0.00     0.088 C 
HETATM    2  C5  UNL     1      24.372  -0.710  55.023  1.00  0.00    -0.015 C 
HETATM    3  C6  UNL     1      22.984  -1.027  55.043  1.00  0.00     0.007 C 
HETATM    4  C7  UNL     1      21.848  -0.540  54.143  1.00  0.00     0.193 C 
HETATM    5  C8  UNL     1      22.001  -1.168  52.766  1.00  0.00     0.126 C 
HETATM    6  N1  UNL     1      23.213  -1.030  53.015  1.00  0.00    -0.262 NA
HETATM    7  C9  UNL     1      23.630   0.398  53.089  1.00  0.00     0.094 C 
HETATM    8  C10 UNL     1      22.816   1.403  52.881  1.00  0.00     0.165 C 
HETATM    9  O3  UNL     1      22.077   0.846  53.958  1.00  0.00    -0.320 OA
ENDROOT
BRANCH   8  10
HETATM   10  N2  UNL     1      22.575   2.576  52.065  1.00  0.00    -0.366 N 
HETATM   11  H13 UNL     1      22.109   3.307  52.664  1.00  0.00     0.162 HD
BRANCH  10  12
HETATM   12  C11 UNL     1      23.036   2.414  50.681  1.00  0.00     0.148 C 
BRANCH  12  13
HETATM   13  C12 UNL     1      24.306   3.087  50.416  1.00  0.00    -0.009 C 
HETATM   14  C13 UNL     1      25.475   3.048  49.809  1.00  0.00     0.002 C 
BRANCH  14  15
HETATM   15  C14 UNL     1      26.736   3.785  49.585  1.00  0.00     0.249 C 
HETATM   16  F1  UNL     1      26.505   4.844  48.731  1.00  0.00    -0.251 F 
ENDBRANCH  14  15
ENDBRANCH  12  13
ENDBRANCH  10  12
ENDBRANCH   8  10
BRANCH   1  17
HETATM   17  C3  UNL     1      25.800  -0.947  53.071  1.00  0.00     0.182 C 
BRANCH  17  18
HETATM   18  O2  UNL     1      26.950  -1.294  53.724  1.00  0.00    -0.388 OA
BRANCH  18  19
HETATM   19  C2  UNL     1      28.123  -1.199  53.038  1.00  0.00     0.193 C 
BRANCH  19  20
HETATM   20  C1  UNL     1      29.113  -2.295  53.249  1.00  0.00     0.190 C 
BRANCH  20  21
HETATM   21  O1  UNL     1      28.600  -3.554  53.410  1.00  0.00    -0.399 OA
HETATM   22  H1  UNL     1      27.621  -3.559  53.510  1.00  0.00     0.209 HD
ENDBRANCH  20  21
ENDBRANCH  19  20
ENDBRANCH  18  19
ENDBRANCH  17  18
ENDBRANCH   1  17
TORSDOF 9
ENDMDL
MODEL 9
REMARK VINA RESULT:      -5.6      3.912      6.496
REMARK  9 active torsions:
REMARK  status: ('A' for Active; 'I' for Inactive)
REMARK    1  A    between atoms: O1_1  and  C1_2 
REMARK    2  A    between atoms: C1_2  and  C2_3 
REMARK    3  A    between atoms: C2_3  and  O2_4 
REMARK    4  A    between atoms: O2_4  and  C3_5 
REMARK    5  A    between atoms: C3_5  and  C4_6 
REMARK    6  A    between atoms: C10_13  and  N2_14 
REMARK    7  A    between atoms: N2_14  and  C11_15 
REMARK    8  A    between atoms: C11_15  and  C12_16 
REMARK    9  A    between atoms: C13_17  and  C14_18 
ROOT
HETATM    1  C4  UNL     1      23.012   1.763  51.538  1.00  0.00     0.088 C 
HETATM    2  C5  UNL     1      21.799   1.128  50.725  1.00  0.00    -0.015 C 
HETATM    3  C6  UNL     1      20.946   0.231  51.430  1.00  0.00     0.007 C 
HETATM    4  C7  UNL     1      21.144  -0.464  52.777  1.00  0.00     0.193 C 
HETATM    5  C8  UNL     1      21.028   0.566  53.891  1.00  0.00     0.126 C 
HETATM    6  N1  UNL     1      21.581   1.299  53.050  1.00  0.00    -0.262 NA
HETATM    7  C9  UNL     1      22.976   0.880  52.744  1.00  0.00     0.094 C 
HETATM    8  C10 UNL     1      23.572  -0.133  53.322  1.00  0.00     0.165 C 
HETATM    9  O3  UNL     1      22.495  -0.891  52.791  1.00  0.00    -0.320 OA
ENDROOT
BRANCH   8  10
HETATM   10  N2  UNL     1      24.714  -0.529  54.122  1.00  0.00    -0.366 N 
HETATM   11  H13 UNL     1      24.500  -0.320  55.132  1.00  0.00     0.162 HD
BRANCH  10  12
HETATM   12  C11 UNL     1      25.807  -1.090  53.319  1.00  0.00     0.148 C 
BRANCH  12  13
HETATM   13  C12 UNL     1      27.052  -0.333  53.437  1.00  0.00    -0.009 C 
HETATM   14  C13 UNL     1      28.346  -0.361  53.684  1.00  0.00     0.002 C 
BRANCH  14  15
HETATM   15  C14 UNL     1      29.566   0.466  53.786  1.00  0.00     0.249 C 
HETATM   16  F1  UNL     1      30.663  -0.282  53.411  1.00  0.00    -0.251 F 
ENDBRANCH  14  15
ENDBRANCH  12  13
ENDBRANCH  10  12
ENDBRANCH   8  10
BRANCH   1  17
HETATM   17  C3  UNL     1      22.703   3.178  51.666  1.00  0.00     0.182 C 
BRANCH  17  18
HETATM   18  O2  UNL     1      23.736   4.020  51.972  1.00  0.00    -0.388 OA
BRANCH  18  19
HETATM   19  C2  UNL     1      24.341   4.681  50.946  1.00  0.00     0.193 C 
BRANCH  19  20
HETATM   20  C1  UNL     1      24.298   6.172  50.992  1.00  0.00     0.190 C 
BRANCH  20  21
HETATM   21  O1  UNL     1      24.394   6.744  52.231  1.00  0.00    -0.399 OA
HETATM   22  H1  UNL     1      25.100   7.428  52.285  1.00  0.00     0.209 HD
ENDBRANCH  20  21
ENDBRANCH  19  20
ENDBRANCH  18  19
ENDBRANCH  17  18
ENDBRANCH   1  17
TORSDOF 9
ENDMDL
