MODEL 1
REMARK VINA RESULT:      -8.9      0.000      0.000
REMARK  3 active torsions:
REMARK  status: ('A' for Active; 'I' for Inactive)
REMARK    1  A    between atoms: C9_11  and  N2_12 
REMARK    2  A    between atoms: N2_12  and  C10_13 
REMARK    3  A    between atoms: C10_13  and  C11_14 
ROOT
HETATM    1  F1  UNL     1      23.057  -1.916  55.679  1.00  0.00    -0.206 F 
HETATM    2  C1  UNL     1      22.606  -0.957  54.831  1.00  0.00     0.117 A 
HETATM    3  C2  UNL     1      21.307  -0.497  54.891  1.00  0.00     0.043 A 
HETATM    4  C3  UNL     1      20.868   0.472  54.026  1.00  0.00     0.022 A 
HETATM    5  C4  UNL     1      21.751   0.958  53.117  1.00  0.00     0.015 A 
HETATM    6  C5  UNL     1      23.076   0.574  52.963  1.00  0.00    -0.021 A 
HETATM    7  C6  UNL     1      23.440  -0.420  53.886  1.00  0.00     0.052 A 
HETATM    8  C7  UNL     1      24.220   0.886  52.128  1.00  0.00     0.160 C 
HETATM    9  N1  UNL     1      24.238   2.123  51.432  1.00  0.00    -0.380 N 
HETATM   10  C8  UNL     1      23.511   3.339  51.405  1.00  0.00     0.111 A 
HETATM   11  C9  UNL     1      24.349   4.379  51.074  1.00  0.00     0.154 A 
HETATM   12  N3  UNL     1      23.754   5.577  51.010  1.00  0.00    -0.222 NA
HETATM   13  C17 UNL     1      22.442   5.712  51.257  1.00  0.00     0.236 A 
HETATM   14  N4  UNL     1      21.622   4.671  51.586  1.00  0.00    -0.232 NA
HETATM   15  C18 UNL     1      22.171   3.434  51.664  1.00  0.00     0.129 A 
HETATM   16  S1  UNL     1      20.961   2.200  52.108  1.00  0.00    -0.068 SA
HETATM   17  H6  UNL     1      25.041   2.114  50.726  1.00  0.00     0.160 HD
ENDROOT
BRANCH  11  18
HETATM   18  N2  UNL     1      25.738   4.286  50.827  1.00  0.00    -0.369 N 
HETATM   19  H7  UNL     1      26.536   4.361  51.493  1.00  0.00     0.161 HD
BRANCH  18  20
HETATM   20  C10 UNL     1      26.287   4.068  49.518  1.00  0.00     0.160 C 
BRANCH  20  21
HETATM   21  C11 UNL     1      26.869   5.236  48.860  1.00  0.00    -0.041 A 
HETATM   22  C12 UNL     1      28.216   5.053  48.511  1.00  0.00     0.009 A 
HETATM   23  C13 UNL     1      28.962   6.034  47.892  1.00  0.00     0.001 A 
HETATM   24  C14 UNL     1      28.406   7.250  47.586  1.00  0.00     0.000 A 
HETATM   25  C15 UNL     1      27.086   7.436  47.927  1.00  0.00     0.001 A 
HETATM   26  C16 UNL     1      26.369   6.458  48.536  1.00  0.00     0.009 A 
ENDBRANCH  20  21
ENDBRANCH  18  20
ENDBRANCH  11  18
TORSDOF 3
ENDMDL
MODEL 2
REMARK VINA RESULT:      -8.8      2.442      3.889
REMARK  3 active torsions:
REMARK  status: ('A' for Active; 'I' for Inactive)
REMARK    1  A    between atoms: C9_11  and  N2_12 
REMARK    2  A    between atoms: N2_12  and  C10_13 
REMARK    3  A    between atoms: C10_13  and  C11_14 
ROOT
HETATM    1  F1  UNL     1      18.883  -0.363  52.663  1.00  0.00    -0.206 F 
HETATM    2  C1  UNL     1      20.142  -0.444  53.168  1.00  0.00     0.117 A 
HETATM    3  C2  UNL     1      20.563  -1.552  53.874  1.00  0.00     0.043 A 
HETATM    4  C3  UNL     1      21.837  -1.616  54.377  1.00  0.00     0.022 A 
HETATM    5  C4  UNL     1      22.661  -0.559  54.157  1.00  0.00     0.015 A 
HETATM    6  C5  UNL     1      22.348   0.603  53.465  1.00  0.00    -0.021 A 
HETATM    7  C6  UNL     1      21.028   0.585  52.986  1.00  0.00     0.052 A 
HETATM    8  C7  UNL     1      22.974   1.853  53.078  1.00  0.00     0.160 C 
HETATM    9  N1  UNL     1      24.391   1.929  53.063  1.00  0.00    -0.380 N 
HETATM   10  C8  UNL     1      25.504   1.056  53.158  1.00  0.00     0.111 A 
HETATM   11  C9  UNL     1      26.551   1.550  52.413  1.00  0.00     0.154 A 
HETATM   12  N3  UNL     1      27.660   0.801  52.445  1.00  0.00    -0.222 NA
HETATM   13  C17 UNL     1      27.709  -0.335  53.157  1.00  0.00     0.236 A 
HETATM   14  N4  UNL     1      26.661  -0.814  53.891  1.00  0.00    -0.232 NA
HETATM   15  C18 UNL     1      25.512  -0.095  53.896  1.00  0.00     0.129 A 
HETATM   16  S1  UNL     1      24.253  -0.867  54.899  1.00  0.00    -0.068 SA
HETATM   17  H6  UNL     1      24.685   2.950  52.948  1.00  0.00     0.160 HD
ENDROOT
BRANCH  11  18
HETATM   18  N2  UNL     1      26.538   2.728  51.631  1.00  0.00    -0.369 N 
HETATM   19  H7  UNL     1      26.572   3.724  51.934  1.00  0.00     0.161 HD
BRANCH  18  20
HETATM   20  C10 UNL     1      26.460   2.714  50.197  1.00  0.00     0.160 C 
BRANCH  20  21
HETATM   21  C11 UNL     1      26.559   4.012  49.535  1.00  0.00    -0.041 A 
HETATM   22  C12 UNL     1      25.350   4.725  49.544  1.00  0.00     0.009 A 
HETATM   23  C13 UNL     1      25.217   5.969  48.961  1.00  0.00     0.001 A 
HETATM   24  C14 UNL     1      26.281   6.569  48.339  1.00  0.00     0.000 A 
HETATM   25  C15 UNL     1      27.469   5.875  48.326  1.00  0.00     0.001 A 
HETATM   26  C16 UNL     1      27.580   4.652  48.904  1.00  0.00     0.009 A 
ENDBRANCH  20  21
ENDBRANCH  18  20
ENDBRANCH  11  18
TORSDOF 3
ENDMDL
MODEL 3
REMARK VINA RESULT:      -8.7      2.217      2.941
REMARK  3 active torsions:
REMARK  status: ('A' for Active; 'I' for Inactive)
REMARK    1  A    between atoms: C9_11  and  N2_12 
REMARK    2  A    between atoms: N2_12  and  C10_13 
REMARK    3  A    between atoms: C10_13  and  C11_14 
ROOT
HETATM    1  F1  UNL     1      28.720  -0.247  54.744  1.00  0.00    -0.206 F 
HETATM    2  C1  UNL     1      27.532   0.103  54.189  1.00  0.00     0.117 A 
HETATM    3  C2  UNL     1      26.348  -0.472  54.602  1.00  0.00     0.043 A 
HETATM    4  C3  UNL     1      25.157  -0.107  54.029  1.00  0.00     0.022 A 
HETATM    5  C4  UNL     1      25.185   0.834  53.050  1.00  0.00     0.015 A 
HETATM    6  C5  UNL     1      26.310   1.478  52.555  1.00  0.00    -0.021 A 
HETATM    7  C6  UNL     1      27.483   1.044  53.195  1.00  0.00     0.052 A 
HETATM    8  C7  UNL     1      26.655   2.477  51.562  1.00  0.00     0.160 C 
HETATM    9  N1  UNL     1      25.641   3.357  51.100  1.00  0.00    -0.380 N 
HETATM   10  C8  UNL     1      24.314   3.720  51.437  1.00  0.00     0.111 A 
HETATM   11  C9  UNL     1      24.094   5.041  51.119  1.00  0.00     0.154 A 
HETATM   12  N3  UNL     1      22.859   5.482  51.389  1.00  0.00    -0.222 NA
HETATM   13  C17 UNL     1      21.937   4.671  51.929  1.00  0.00     0.236 A 
HETATM   14  N4  UNL     1      22.169   3.362  52.242  1.00  0.00    -0.232 NA
HETATM   15  C18 UNL     1      23.403   2.861  51.988  1.00  0.00     0.129 A 
HETATM   16  S1  UNL     1      23.530   1.145  52.461  1.00  0.00    -0.068 SA
HETATM   17  H6  UNL     1      26.005   3.892  50.249  1.00  0.00     0.160 HD
ENDROOT
BRANCH  11  18
HETATM   18  N2  UNL     1      25.040   5.937  50.570  1.00  0.00    -0.369 N 
HETATM   19  H7  UNL     1      25.690   6.592  51.054  1.00  0.00     0.161 HD
BRANCH  18  20
HETATM   20  C10 UNL     1      25.248   6.086  49.157  1.00  0.00     0.160 C 
BRANCH  20  21
HETATM   21  C11 UNL     1      26.637   6.070  48.705  1.00  0.00    -0.041 A 
HETATM   22  C12 UNL     1      27.073   7.317  48.230  1.00  0.00     0.009 A 
HETATM   23  C13 UNL     1      28.347   7.522  47.743  1.00  0.00     0.001 A 
HETATM   24  C14 UNL     1      29.256   6.496  47.703  1.00  0.00     0.000 A 
HETATM   25  C15 UNL     1      28.835   5.271  48.166  1.00  0.00     0.001 A 
HETATM   26  C16 UNL     1      27.577   5.089  48.642  1.00  0.00     0.009 A 
ENDBRANCH  20  21
ENDBRANCH  18  20
ENDBRANCH  11  18
TORSDOF 3
ENDMDL
MODEL 4
REMARK VINA RESULT:      -8.4      2.908      7.535
REMARK  3 active torsions:
REMARK  status: ('A' for Active; 'I' for Inactive)
REMARK    1  A    between atoms: C9_11  and  N2_12 
REMARK    2  A    between atoms: N2_12  and  C10_13 
REMARK    3  A    between atoms: C10_13  and  C11_14 
ROOT
HETATM    1  F1  UNL     1      28.658   5.013  47.844  1.00  0.00    -0.206 F 
HETATM    2  C1  UNL     1      27.546   5.230  48.591  1.00  0.00     0.117 A 
HETATM    3  C2  UNL     1      26.976   6.483  48.686  1.00  0.00     0.043 A 
HETATM    4  C3  UNL     1      25.853   6.684  49.446  1.00  0.00     0.022 A 
HETATM    5  C4  UNL     1      25.327   5.615  50.096  1.00  0.00     0.015 A 
HETATM    6  C5  UNL     1      25.811   4.314  50.076  1.00  0.00    -0.021 A 
HETATM    7  C6  UNL     1      26.960   4.199  49.276  1.00  0.00     0.052 A 
HETATM    8  C7  UNL     1      25.493   3.015  50.636  1.00  0.00     0.160 C 
HETATM    9  N1  UNL     1      24.174   2.782  51.109  1.00  0.00    -0.380 N 
HETATM   10  C8  UNL     1      22.903   3.406  51.066  1.00  0.00     0.111 A 
HETATM   11  C9  UNL     1      21.911   2.451  51.074  1.00  0.00     0.154 A 
HETATM   12  N3  UNL     1      20.666   2.940  51.046  1.00  0.00    -0.222 NA
HETATM   13  C17 UNL     1      20.441   4.263  51.014  1.00  0.00     0.236 A 
HETATM   14  N4  UNL     1      21.435   5.200  51.005  1.00  0.00    -0.232 NA
HETATM   15  C18 UNL     1      22.718   4.761  51.033  1.00  0.00     0.129 A 
HETATM   16  S1  UNL     1      23.880   6.114  51.013  1.00  0.00    -0.068 SA
HETATM   17  H6  UNL     1      24.157   1.864  51.657  1.00  0.00     0.160 HD
ENDROOT
BRANCH  11  18
HETATM   18  N2  UNL     1      22.101   1.050  51.085  1.00  0.00    -0.369 N 
HETATM   19  H7  UNL     1      22.584   0.441  50.391  1.00  0.00     0.161 HD
BRANCH  18  20
HETATM   20  C10 UNL     1      21.608   0.203  52.135  1.00  0.00     0.160 C 
BRANCH  20  21
HETATM   21  C11 UNL     1      22.586  -0.221  53.134  1.00  0.00    -0.041 A 
HETATM   22  C12 UNL     1      22.001  -0.868  54.233  1.00  0.00     0.009 A 
HETATM   23  C13 UNL     1      22.740  -1.338  55.298  1.00  0.00     0.001 A 
HETATM   24  C14 UNL     1      24.104  -1.190  55.325  1.00  0.00     0.000 A 
HETATM   25  C15 UNL     1      24.684  -0.556  54.251  1.00  0.00     0.001 A 
HETATM   26  C16 UNL     1      23.938  -0.100  53.212  1.00  0.00     0.009 A 
ENDBRANCH  20  21
ENDBRANCH  18  20
ENDBRANCH  11  18
TORSDOF 3
ENDMDL
MODEL 5
REMARK VINA RESULT:      -8.1      2.362      3.571
REMARK  3 active torsions:
REMARK  status: ('A' for Active; 'I' for Inactive)
REMARK    1  A    between atoms: C9_11  and  N2_12 
REMARK    2  A    between atoms: N2_12  and  C10_13 
REMARK    3  A    between atoms: C10_13  and  C11_14 
ROOT
HETATM    1  F1  UNL     1      18.057   1.887  50.775  1.00  0.00    -0.206 F 
HETATM    2  C1  UNL     1      19.197   1.512  51.412  1.00  0.00     0.117 A 
HETATM    3  C2  UNL     1      19.301   0.287  52.037  1.00  0.00     0.043 A 
HETATM    4  C3  UNL     1      20.459  -0.075  52.675  1.00  0.00     0.022 A 
HETATM    5  C4  UNL     1      21.490   0.809  52.669  1.00  0.00     0.015 A 
HETATM    6  C5  UNL     1      21.500   2.063  52.076  1.00  0.00    -0.021 A 
HETATM    7  C6  UNL     1      20.278   2.352  51.448  1.00  0.00     0.052 A 
HETATM    8  C7  UNL     1      22.398   3.189  51.903  1.00  0.00     0.160 C 
HETATM    9  N1  UNL     1      23.793   2.978  52.062  1.00  0.00    -0.380 N 
HETATM   10  C8  UNL     1      24.697   1.894  52.191  1.00  0.00     0.111 A 
HETATM   11  C9  UNL     1      25.910   2.226  51.631  1.00  0.00     0.154 A 
HETATM   12  N3  UNL     1      26.843   1.269  51.711  1.00  0.00    -0.222 NA
HETATM   13  C17 UNL     1      26.577   0.091  52.296  1.00  0.00     0.236 A 
HETATM   14  N4  UNL     1      25.368  -0.226  52.846  1.00  0.00    -0.232 NA
HETATM   15  C18 UNL     1      24.386   0.707  52.795  1.00  0.00     0.129 A 
HETATM   16  S1  UNL     1      22.880   0.125  53.554  1.00  0.00    -0.068 SA
HETATM   17  H6  UNL     1      24.288   3.925  52.093  1.00  0.00     0.160 HD
ENDROOT
BRANCH  11  18
HETATM   18  N2  UNL     1      26.226   3.444  50.986  1.00  0.00    -0.369 N 
HETATM   19  H7  UNL     1      26.168   4.420  51.347  1.00  0.00     0.161 HD
BRANCH  18  20
HETATM   20  C10 UNL     1      26.702   3.512  49.632  1.00  0.00     0.160 C 
BRANCH  20  21
HETATM   21  C11 UNL     1      26.766   4.845  49.038  1.00  0.00    -0.041 A 
HETATM   22  C12 UNL     1      28.047   5.173  48.567  1.00  0.00     0.009 A 
HETATM   23  C13 UNL     1      28.334   6.388  47.982  1.00  0.00     0.001 A 
HETATM   24  C14 UNL     1      27.360   7.342  47.833  1.00  0.00     0.000 A 
HETATM   25  C15 UNL     1      26.103   7.027  48.293  1.00  0.00     0.001 A 
HETATM   26  C16 UNL     1      25.840   5.825  48.866  1.00  0.00     0.009 A 
ENDBRANCH  20  21
ENDBRANCH  18  20
ENDBRANCH  11  18
TORSDOF 3
ENDMDL
MODEL 6
REMARK VINA RESULT:      -8.1      2.131      3.180
REMARK  3 active torsions:
REMARK  status: ('A' for Active; 'I' for Inactive)
REMARK    1  A    between atoms: C9_11  and  N2_12 
REMARK    2  A    between atoms: N2_12  and  C10_13 
REMARK    3  A    between atoms: C10_13  and  C11_14 
ROOT
HETATM    1  F1  UNL     1      26.544  -0.568  53.252  1.00  0.00    -0.206 F 
HETATM    2  C1  UNL     1      25.765   0.408  52.719  1.00  0.00     0.117 A 
HETATM    3  C2  UNL     1      24.439   0.544  53.074  1.00  0.00     0.043 A 
HETATM    4  C3  UNL     1      23.667   1.536  52.527  1.00  0.00     0.022 A 
HETATM    5  C4  UNL     1      24.250   2.372  51.630  1.00  0.00     0.015 A 
HETATM    6  C5  UNL     1      25.568   2.331  51.198  1.00  0.00    -0.021 A 
HETATM    7  C6  UNL     1      26.284   1.289  51.808  1.00  0.00     0.052 A 
HETATM    8  C7  UNL     1      26.450   3.046  50.295  1.00  0.00     0.160 C 
HETATM    9  N1  UNL     1      26.100   4.365  49.902  1.00  0.00    -0.380 N 
HETATM   10  C8  UNL     1      25.166   5.368  50.259  1.00  0.00     0.111 A 
HETATM   11  C9  UNL     1      25.713   6.614  50.051  1.00  0.00     0.154 A 
HETATM   12  N3  UNL     1      24.902   7.636  50.349  1.00  0.00    -0.222 NA
HETATM   13  C17 UNL     1      23.661   7.424  50.813  1.00  0.00     0.236 A 
HETATM   14  N4  UNL     1      23.131   6.181  51.016  1.00  0.00    -0.232 NA
HETATM   15  C18 UNL     1      23.908   5.108  50.730  1.00  0.00     0.129 A 
HETATM   16  S1  UNL     1      23.061   3.572  51.057  1.00  0.00    -0.068 SA
HETATM   17  H6  UNL     1      26.738   4.671  49.101  1.00  0.00     0.160 HD
ENDROOT
BRANCH  11  18
HETATM   18  N2  UNL     1      27.020   6.884  49.586  1.00  0.00    -0.369 N 
HETATM   19  H7  UNL     1      27.930   6.817  50.090  1.00  0.00     0.161 HD
BRANCH  18  20
HETATM   20  C10 UNL     1      27.298   7.334  48.251  1.00  0.00     0.160 C 
BRANCH  20  21
HETATM   21  C11 UNL     1      28.637   7.049  47.740  1.00  0.00    -0.041 A 
HETATM   22  C12 UNL     1      29.198   5.888  48.295  1.00  0.00     0.009 A 
HETATM   23  C13 UNL     1      30.460   5.441  47.963  1.00  0.00     0.001 A 
HETATM   24  C14 UNL     1      31.231   6.127  47.059  1.00  0.00     0.000 A 
HETATM   25  C15 UNL     1      30.687   7.266  46.512  1.00  0.00     0.001 A 
HETATM   26  C16 UNL     1      29.443   7.689  46.852  1.00  0.00     0.009 A 
ENDBRANCH  20  21
ENDBRANCH  18  20
ENDBRANCH  11  18
TORSDOF 3
ENDMDL
MODEL 7
REMARK VINA RESULT:      -8.1      4.108      8.764
REMARK  3 active torsions:
REMARK  status: ('A' for Active; 'I' for Inactive)
REMARK    1  A    between atoms: C9_11  and  N2_12 
REMARK    2  A    between atoms: N2_12  and  C10_13 
REMARK    3  A    between atoms: C10_13  and  C11_14 
ROOT
HETATM    1  F1  UNL     1      27.363  -2.040  52.716  1.00  0.00    -0.206 F 
HETATM    2  C1  UNL     1      26.514  -0.980  52.719  1.00  0.00     0.117 A 
HETATM    3  C2  UNL     1      26.890   0.244  52.204  1.00  0.00     0.043 A 
HETATM    4  C3  UNL     1      26.020   1.303  52.215  1.00  0.00     0.022 A 
HETATM    5  C4  UNL     1      24.786   1.106  52.747  1.00  0.00     0.015 A 
HETATM    6  C5  UNL     1      24.299  -0.075  53.291  1.00  0.00    -0.021 A 
HETATM    7  C6  UNL     1      25.253  -1.104  53.239  1.00  0.00     0.052 A 
HETATM    8  C7  UNL     1      23.089  -0.582  53.908  1.00  0.00     0.160 C 
HETATM    9  N1  UNL     1      21.870   0.112  53.689  1.00  0.00    -0.380 N 
HETATM   10  C8  UNL     1      21.368   1.144  52.858  1.00  0.00     0.111 A 
HETATM   11  C9  UNL     1      20.035   0.928  52.594  1.00  0.00     0.154 A 
HETATM   12  N3  UNL     1      19.461   1.858  51.822  1.00  0.00    -0.222 NA
HETATM   13  C17 UNL     1      20.163   2.905  51.360  1.00  0.00     0.236 A 
HETATM   14  N4  UNL     1      21.486   3.107  51.629  1.00  0.00    -0.232 NA
HETATM   15  C18 UNL     1      22.119   2.196  52.408  1.00  0.00     0.129 A 
HETATM   16  S1  UNL     1      23.837   2.613  52.652  1.00  0.00    -0.068 SA
HETATM   17  H6  UNL     1      21.126  -0.270  54.356  1.00  0.00     0.160 HD
ENDROOT
BRANCH  11  18
HETATM   18  N2  UNL     1      19.263  -0.170  53.039  1.00  0.00    -0.369 N 
HETATM   19  H7  UNL     1      19.493  -0.897  53.749  1.00  0.00     0.161 HD
BRANCH  18  20
HETATM   20  C10 UNL     1      17.953  -0.463  52.529  1.00  0.00     0.160 C 
BRANCH  20  21
HETATM   21  C11 UNL     1      17.403  -1.770  52.881  1.00  0.00    -0.041 A 
HETATM   22  C12 UNL     1      16.112  -1.976  52.368  1.00  0.00     0.009 A 
HETATM   23  C13 UNL     1      15.401  -3.137  52.592  1.00  0.00     0.001 A 
HETATM   24  C14 UNL     1      15.937  -4.155  53.339  1.00  0.00     0.000 A 
HETATM   25  C15 UNL     1      17.202  -3.959  53.845  1.00  0.00     0.001 A 
HETATM   26  C16 UNL     1      17.885  -2.809  53.613  1.00  0.00     0.009 A 
ENDBRANCH  20  21
ENDBRANCH  18  20
ENDBRANCH  11  18
TORSDOF 3
ENDMDL
MODEL 8
REMARK VINA RESULT:      -7.9      3.388      6.784
REMARK  3 active torsions:
REMARK  status: ('A' for Active; 'I' for Inactive)
REMARK    1  A    between atoms: C9_11  and  N2_12 
REMARK    2  A    between atoms: N2_12  and  C10_13 
REMARK    3  A    between atoms: C10_13  and  C11_14 
ROOT
HETATM    1  F1  UNL     1      26.099   5.992  48.091  1.00  0.00    -0.206 F 
HETATM    2  C1  UNL     1      25.163   5.663  49.018  1.00  0.00     0.117 A 
HETATM    3  C2  UNL     1      23.970   6.350  49.111  1.00  0.00     0.043 A 
HETATM    4  C3  UNL     1      23.037   6.004  50.053  1.00  0.00     0.022 A 
HETATM    5  C4  UNL     1      23.326   4.969  50.884  1.00  0.00     0.015 A 
HETATM    6  C5  UNL     1      24.487   4.209  50.884  1.00  0.00    -0.021 A 
HETATM    7  C6  UNL     1      25.386   4.631  49.890  1.00  0.00     0.052 A 
HETATM    8  C7  UNL     1      25.070   3.095  51.607  1.00  0.00     0.160 C 
HETATM    9  N1  UNL     1      24.211   2.238  52.345  1.00  0.00    -0.380 N 
HETATM   10  C8  UNL     1      22.823   1.995  52.494  1.00  0.00     0.111 A 
HETATM   11  C9  UNL     1      22.608   0.665  52.776  1.00  0.00     0.154 A 
HETATM   12  N3  UNL     1      21.323   0.332  52.948  1.00  0.00    -0.222 NA
HETATM   13  C17 UNL     1      20.349   1.250  52.844  1.00  0.00     0.236 A 
HETATM   14  N4  UNL     1      20.578   2.567  52.562  1.00  0.00    -0.232 NA
HETATM   15  C18 UNL     1      21.862   2.961  52.379  1.00  0.00     0.129 A 
HETATM   16  S1  UNL     1      21.973   4.705  52.016  1.00  0.00    -0.068 SA
HETATM   17  H6  UNL     1      24.804   1.598  52.963  1.00  0.00     0.160 HD
ENDROOT
BRANCH  11  18
HETATM   18  N2  UNL     1      23.598  -0.339  52.873  1.00  0.00    -0.369 N 
HETATM   19  H7  UNL     1      23.976  -0.971  52.136  1.00  0.00     0.161 HD
BRANCH  18  20
HETATM   20  C10 UNL     1      24.269  -0.660  54.102  1.00  0.00     0.160 C 
BRANCH  20  21
HETATM   21  C11 UNL     1      25.717  -0.468  54.115  1.00  0.00    -0.041 A 
HETATM   22  C12 UNL     1      26.370  -1.161  53.084  1.00  0.00     0.009 A 
HETATM   23  C13 UNL     1      27.739  -1.129  52.919  1.00  0.00     0.001 A 
HETATM   24  C14 UNL     1      28.531  -0.405  53.772  1.00  0.00     0.000 A 
HETATM   25  C15 UNL     1      27.897   0.276  54.786  1.00  0.00     0.001 A 
HETATM   26  C16 UNL     1      26.549   0.232  54.931  1.00  0.00     0.009 A 
ENDBRANCH  20  21
ENDBRANCH  18  20
ENDBRANCH  11  18
TORSDOF 3
ENDMDL
MODEL 9
REMARK VINA RESULT:      -7.8      4.036      6.539
REMARK  3 active torsions:
REMARK  status: ('A' for Active; 'I' for Inactive)
REMARK    1  A    between atoms: C9_11  and  N2_12 
REMARK    2  A    between atoms: N2_12  and  C10_13 
REMARK    3  A    between atoms: C10_13  and  C11_14 
ROOT
HETATM    1  F1  UNL     1      22.513   4.787  46.251  1.00  0.00    -0.206 F 
HETATM    2  C1  UNL     1      22.114   4.064  47.329  1.00  0.00     0.117 A 
HETATM    3  C2  UNL     1      21.018   3.229  47.269  1.00  0.00     0.043 A 
HETATM    4  C3  UNL     1      20.629   2.507  48.368  1.00  0.00     0.022 A 
HETATM    5  C4  UNL     1      21.357   2.642  49.506  1.00  0.00     0.015 A 
HETATM    6  C5  UNL     1      22.473   3.448  49.683  1.00  0.00    -0.021 A 
HETATM    7  C6  UNL     1      22.800   4.150  48.512  1.00  0.00     0.052 A 
HETATM    8  C7  UNL     1      23.422   3.796  50.723  1.00  0.00     0.160 C 
HETATM    9  N1  UNL     1      23.568   2.922  51.832  1.00  0.00    -0.380 N 
HETATM   10  C8  UNL     1      23.170   1.618  52.219  1.00  0.00     0.111 A 
HETATM   11  C9  UNL     1      24.128   1.056  53.032  1.00  0.00     0.154 A 
HETATM   12  N3  UNL     1      23.841  -0.178  53.463  1.00  0.00    -0.222 NA
HETATM   13  C17 UNL     1      22.699  -0.787  53.108  1.00  0.00     0.236 A 
HETATM   14  N4  UNL     1      21.757  -0.219  52.298  1.00  0.00    -0.232 NA
HETATM   15  C18 UNL     1      21.996   1.032  51.832  1.00  0.00     0.129 A 
HETATM   16  S1  UNL     1      20.669   1.614  50.791  1.00  0.00    -0.068 SA
HETATM   17  H6  UNL     1      24.150   3.408  52.586  1.00  0.00     0.160 HD
ENDROOT
BRANCH  11  18
HETATM   18  N2  UNL     1      25.352   1.652  53.414  1.00  0.00    -0.369 N 
HETATM   19  H7  UNL     1      25.588   2.186  54.277  1.00  0.00     0.161 HD
BRANCH  18  20
HETATM   20  C10 UNL     1      26.532   1.607  52.597  1.00  0.00     0.160 C 
BRANCH  20  21
HETATM   21  C11 UNL     1      27.491   0.549  52.907  1.00  0.00    -0.041 A 
HETATM   22  C12 UNL     1      28.723   1.043  53.362  1.00  0.00     0.009 A 
HETATM   23  C13 UNL     1      29.776   0.218  53.699  1.00  0.00     0.001 A 
HETATM   24  C14 UNL     1      29.657  -1.145  53.602  1.00  0.00     0.000 A 
HETATM   25  C15 UNL     1      28.451  -1.636  53.157  1.00  0.00     0.001 A 
HETATM   26  C16 UNL     1      27.428  -0.807  52.830  1.00  0.00     0.009 A 
ENDBRANCH  20  21
ENDBRANCH  18  20
ENDBRANCH  11  18
TORSDOF 3
ENDMDL
