MODEL 1
REMARK VINA RESULT:      -6.5      0.000      0.000
REMARK  10 active torsions:
REMARK  status: ('A' for Active; 'I' for Inactive)
REMARK    1  A    between atoms: N1_1  and  C1_2 
REMARK    2  A    between atoms: C4_7  and  C5_8 
REMARK    3  A    between atoms: C5_8  and  S1_9 
REMARK    4  A    between atoms: S1_9  and  C6_10 
REMARK    5  A    between atoms: C6_10  and  C7_11 
REMARK    6  A    between atoms: C7_11  and  N4_12 
REMARK    7  A    between atoms: N4_12  and  C8_13 
REMARK    8  A    between atoms: C10_15  and  C11_16 
REMARK    9  A    between atoms: C11_16  and  C12_17 
REMARK   10  A    between atoms: C12_17  and  N5_18 
ROOT
HETATM    1  C7  UNL     1      24.586   4.066  50.739  1.00  0.00     0.149 C 
ENDROOT
BRANCH   1   2
HETATM    2  C6  UNL     1      24.858   2.877  51.246  1.00  0.00    -0.063 C 
BRANCH   2   3
HETATM    3  S1  UNL     1      24.984   1.407  51.945  1.00  0.00    -0.057 SA
BRANCH   3   4
HETATM    4  C5  UNL     1      25.950   1.456  53.290  1.00  0.00     0.075 C 
BRANCH   4   5
HETATM    5  C4  UNL     1      27.087   0.560  53.373  1.00  0.00     0.034 A 
HETATM    6  C1  UNL     1      28.254   1.264  53.634  1.00  0.00     0.134 A 
HETATM    7  N2  UNL     1      29.384   0.496  53.730  1.00  0.00    -0.224 NA
HETATM    8  C2  UNL     1      29.268  -0.854  53.565  1.00  0.00     0.234 A 
HETATM    9  N3  UNL     1      28.078  -1.463  53.311  1.00  0.00    -0.253 NA
HETATM   10  C3  UNL     1      26.939  -0.772  53.205  1.00  0.00     0.133 A 
BRANCH   6  11
HETATM   11  N1  UNL     1      28.361   2.666  53.808  1.00  0.00    -0.383 N 
HETATM   12  H1  UNL     1      29.073   3.227  53.249  1.00  0.00     0.157 HD
HETATM   13  H2  UNL     1      27.708   3.126  54.511  1.00  0.00     0.157 HD
ENDBRANCH   6  11
ENDBRANCH   4   5
ENDBRANCH   3   4
ENDBRANCH   2   3
ENDBRANCH   1   2
BRANCH   1  14
HETATM   14  N4  UNL     1      25.583   5.041  50.622  1.00  0.00    -0.363 N 
HETATM   15  H7  UNL     1      25.907   5.527  51.478  1.00  0.00     0.161 HD
BRANCH  14  16
HETATM   16  C8  UNL     1      26.142   5.361  49.352  1.00  0.00     0.321 C 
HETATM   17  C9  UNL     1      27.287   4.493  48.860  1.00  0.00     0.092 C 
HETATM   18  C10 UNL     1      27.815   5.824  48.308  1.00  0.00     0.228 C 
HETATM   19  N6  UNL     1      27.135   6.448  49.430  1.00  0.00     0.111 N 
HETATM   20  H22 UNL     1      27.677   6.462  50.323  1.00  0.00     0.319 HD
BRANCH  18  21
HETATM   21  C11 UNL     1      29.324   5.883  48.336  1.00  0.00     0.066 C 
BRANCH  21  22
HETATM   22  C12 UNL     1      29.730   6.982  47.388  1.00  0.00     0.274 C 
BRANCH  22  23
HETATM   23  N5  UNL     1      30.356   8.108  47.968  1.00  0.00     0.088 N 
HETATM   24  C13 UNL     1      31.040   7.993  49.213  1.00  0.00     0.274 C 
HETATM   25  C14 UNL     1      30.774   9.496  49.396  1.00  0.00     0.060 C 
HETATM   26  C15 UNL     1      29.569   9.164  48.515  1.00  0.00     0.274 C 
ENDBRANCH  22  23
ENDBRANCH  21  22
ENDBRANCH  18  21
ENDBRANCH  14  16
ENDBRANCH   1  14
TORSDOF 10
ENDMDL
MODEL 2
REMARK VINA RESULT:      -6.4      0.840      1.621
REMARK  10 active torsions:
REMARK  status: ('A' for Active; 'I' for Inactive)
REMARK    1  A    between atoms: N1_1  and  C1_2 
REMARK    2  A    between atoms: C4_7  and  C5_8 
REMARK    3  A    between atoms: C5_8  and  S1_9 
REMARK    4  A    between atoms: S1_9  and  C6_10 
REMARK    5  A    between atoms: C6_10  and  C7_11 
REMARK    6  A    between atoms: C7_11  and  N4_12 
REMARK    7  A    between atoms: N4_12  and  C8_13 
REMARK    8  A    between atoms: C10_15  and  C11_16 
REMARK    9  A    between atoms: C11_16  and  C12_17 
REMARK   10  A    between atoms: C12_17  and  N5_18 
ROOT
HETATM    1  C7  UNL     1      24.735   4.156  50.435  1.00  0.00     0.149 C 
ENDROOT
BRANCH   1   2
HETATM    2  C6  UNL     1      24.773   3.088  51.211  1.00  0.00    -0.063 C 
BRANCH   2   3
HETATM    3  S1  UNL     1      24.862   1.653  51.985  1.00  0.00    -0.057 SA
BRANCH   3   4
HETATM    4  C5  UNL     1      26.342   0.940  51.772  1.00  0.00     0.075 C 
BRANCH   4   5
HETATM    5  C4  UNL     1      27.294   0.957  52.866  1.00  0.00     0.034 A 
HETATM    6  C1  UNL     1      27.381  -0.292  53.465  1.00  0.00     0.134 A 
HETATM    7  N2  UNL     1      28.260  -0.371  54.513  1.00  0.00    -0.224 NA
HETATM    8  C2  UNL     1      28.953   0.751  54.866  1.00  0.00     0.234 A 
HETATM    9  N3  UNL     1      28.804   1.939  54.219  1.00  0.00    -0.253 NA
HETATM   10  C3  UNL     1      27.963   2.084  53.190  1.00  0.00     0.133 A 
BRANCH   6  11
HETATM   11  N1  UNL     1      26.659  -1.451  53.087  1.00  0.00    -0.383 N 
HETATM   12  H1  UNL     1      25.656  -1.594  53.414  1.00  0.00     0.157 HD
HETATM   13  H2  UNL     1      27.158  -2.161  52.471  1.00  0.00     0.157 HD
ENDBRANCH   6  11
ENDBRANCH   4   5
ENDBRANCH   3   4
ENDBRANCH   2   3
ENDBRANCH   1   2
BRANCH   1  14
HETATM   14  N4  UNL     1      25.799   5.066  50.414  1.00  0.00    -0.363 N 
HETATM   15  H7  UNL     1      26.161   5.429  51.315  1.00  0.00     0.161 HD
BRANCH  14  16
HETATM   16  C8  UNL     1      26.373   5.487  49.181  1.00  0.00     0.321 C 
HETATM   17  C9  UNL     1      27.560   4.696  48.662  1.00  0.00     0.092 C 
HETATM   18  C10 UNL     1      28.048   6.079  48.209  1.00  0.00     0.228 C 
HETATM   19  N6  UNL     1      27.321   6.603  49.352  1.00  0.00     0.111 N 
HETATM   20  H22 UNL     1      27.843   6.580  50.256  1.00  0.00     0.319 HD
BRANCH  18  21
HETATM   21  C11 UNL     1      29.553   6.191  48.276  1.00  0.00     0.066 C 
BRANCH  21  22
HETATM   22  C12 UNL     1      29.946   7.295  47.329  1.00  0.00     0.274 C 
BRANCH  22  23
HETATM   23  N5  UNL     1      30.473   8.466  47.917  1.00  0.00     0.088 N 
HETATM   24  C13 UNL     1      30.940   8.450  49.264  1.00  0.00     0.274 C 
HETATM   25  C14 UNL     1      30.655   9.961  49.286  1.00  0.00     0.060 C 
HETATM   26  C15 UNL     1      29.611   9.554  48.245  1.00  0.00     0.274 C 
ENDBRANCH  22  23
ENDBRANCH  21  22
ENDBRANCH  18  21
ENDBRANCH  14  16
ENDBRANCH   1  14
TORSDOF 10
ENDMDL
MODEL 3
REMARK VINA RESULT:      -6.4      1.506      1.927
REMARK  10 active torsions:
REMARK  status: ('A' for Active; 'I' for Inactive)
REMARK    1  A    between atoms: N1_1  and  C1_2 
REMARK    2  A    between atoms: C4_7  and  C5_8 
REMARK    3  A    between atoms: C5_8  and  S1_9 
REMARK    4  A    between atoms: S1_9  and  C6_10 
REMARK    5  A    between atoms: C6_10  and  C7_11 
REMARK    6  A    between atoms: C7_11  and  N4_12 
REMARK    7  A    between atoms: N4_12  and  C8_13 
REMARK    8  A    between atoms: C10_15  and  C11_16 
REMARK    9  A    between atoms: C11_16  and  C12_17 
REMARK   10  A    between atoms: C12_17  and  N5_18 
ROOT
HETATM    1  C7  UNL     1      26.521   3.246  50.185  1.00  0.00     0.149 C 
ENDROOT
BRANCH   1   2
HETATM    2  C6  UNL     1      26.136   2.617  51.281  1.00  0.00    -0.063 C 
BRANCH   2   3
HETATM    3  S1  UNL     1      25.469   1.950  52.614  1.00  0.00    -0.057 SA
BRANCH   3   4
HETATM    4  C5  UNL     1      26.600   1.700  53.798  1.00  0.00     0.075 C 
BRANCH   4   5
HETATM    5  C4  UNL     1      27.554   0.619  53.643  1.00  0.00     0.034 A 
HETATM    6  C1  UNL     1      28.854   1.083  53.782  1.00  0.00     0.134 A 
HETATM    7  N2  UNL     1      29.827   0.127  53.651  1.00  0.00    -0.224 NA
HETATM    8  C2  UNL     1      29.444  -1.160  53.401  1.00  0.00     0.234 A 
HETATM    9  N3  UNL     1      28.140  -1.526  53.279  1.00  0.00    -0.253 NA
HETATM   10  C3  UNL     1      27.143  -0.644  53.396  1.00  0.00     0.133 A 
BRANCH   6  11
HETATM   11  N1  UNL     1      29.239   2.421  54.045  1.00  0.00    -0.383 N 
HETATM   12  H1  UNL     1      29.745   2.670  54.949  1.00  0.00     0.157 HD
HETATM   13  H2  UNL     1      29.004   3.153  53.310  1.00  0.00     0.157 HD
ENDBRANCH   6  11
ENDBRANCH   4   5
ENDBRANCH   3   4
ENDBRANCH   2   3
ENDBRANCH   1   2
BRANCH   1  14
HETATM   14  N4  UNL     1      26.344   4.628  50.051  1.00  0.00    -0.363 N 
HETATM   15  H7  UNL     1      25.848   5.141  50.802  1.00  0.00     0.161 HD
BRANCH  14  16
HETATM   16  C8  UNL     1      26.833   5.316  48.904  1.00  0.00     0.321 C 
HETATM   17  C9  UNL     1      28.278   5.069  48.511  1.00  0.00     0.092 C 
HETATM   18  C10 UNL     1      28.243   6.561  48.152  1.00  0.00     0.228 C 
HETATM   19  N6  UNL     1      27.260   6.694  49.214  1.00  0.00     0.111 N 
HETATM   20  H22 UNL     1      27.658   6.808  50.173  1.00  0.00     0.319 HD
BRANCH  18  21
HETATM   21  C11 UNL     1      29.575   7.228  48.400  1.00  0.00     0.066 C 
BRANCH  21  22
HETATM   22  C12 UNL     1      30.442   6.916  47.207  1.00  0.00     0.274 C 
BRANCH  22  23
HETATM   23  N5  UNL     1      31.723   6.388  47.486  1.00  0.00     0.088 N 
HETATM   24  C13 UNL     1      32.184   5.219  46.813  1.00  0.00     0.274 C 
HETATM   25  C14 UNL     1      33.101   4.992  48.026  1.00  0.00     0.060 C 
HETATM   26  C15 UNL     1      31.979   5.751  48.737  1.00  0.00     0.274 C 
ENDBRANCH  22  23
ENDBRANCH  21  22
ENDBRANCH  18  21
ENDBRANCH  14  16
ENDBRANCH   1  14
TORSDOF 10
ENDMDL
MODEL 4
REMARK VINA RESULT:      -6.1      2.090      2.823
REMARK  10 active torsions:
REMARK  status: ('A' for Active; 'I' for Inactive)
REMARK    1  A    between atoms: N1_1  and  C1_2 
REMARK    2  A    between atoms: C4_7  and  C5_8 
REMARK    3  A    between atoms: C5_8  and  S1_9 
REMARK    4  A    between atoms: S1_9  and  C6_10 
REMARK    5  A    between atoms: C6_10  and  C7_11 
REMARK    6  A    between atoms: C7_11  and  N4_12 
REMARK    7  A    between atoms: N4_12  and  C8_13 
REMARK    8  A    between atoms: C10_15  and  C11_16 
REMARK    9  A    between atoms: C11_16  and  C12_17 
REMARK   10  A    between atoms: C12_17  and  N5_18 
ROOT
HETATM    1  C7  UNL     1      26.167   2.188  51.177  1.00  0.00     0.149 C 
ENDROOT
BRANCH   1   2
HETATM    2  C6  UNL     1      25.218   1.592  51.875  1.00  0.00    -0.063 C 
BRANCH   2   3
HETATM    3  S1  UNL     1      24.196   0.700  52.785  1.00  0.00    -0.057 SA
BRANCH   3   4
HETATM    4  C5  UNL     1      24.980  -0.564  53.515  1.00  0.00     0.075 C 
BRANCH   4   5
HETATM    5  C4  UNL     1      26.374  -0.408  53.883  1.00  0.00     0.034 A 
HETATM    6  C1  UNL     1      27.174  -1.288  53.169  1.00  0.00     0.134 A 
HETATM    7  N2  UNL     1      28.513  -1.213  53.452  1.00  0.00    -0.224 NA
HETATM    8  C2  UNL     1      28.930  -0.306  54.383  1.00  0.00     0.234 A 
HETATM    9  N3  UNL     1      28.070   0.522  55.038  1.00  0.00    -0.253 NA
HETATM   10  C3  UNL     1      26.754   0.498  54.809  1.00  0.00     0.133 A 
BRANCH   6  11
HETATM   11  N1  UNL     1      26.731  -2.223  52.201  1.00  0.00    -0.383 N 
HETATM   12  H1  UNL     1      26.448  -1.899  51.227  1.00  0.00     0.157 HD
HETATM   13  H2  UNL     1      26.694  -3.247  52.487  1.00  0.00     0.157 HD
ENDBRANCH   6  11
ENDBRANCH   4   5
ENDBRANCH   3   4
ENDBRANCH   2   3
ENDBRANCH   1   2
BRANCH   1  14
HETATM   14  N4  UNL     1      26.247   3.584  51.120  1.00  0.00    -0.363 N 
HETATM   15  H7  UNL     1      26.482   4.105  51.984  1.00  0.00     0.161 HD
BRANCH  14  16
HETATM   16  C8  UNL     1      26.008   4.277  49.899  1.00  0.00     0.321 C 
HETATM   17  C9  UNL     1      27.189   4.461  48.963  1.00  0.00     0.092 C 
HETATM   18  C10 UNL     1      26.533   5.823  48.700  1.00  0.00     0.228 C 
HETATM   19  N6  UNL     1      26.043   5.742  50.066  1.00  0.00     0.111 N 
HETATM   20  H22 UNL     1      26.715   6.068  50.796  1.00  0.00     0.319 HD
BRANCH  18  21
HETATM   21  C11 UNL     1      27.561   6.897  48.431  1.00  0.00     0.066 C 
BRANCH  21  22
HETATM   22  C12 UNL     1      26.964   7.815  47.396  1.00  0.00     0.274 C 
BRANCH  22  23
HETATM   23  N5  UNL     1      26.267   8.942  47.888  1.00  0.00     0.088 N 
HETATM   24  C13 UNL     1      26.131  10.113  47.087  1.00  0.00     0.274 C 
HETATM   25  C14 UNL     1      25.970  10.887  48.406  1.00  0.00     0.060 C 
HETATM   26  C15 UNL     1      26.833   9.737  48.928  1.00  0.00     0.274 C 
ENDBRANCH  22  23
ENDBRANCH  21  22
ENDBRANCH  18  21
ENDBRANCH  14  16
ENDBRANCH   1  14
TORSDOF 10
ENDMDL
MODEL 5
REMARK VINA RESULT:      -6.1      2.470      3.199
REMARK  10 active torsions:
REMARK  status: ('A' for Active; 'I' for Inactive)
REMARK    1  A    between atoms: N1_1  and  C1_2 
REMARK    2  A    between atoms: C4_7  and  C5_8 
REMARK    3  A    between atoms: C5_8  and  S1_9 
REMARK    4  A    between atoms: S1_9  and  C6_10 
REMARK    5  A    between atoms: C6_10  and  C7_11 
REMARK    6  A    between atoms: C7_11  and  N4_12 
REMARK    7  A    between atoms: N4_12  and  C8_13 
REMARK    8  A    between atoms: C10_15  and  C11_16 
REMARK    9  A    between atoms: C11_16  and  C12_17 
REMARK   10  A    between atoms: C12_17  and  N5_18 
ROOT
HETATM    1  C7  UNL     1      25.264   5.545  49.485  1.00  0.00     0.149 C 
ENDROOT
BRANCH   1   2
HETATM    2  C6  UNL     1      24.888   4.542  50.257  1.00  0.00    -0.063 C 
BRANCH   2   3
HETATM    3  S1  UNL     1      24.587   3.185  51.115  1.00  0.00    -0.057 SA
BRANCH   3   4
HETATM    4  C5  UNL     1      25.974   2.562  51.772  1.00  0.00     0.075 C 
BRANCH   4   5
HETATM    5  C4  UNL     1      25.871   1.526  52.782  1.00  0.00     0.034 A 
HETATM    6  C1  UNL     1      26.833   1.697  53.766  1.00  0.00     0.134 A 
HETATM    7  N2  UNL     1      26.812   0.761  54.766  1.00  0.00    -0.224 NA
HETATM    8  C2  UNL     1      25.873  -0.229  54.709  1.00  0.00     0.234 A 
HETATM    9  N3  UNL     1      24.963  -0.320  53.702  1.00  0.00    -0.253 NA
HETATM   10  C3  UNL     1      24.931   0.560  52.696  1.00  0.00     0.133 A 
BRANCH   6  11
HETATM   11  N1  UNL     1      27.800   2.732  53.817  1.00  0.00    -0.383 N 
HETATM   12  H1  UNL     1      28.133   3.205  52.923  1.00  0.00     0.157 HD
HETATM   13  H2  UNL     1      28.172   3.010  54.774  1.00  0.00     0.157 HD
ENDBRANCH   6  11
ENDBRANCH   4   5
ENDBRANCH   3   4
ENDBRANCH   2   3
ENDBRANCH   1   2
BRANCH   1  14
HETATM   14  N4  UNL     1      26.508   6.160  49.664  1.00  0.00    -0.363 N 
HETATM   15  H7  UNL     1      26.733   6.569  50.589  1.00  0.00     0.161 HD
BRANCH  14  16
HETATM   16  C8  UNL     1      27.448   6.225  48.596  1.00  0.00     0.321 C 
HETATM   17  C9  UNL     1      28.413   5.061  48.449  1.00  0.00     0.092 C 
HETATM   18  C10 UNL     1      29.399   6.169  48.053  1.00  0.00     0.228 C 
HETATM   19  N6  UNL     1      28.634   7.032  48.936  1.00  0.00     0.111 N 
HETATM   20  H22 UNL     1      28.904   6.983  49.944  1.00  0.00     0.319 HD
BRANCH  18  21
HETATM   21  C11 UNL     1      30.807   5.850  48.498  1.00  0.00     0.066 C 
BRANCH  21  22
HETATM   22  C12 UNL     1      31.620   5.650  47.245  1.00  0.00     0.274 C 
BRANCH  22  23
HETATM   23  N5  UNL     1      32.536   4.574  47.259  1.00  0.00     0.088 N 
HETATM   24  C13 UNL     1      33.802   4.696  46.616  1.00  0.00     0.274 C 
HETATM   25  C14 UNL     1      33.787   3.163  46.496  1.00  0.00     0.060 C 
HETATM   26  C15 UNL     1      32.275   3.401  46.492  1.00  0.00     0.274 C 
ENDBRANCH  22  23
ENDBRANCH  21  22
ENDBRANCH  18  21
ENDBRANCH  14  16
ENDBRANCH   1  14
TORSDOF 10
ENDMDL
MODEL 6
REMARK VINA RESULT:      -5.9      2.190      3.040
REMARK  10 active torsions:
REMARK  status: ('A' for Active; 'I' for Inactive)
REMARK    1  A    between atoms: N1_1  and  C1_2 
REMARK    2  A    between atoms: C4_7  and  C5_8 
REMARK    3  A    between atoms: C5_8  and  S1_9 
REMARK    4  A    between atoms: S1_9  and  C6_10 
REMARK    5  A    between atoms: C6_10  and  C7_11 
REMARK    6  A    between atoms: C7_11  and  N4_12 
REMARK    7  A    between atoms: N4_12  and  C8_13 
REMARK    8  A    between atoms: C10_15  and  C11_16 
REMARK    9  A    between atoms: C11_16  and  C12_17 
REMARK   10  A    between atoms: C12_17  and  N5_18 
ROOT
HETATM    1  C7  UNL     1      26.956   5.319  48.696  1.00  0.00     0.149 C 
ENDROOT
BRANCH   1   2
HETATM    2  C6  UNL     1      26.580   4.302  49.452  1.00  0.00    -0.063 C 
BRANCH   2   3
HETATM    3  S1  UNL     1      25.907   3.106  50.336  1.00  0.00    -0.057 SA
BRANCH   3   4
HETATM    4  C5  UNL     1      26.963   2.522  51.470  1.00  0.00     0.075 C 
BRANCH   4   5
HETATM    5  C4  UNL     1      26.475   1.599  52.477  1.00  0.00     0.034 A 
HETATM    6  C1  UNL     1      27.186   1.737  53.660  1.00  0.00     0.134 A 
HETATM    7  N2  UNL     1      26.792   0.903  54.673  1.00  0.00    -0.224 NA
HETATM    8  C2  UNL     1      25.767   0.033  54.437  1.00  0.00     0.234 A 
HETATM    9  N3  UNL     1      25.124  -0.035  53.239  1.00  0.00    -0.253 NA
HETATM   10  C3  UNL     1      25.459   0.751  52.211  1.00  0.00     0.133 A 
BRANCH   6  11
HETATM   11  N1  UNL     1      28.247   2.647  53.896  1.00  0.00    -0.383 N 
HETATM   12  H1  UNL     1      28.389   3.074  54.861  1.00  0.00     0.157 HD
HETATM   13  H2  UNL     1      28.885   2.880  53.076  1.00  0.00     0.157 HD
ENDBRANCH   6  11
ENDBRANCH   4   5
ENDBRANCH   3   4
ENDBRANCH   2   3
ENDBRANCH   1   2
BRANCH   1  14
HETATM   14  N4  UNL     1      27.187   6.581  49.256  1.00  0.00    -0.363 N 
HETATM   15  H7  UNL     1      26.627   6.871  50.078  1.00  0.00     0.161 HD
BRANCH  14  16
HETATM   16  C8  UNL     1      28.173   7.450  48.707  1.00  0.00     0.321 C 
HETATM   17  C9  UNL     1      28.553   7.237  47.253  1.00  0.00     0.092 C 
HETATM   18  C10 UNL     1      29.956   7.602  47.758  1.00  0.00     0.228 C 
HETATM   19  N6  UNL     1      29.546   7.017  49.024  1.00  0.00     0.111 N 
HETATM   20  H22 UNL     1      29.659   5.980  49.088  1.00  0.00     0.319 HD
BRANCH  18  21
HETATM   21  C11 UNL     1      31.033   6.857  47.006  1.00  0.00     0.066 C 
BRANCH  21  22
HETATM   22  C12 UNL     1      32.274   7.710  47.073  1.00  0.00     0.274 C 
BRANCH  22  23
HETATM   23  N5  UNL     1      33.471   7.046  47.425  1.00  0.00     0.088 N 
HETATM   24  C13 UNL     1      33.431   5.834  48.173  1.00  0.00     0.274 C 
HETATM   25  C14 UNL     1      34.851   6.185  48.647  1.00  0.00     0.060 C 
HETATM   26  C15 UNL     1      34.340   7.606  48.408  1.00  0.00     0.274 C 
ENDBRANCH  22  23
ENDBRANCH  21  22
ENDBRANCH  18  21
ENDBRANCH  14  16
ENDBRANCH   1  14
TORSDOF 10
ENDMDL
MODEL 7
REMARK VINA RESULT:      -5.8      2.126      7.860
REMARK  10 active torsions:
REMARK  status: ('A' for Active; 'I' for Inactive)
REMARK    1  A    between atoms: N1_1  and  C1_2 
REMARK    2  A    between atoms: C4_7  and  C5_8 
REMARK    3  A    between atoms: C5_8  and  S1_9 
REMARK    4  A    between atoms: S1_9  and  C6_10 
REMARK    5  A    between atoms: C6_10  and  C7_11 
REMARK    6  A    between atoms: C7_11  and  N4_12 
REMARK    7  A    between atoms: N4_12  and  C8_13 
REMARK    8  A    between atoms: C10_15  and  C11_16 
REMARK    9  A    between atoms: C11_16  and  C12_17 
REMARK   10  A    between atoms: C12_17  and  N5_18 
ROOT
HETATM    1  C7  UNL     1      24.522   3.974  51.041  1.00  0.00     0.149 C 
ENDROOT
BRANCH   1   2
HETATM    2  C6  UNL     1      24.900   5.136  50.542  1.00  0.00    -0.063 C 
BRANCH   2   3
HETATM    3  S1  UNL     1      25.201   6.661  50.041  1.00  0.00    -0.057 SA
BRANCH   3   4
HETATM    4  C5  UNL     1      25.934   6.678  48.555  1.00  0.00     0.075 C 
BRANCH   4   5
HETATM    5  C4  UNL     1      27.357   6.410  48.469  1.00  0.00     0.034 A 
HETATM    6  C1  UNL     1      28.077   7.592  48.378  1.00  0.00     0.134 A 
HETATM    7  N2  UNL     1      29.436   7.438  48.294  1.00  0.00    -0.224 NA
HETATM    8  C2  UNL     1      29.947   6.171  48.305  1.00  0.00     0.234 A 
HETATM    9  N3  UNL     1      29.162   5.064  48.397  1.00  0.00    -0.253 NA
HETATM   10  C3  UNL     1      27.831   5.146  48.482  1.00  0.00     0.133 A 
BRANCH   6  11
HETATM   11  N1  UNL     1      27.536   8.902  48.372  1.00  0.00    -0.383 N 
HETATM   12  H1  UNL     1      27.041   9.287  49.233  1.00  0.00     0.157 HD
HETATM   13  H2  UNL     1      27.644   9.474  47.482  1.00  0.00     0.157 HD
ENDBRANCH   6  11
ENDBRANCH   4   5
ENDBRANCH   3   4
ENDBRANCH   2   3
ENDBRANCH   1   2
BRANCH   1  14
HETATM   14  N4  UNL     1      24.226   3.840  52.403  1.00  0.00    -0.363 N 
HETATM   15  H7  UNL     1      23.769   4.631  52.893  1.00  0.00     0.161 HD
BRANCH  14  16
HETATM   16  C8  UNL     1      24.546   2.642  53.103  1.00  0.00     0.321 C 
HETATM   17  C9  UNL     1      25.979   2.148  53.015  1.00  0.00     0.092 C 
HETATM   18  C10 UNL     1      25.308   0.768  52.990  1.00  0.00     0.228 C 
HETATM   19  N6  UNL     1      24.190   1.431  52.340  1.00  0.00     0.111 N 
HETATM   20  H22 UNL     1      24.283   1.540  51.305  1.00  0.00     0.319 HD
BRANCH  18  21
HETATM   21  C11 UNL     1      26.078  -0.214  52.139  1.00  0.00     0.066 C 
BRANCH  21  22
HETATM   22  C12 UNL     1      26.874  -1.073  53.087  1.00  0.00     0.274 C 
BRANCH  22  23
HETATM   23  N5  UNL     1      28.274  -0.876  53.084  1.00  0.00     0.088 N 
HETATM   24  C13 UNL     1      29.156  -1.962  53.354  1.00  0.00     0.274 C 
HETATM   25  C14 UNL     1      30.175  -0.903  53.807  1.00  0.00     0.060 C 
HETATM   26  C15 UNL     1      28.895  -0.130  54.129  1.00  0.00     0.274 C 
ENDBRANCH  22  23
ENDBRANCH  21  22
ENDBRANCH  18  21
ENDBRANCH  14  16
ENDBRANCH   1  14
TORSDOF 10
ENDMDL
MODEL 8
REMARK VINA RESULT:      -5.8      2.763      8.265
REMARK  10 active torsions:
REMARK  status: ('A' for Active; 'I' for Inactive)
REMARK    1  A    between atoms: N1_1  and  C1_2 
REMARK    2  A    between atoms: C4_7  and  C5_8 
REMARK    3  A    between atoms: C5_8  and  S1_9 
REMARK    4  A    between atoms: S1_9  and  C6_10 
REMARK    5  A    between atoms: C6_10  and  C7_11 
REMARK    6  A    between atoms: C7_11  and  N4_12 
REMARK    7  A    between atoms: N4_12  and  C8_13 
REMARK    8  A    between atoms: C10_15  and  C11_16 
REMARK    9  A    between atoms: C11_16  and  C12_17 
REMARK   10  A    between atoms: C12_17  and  N5_18 
ROOT
HETATM    1  C7  UNL     1      23.952   7.891  50.810  1.00  0.00     0.149 C 
ENDROOT
BRANCH   1   2
HETATM    2  C6  UNL     1      24.855   8.586  50.142  1.00  0.00    -0.063 C 
BRANCH   2   3
HETATM    3  S1  UNL     1      25.845   9.410  49.138  1.00  0.00    -0.057 SA
BRANCH   3   4
HETATM    4  C5  UNL     1      27.421   9.329  49.639  1.00  0.00     0.075 C 
BRANCH   4   5
HETATM    5  C4  UNL     1      28.328   8.419  48.964  1.00  0.00     0.034 A 
HETATM    6  C1  UNL     1      29.648   8.763  49.212  1.00  0.00     0.134 A 
HETATM    7  N2  UNL     1      30.579   7.956  48.613  1.00  0.00    -0.224 NA
HETATM    8  C2  UNL     1      30.139   6.916  47.846  1.00  0.00     0.234 A 
HETATM    9  N3  UNL     1      28.818   6.651  47.657  1.00  0.00    -0.253 NA
HETATM   10  C3  UNL     1      27.860   7.400  48.212  1.00  0.00     0.133 A 
BRANCH   6  11
HETATM   11  N1  UNL     1      30.093   9.844  50.014  1.00  0.00    -0.383 N 
HETATM   12  H1  UNL     1      30.845  10.509  49.656  1.00  0.00     0.157 HD
HETATM   13  H2  UNL     1      29.649   9.959  50.974  1.00  0.00     0.157 HD
ENDBRANCH   6  11
ENDBRANCH   4   5
ENDBRANCH   3   4
ENDBRANCH   2   3
ENDBRANCH   1   2
BRANCH   1  14
HETATM   14  N4  UNL     1      24.337   6.865  51.681  1.00  0.00    -0.363 N 
HETATM   15  H7  UNL     1      25.010   7.082  52.438  1.00  0.00     0.161 HD
BRANCH  14  16
HETATM   16  C8  UNL     1      23.815   5.549  51.532  1.00  0.00     0.321 C 
HETATM   17  C9  UNL     1      23.322   4.851  52.787  1.00  0.00     0.092 C 
HETATM   18  C10 UNL     1      23.921   3.610  52.110  1.00  0.00     0.228 C 
HETATM   19  N6  UNL     1      24.873   4.522  51.499  1.00  0.00     0.111 N 
HETATM   20  H22 UNL     1      25.704   4.753  52.089  1.00  0.00     0.319 HD
BRANCH  18  21
HETATM   21  C11 UNL     1      24.489   2.641  53.119  1.00  0.00     0.066 C 
BRANCH  21  22
HETATM   22  C12 UNL     1      24.646   1.322  52.409  1.00  0.00     0.274 C 
BRANCH  22  23
HETATM   23  N5  UNL     1      25.726   0.512  52.827  1.00  0.00     0.088 N 
HETATM   24  C13 UNL     1      26.662   0.009  51.876  1.00  0.00     0.274 C 
HETATM   25  C14 UNL     1      26.936  -1.123  52.879  1.00  0.00     0.060 C 
HETATM   26  C15 UNL     1      25.490  -0.821  53.277  1.00  0.00     0.274 C 
ENDBRANCH  22  23
ENDBRANCH  21  22
ENDBRANCH  18  21
ENDBRANCH  14  16
ENDBRANCH   1  14
TORSDOF 10
ENDMDL
MODEL 9
REMARK VINA RESULT:      -5.7      2.322      2.791
REMARK  10 active torsions:
REMARK  status: ('A' for Active; 'I' for Inactive)
REMARK    1  A    between atoms: N1_1  and  C1_2 
REMARK    2  A    between atoms: C4_7  and  C5_8 
REMARK    3  A    between atoms: C5_8  and  S1_9 
REMARK    4  A    between atoms: S1_9  and  C6_10 
REMARK    5  A    between atoms: C6_10  and  C7_11 
REMARK    6  A    between atoms: C7_11  and  N4_12 
REMARK    7  A    between atoms: N4_12  and  C8_13 
REMARK    8  A    between atoms: C10_15  and  C11_16 
REMARK    9  A    between atoms: C11_16  and  C12_17 
REMARK   10  A    between atoms: C12_17  and  N5_18 
ROOT
HETATM    1  C7  UNL     1      24.369   3.509  51.513  1.00  0.00     0.149 C 
ENDROOT
BRANCH   1   2
HETATM    2  C6  UNL     1      24.713   2.483  52.269  1.00  0.00    -0.063 C 
BRANCH   2   3
HETATM    3  S1  UNL     1      25.347   1.292  53.190  1.00  0.00    -0.057 SA
BRANCH   3   4
HETATM    4  C5  UNL     1      26.960   1.078  52.880  1.00  0.00     0.075 C 
BRANCH   4   5
HETATM    5  C4  UNL     1      27.522  -0.256  52.965  1.00  0.00     0.034 A 
HETATM    6  C1  UNL     1      28.862  -0.206  53.320  1.00  0.00     0.134 A 
HETATM    7  N2  UNL     1      29.479  -1.425  53.426  1.00  0.00    -0.224 NA
HETATM    8  C2  UNL     1      28.744  -2.549  53.179  1.00  0.00     0.234 A 
HETATM    9  N3  UNL     1      27.428  -2.504  52.835  1.00  0.00    -0.253 NA
HETATM   10  C3  UNL     1      26.767  -1.348  52.715  1.00  0.00     0.133 A 
BRANCH   6  11
HETATM   11  N1  UNL     1      29.614   0.967  53.578  1.00  0.00    -0.383 N 
HETATM   12  H1  UNL     1      30.023   1.534  52.776  1.00  0.00     0.157 HD
HETATM   13  H2  UNL     1      29.749   1.250  54.595  1.00  0.00     0.157 HD
ENDBRANCH   6  11
ENDBRANCH   4   5
ENDBRANCH   3   4
ENDBRANCH   2   3
ENDBRANCH   1   2
BRANCH   1  14
HETATM   14  N4  UNL     1      23.500   4.495  51.994  1.00  0.00    -0.363 N 
HETATM   15  H7  UNL     1      22.866   4.260  52.779  1.00  0.00     0.161 HD
BRANCH  14  16
HETATM   16  C8  UNL     1      23.486   5.797  51.416  1.00  0.00     0.321 C 
HETATM   17  C9  UNL     1      24.161   5.965  50.067  1.00  0.00     0.092 C 
HETATM   18  C10 UNL     1      24.580   7.321  50.651  1.00  0.00     0.228 C 
HETATM   19  N6  UNL     1      24.558   6.660  51.945  1.00  0.00     0.111 N 
HETATM   20  H22 UNL     1      25.433   6.145  52.192  1.00  0.00     0.319 HD
BRANCH  18  21
HETATM   21  C11 UNL     1      25.939   7.749  50.152  1.00  0.00     0.066 C 
BRANCH  21  22
HETATM   22  C12 UNL     1      25.809   9.191  49.732  1.00  0.00     0.274 C 
BRANCH  22  23
HETATM   23  N5  UNL     1      27.001   9.835  49.330  1.00  0.00     0.088 N 
HETATM   24  C13 UNL     1      27.422   9.791  47.969  1.00  0.00     0.274 C 
HETATM   25  C14 UNL     1      28.848  10.016  48.497  1.00  0.00     0.060 C 
HETATM   26  C15 UNL     1      28.267   9.310  49.723  1.00  0.00     0.274 C 
ENDBRANCH  22  23
ENDBRANCH  21  22
ENDBRANCH  18  21
ENDBRANCH  14  16
ENDBRANCH   1  14
TORSDOF 10
ENDMDL
