MODEL 1
REMARK VINA RESULT:      -8.7      0.000      0.000
REMARK  3 active torsions:
REMARK  status: ('A' for Active; 'I' for Inactive)
REMARK    1  A    between atoms: N1_1  and  C1_2 
REMARK    2  A    between atoms: C7_11  and  N4_12 
REMARK    3  A    between atoms: N4_12  and  C8_13 
ROOT
HETATM    1  C1  UNL     1      20.365  -0.761  53.626  1.00  0.00     0.031 A 
HETATM    2  C2  UNL     1      21.396  -1.204  54.311  1.00  0.00     0.033 A 
HETATM    3  C3  UNL     1      22.830  -0.925  54.226  1.00  0.00     0.046 A 
HETATM    4  C4  UNL     1      23.272  -0.076  53.316  1.00  0.00     0.110 A 
HETATM    5  O1  UNL     1      24.644   0.136  53.298  1.00  0.00    -0.283 OA
HETATM    6  C5  UNL     1      25.282   1.063  52.485  1.00  0.00     0.202 A 
HETATM    7  N2  UNL     1      26.509   1.219  53.075  1.00  0.00    -0.215 NA
HETATM    8  C6  UNL     1      27.434   2.032  52.598  1.00  0.00     0.238 A 
HETATM    9  N3  UNL     1      27.155   2.728  51.497  1.00  0.00    -0.222 NA
HETATM   10  C7  UNL     1      25.972   2.612  50.884  1.00  0.00     0.160 A 
HETATM   11  C14 UNL     1      24.984   1.772  51.355  1.00  0.00     0.129 A 
HETATM   12  N5  UNL     1      23.818   1.789  50.556  1.00  0.00    -0.375 N 
HETATM   13  C15 UNL     1      22.397   1.842  50.951  1.00  0.00     0.195 C 
HETATM   14  S1  UNL     1      22.008   0.655  52.262  1.00  0.00    -0.119 SA
HETATM   15  C16 UNL     1      20.490   0.204  52.530  1.00  0.00     0.071 A 
HETATM   16  H11 UNL     1      24.084   1.753  49.523  1.00  0.00     0.160 HD
ENDROOT
BRANCH  10  17
HETATM   17  N4  UNL     1      25.728   3.381  49.714  1.00  0.00    -0.339 N 
HETATM   18  H6  UNL     1      25.054   3.133  48.967  1.00  0.00     0.167 HD
BRANCH  17  19
HETATM   19  C8  UNL     1      26.319   4.599  49.357  1.00  0.00     0.035 A 
HETATM   20  C9  UNL     1      27.537   4.747  48.676  1.00  0.00     0.029 A 
HETATM   21  C10 UNL     1      28.127   5.925  48.333  1.00  0.00     0.004 A 
HETATM   22  C11 UNL     1      27.520   7.097  48.659  1.00  0.00     0.019 A 
HETATM   23  C12 UNL     1      26.299   7.064  49.341  1.00  0.00     0.013 A 
HETATM   24 BR1  UNL     1      25.528   8.743  49.754  1.00  0.00    -0.051 Br
HETATM   25  C13 UNL     1      25.785   5.837  49.643  1.00  0.00     0.048 A 
ENDBRANCH  17  19
ENDBRANCH  10  17
BRANCH   1  26
HETATM   26  N1  UNL     1      18.995  -1.169  53.870  1.00  0.00    -0.399 N 
HETATM   27  H1  UNL     1      19.021  -1.727  54.776  1.00  0.00     0.156 HD
HETATM   28  H2  UNL     1      18.106  -0.992  53.318  1.00  0.00     0.156 HD
ENDBRANCH   1  26
TORSDOF 3
ENDMDL
MODEL 2
REMARK VINA RESULT:      -8.2      3.495      4.947
REMARK  3 active torsions:
REMARK  status: ('A' for Active; 'I' for Inactive)
REMARK    1  A    between atoms: N1_1  and  C1_2 
REMARK    2  A    between atoms: C7_11  and  N4_12 
REMARK    3  A    between atoms: N4_12  and  C8_13 
ROOT
HETATM    1  C1  UNL     1      18.778  -0.889  53.112  1.00  0.00     0.031 A 
HETATM    2  C2  UNL     1      18.494  -0.352  51.946  1.00  0.00     0.033 A 
HETATM    3  C3  UNL     1      19.251   0.529  51.055  1.00  0.00     0.046 A 
HETATM    4  C4  UNL     1      20.464   0.915  51.404  1.00  0.00     0.110 A 
HETATM    5  O1  UNL     1      21.118   1.750  50.507  1.00  0.00    -0.283 OA
HETATM    6  C5  UNL     1      22.431   2.178  50.650  1.00  0.00     0.202 A 
HETATM    7  N2  UNL     1      22.769   2.607  49.394  1.00  0.00    -0.215 NA
HETATM    8  C6  UNL     1      23.959   3.099  49.101  1.00  0.00     0.238 A 
HETATM    9  N3  UNL     1      24.865   3.178  50.074  1.00  0.00    -0.222 NA
HETATM   10  C7  UNL     1      24.585   2.772  51.318  1.00  0.00     0.160 A 
HETATM   11  C14 UNL     1      23.352   2.253  51.657  1.00  0.00     0.129 A 
HETATM   12  N5  UNL     1      23.260   1.897  53.022  1.00  0.00    -0.375 N 
HETATM   13  C15 UNL     1      22.686   0.691  53.651  1.00  0.00     0.195 C 
HETATM   14  S1  UNL     1      21.053   0.284  52.985  1.00  0.00    -0.119 SA
HETATM   15  C16 UNL     1      20.053  -0.671  53.802  1.00  0.00     0.071 A 
HETATM   16  H11 UNL     1      23.688   2.664  53.629  1.00  0.00     0.160 HD
ENDROOT
BRANCH  10  17
HETATM   17  N4  UNL     1      25.592   2.877  52.316  1.00  0.00    -0.339 N 
HETATM   18  H6  UNL     1      25.715   3.683  52.956  1.00  0.00     0.167 HD
BRANCH  17  19
HETATM   19  C8  UNL     1      26.573   1.933  52.637  1.00  0.00     0.035 A 
HETATM   20  C9  UNL     1      27.839   2.220  53.170  1.00  0.00     0.029 A 
HETATM   21  C10 UNL     1      28.806   1.311  53.477  1.00  0.00     0.004 A 
HETATM   22  C11 UNL     1      28.573  -0.011  53.264  1.00  0.00     0.019 A 
HETATM   23  C12 UNL     1      27.340  -0.408  52.735  1.00  0.00     0.013 A 
HETATM   24 BR1  UNL     1      27.106  -2.269  52.473  1.00  0.00    -0.051 Br
HETATM   25  C13 UNL     1      26.434   0.573  52.458  1.00  0.00     0.048 A 
ENDBRANCH  17  19
ENDBRANCH  10  17
BRANCH   1  26
HETATM   26  N1  UNL     1      17.874  -1.752  53.848  1.00  0.00    -0.399 N 
HETATM   27  H1  UNL     1      18.407  -2.662  53.994  1.00  0.00     0.156 HD
HETATM   28  H2  UNL     1      16.886  -1.588  54.200  1.00  0.00     0.156 HD
ENDBRANCH   1  26
TORSDOF 3
ENDMDL
MODEL 3
REMARK VINA RESULT:      -7.9      4.825      9.144
REMARK  3 active torsions:
REMARK  status: ('A' for Active; 'I' for Inactive)
REMARK    1  A    between atoms: N1_1  and  C1_2 
REMARK    2  A    between atoms: C7_11  and  N4_12 
REMARK    3  A    between atoms: N4_12  and  C8_13 
ROOT
HETATM    1  C1  UNL     1      26.784   0.018  54.196  1.00  0.00     0.031 A 
HETATM    2  C2  UNL     1      26.622   0.687  53.076  1.00  0.00     0.033 A 
HETATM    3  C3  UNL     1      25.440   0.980  52.264  1.00  0.00     0.046 A 
HETATM    4  C4  UNL     1      24.261   0.527  52.649  1.00  0.00     0.110 A 
HETATM    5  O1  UNL     1      23.189   0.846  51.827  1.00  0.00    -0.283 OA
HETATM    6  C5  UNL     1      21.864   0.546  52.116  1.00  0.00     0.202 A 
HETATM    7  N2  UNL     1      21.157   1.375  51.286  1.00  0.00    -0.215 NA
HETATM    8  C6  UNL     1      19.837   1.399  51.252  1.00  0.00     0.238 A 
HETATM    9  N3  UNL     1      19.171   0.579  52.064  1.00  0.00    -0.222 NA
HETATM   10  C7  UNL     1      19.815  -0.249  52.894  1.00  0.00     0.160 A 
HETATM   11  C14 UNL     1      21.192  -0.299  52.954  1.00  0.00     0.129 A 
HETATM   12  N5  UNL     1      21.670  -1.249  53.886  1.00  0.00    -0.375 N 
HETATM   13  C15 UNL     1      22.753  -1.138  54.883  1.00  0.00     0.195 C 
HETATM   14  S1  UNL     1      24.260  -0.425  54.178  1.00  0.00    -0.119 SA
HETATM   15  C16 UNL     1      25.677  -0.626  54.908  1.00  0.00     0.071 A 
HETATM   16  H11 UNL     1      21.119  -2.158  53.795  1.00  0.00     0.160 HD
ENDROOT
BRANCH  10  17
HETATM   17  N4  UNL     1      19.053  -1.100  53.740  1.00  0.00    -0.339 N 
HETATM   18  H6  UNL     1      19.238  -1.261  54.747  1.00  0.00     0.167 HD
BRANCH  17  19
HETATM   19  C8  UNL     1      17.923  -1.851  53.396  1.00  0.00     0.035 A 
HETATM   20  C9  UNL     1      17.694  -3.190  53.751  1.00  0.00     0.029 A 
HETATM   21  C10 UNL     1      16.604  -3.933  53.414  1.00  0.00     0.004 A 
HETATM   22  C11 UNL     1      15.618  -3.374  52.663  1.00  0.00     0.019 A 
HETATM   23  C12 UNL     1      15.747  -2.042  52.254  1.00  0.00     0.013 A 
HETATM   24 BR1  UNL     1      14.326  -1.349  51.213  1.00  0.00    -0.051 Br
HETATM   25  C13 UNL     1      16.873  -1.377  52.639  1.00  0.00     0.048 A 
ENDBRANCH  17  19
ENDBRANCH  10  17
BRANCH   1  26
HETATM   26  N1  UNL     1      28.064  -0.162  54.854  1.00  0.00    -0.399 N 
HETATM   27  H1  UNL     1      28.498  -1.022  54.402  1.00  0.00     0.156 HD
HETATM   28  H2  UNL     1      28.536   0.396  55.625  1.00  0.00     0.156 HD
ENDBRANCH   1  26
TORSDOF 3
ENDMDL
MODEL 4
REMARK VINA RESULT:      -7.9      3.099      7.528
REMARK  3 active torsions:
REMARK  status: ('A' for Active; 'I' for Inactive)
REMARK    1  A    between atoms: N1_1  and  C1_2 
REMARK    2  A    between atoms: C7_11  and  N4_12 
REMARK    3  A    between atoms: N4_12  and  C8_13 
ROOT
HETATM    1  C1  UNL     1      25.627   6.216  48.677  1.00  0.00     0.031 A 
HETATM    2  C2  UNL     1      26.724   5.500  48.568  1.00  0.00     0.033 A 
HETATM    3  C3  UNL     1      27.172   4.273  49.228  1.00  0.00     0.046 A 
HETATM    4  C4  UNL     1      26.391   3.697  50.123  1.00  0.00     0.110 A 
HETATM    5  O1  UNL     1      26.884   2.537  50.705  1.00  0.00    -0.283 OA
HETATM    6  C5  UNL     1      26.170   1.739  51.589  1.00  0.00     0.202 A 
HETATM    7  N2  UNL     1      26.850   0.550  51.572  1.00  0.00    -0.215 NA
HETATM    8  C6  UNL     1      26.486  -0.494  52.294  1.00  0.00     0.238 A 
HETATM    9  N3  UNL     1      25.408  -0.379  53.068  1.00  0.00    -0.222 NA
HETATM   10  C7  UNL     1      24.708   0.760  53.119  1.00  0.00     0.160 A 
HETATM   11  C14 UNL     1      25.063   1.868  52.379  1.00  0.00     0.129 A 
HETATM   12  N5  UNL     1      24.200   2.970  52.587  1.00  0.00    -0.375 N 
HETATM   13  C15 UNL     1      23.602   3.904  51.613  1.00  0.00     0.195 C 
HETATM   14  S1  UNL     1      24.820   4.524  50.426  1.00  0.00    -0.119 SA
HETATM   15  C16 UNL     1      24.533   5.864  49.588  1.00  0.00     0.071 A 
HETATM   16  H11 UNL     1      23.997   3.082  53.629  1.00  0.00     0.160 HD
ENDROOT
BRANCH  10  17
HETATM   17  N4  UNL     1      23.565   0.824  53.962  1.00  0.00    -0.339 N 
HETATM   18  H6  UNL     1      23.498   1.381  54.834  1.00  0.00     0.167 HD
BRANCH  17  19
HETATM   19  C8  UNL     1      22.334   0.184  53.776  1.00  0.00     0.035 A 
HETATM   20  C9  UNL     1      21.889  -0.947  54.476  1.00  0.00     0.029 A 
HETATM   21  C10 UNL     1      20.698  -1.584  54.298  1.00  0.00     0.004 A 
HETATM   22  C11 UNL     1      19.825  -1.121  53.365  1.00  0.00     0.019 A 
HETATM   23  C12 UNL     1      20.171   0.004  52.608  1.00  0.00     0.013 A 
HETATM   24 BR1  UNL     1      18.893   0.577  51.334  1.00  0.00    -0.051 Br
HETATM   25  C13 UNL     1      21.383   0.575  52.857  1.00  0.00     0.048 A 
ENDBRANCH  17  19
ENDBRANCH  10  17
BRANCH   1  26
HETATM   26  N1  UNL     1      25.369   7.425  47.920  1.00  0.00    -0.399 N 
HETATM   27  H1  UNL     1      25.637   8.228  48.566  1.00  0.00     0.156 HD
HETATM   28  H2  UNL     1      24.996   7.565  46.936  1.00  0.00     0.156 HD
ENDBRANCH   1  26
TORSDOF 3
ENDMDL
MODEL 5
REMARK VINA RESULT:      -7.8      3.996      5.603
REMARK  3 active torsions:
REMARK  status: ('A' for Active; 'I' for Inactive)
REMARK    1  A    between atoms: N1_1  and  C1_2 
REMARK    2  A    between atoms: C7_11  and  N4_12 
REMARK    3  A    between atoms: N4_12  and  C8_13 
ROOT
HETATM    1  C1  UNL     1      16.814  -1.614  52.669  1.00  0.00     0.031 A 
HETATM    2  C2  UNL     1      16.777  -0.793  51.642  1.00  0.00     0.033 A 
HETATM    3  C3  UNL     1      17.775   0.106  51.061  1.00  0.00     0.046 A 
HETATM    4  C4  UNL     1      18.977   0.178  51.604  1.00  0.00     0.110 A 
HETATM    5  O1  UNL     1      19.867   1.053  50.997  1.00  0.00    -0.283 OA
HETATM    6  C5  UNL     1      21.201   1.189  51.360  1.00  0.00     0.202 A 
HETATM    7  N2  UNL     1      21.767   1.812  50.279  1.00  0.00    -0.215 NA
HETATM    8  C6  UNL     1      23.048   2.128  50.225  1.00  0.00     0.238 A 
HETATM    9  N3  UNL     1      23.817   1.825  51.269  1.00  0.00    -0.222 NA
HETATM   10  C7  UNL     1      23.313   1.216  52.348  1.00  0.00     0.160 A 
HETATM   11  C14 UNL     1      21.979   0.873  52.437  1.00  0.00     0.129 A 
HETATM   12  N5  UNL     1      21.651   0.251  53.664  1.00  0.00    -0.375 N 
HETATM   13  C15 UNL     1      20.815  -0.936  53.932  1.00  0.00     0.195 C 
HETATM   14  S1  UNL     1      19.242  -0.880  53.038  1.00  0.00    -0.119 SA
HETATM   15  C16 UNL     1      18.004  -1.789  53.507  1.00  0.00     0.071 A 
HETATM   16  H11 UNL     1      22.109   0.775  54.473  1.00  0.00     0.160 HD
ENDROOT
BRANCH  10  17
HETATM   17  N4  UNL     1      24.181   0.915  53.433  1.00  0.00    -0.339 N 
HETATM   18  H6  UNL     1      23.932   0.995  54.436  1.00  0.00     0.167 HD
BRANCH  17  19
HETATM   19  C8  UNL     1      25.497   0.445  53.364  1.00  0.00     0.035 A 
HETATM   20  C9  UNL     1      25.890  -0.816  52.890  1.00  0.00     0.029 A 
HETATM   21  C10 UNL     1      27.166  -1.287  52.826  1.00  0.00     0.004 A 
HETATM   22  C11 UNL     1      28.191  -0.503  53.252  1.00  0.00     0.019 A 
HETATM   23  C12 UNL     1      27.910   0.776  53.746  1.00  0.00     0.013 A 
HETATM   24 BR1  UNL     1      29.400   1.796  54.315  1.00  0.00    -0.051 Br
HETATM   25  C13 UNL     1      26.602   1.162  53.771  1.00  0.00     0.048 A 
ENDBRANCH  17  19
ENDBRANCH  10  17
BRANCH   1  26
HETATM   26  N1  UNL     1      15.696  -2.434  53.090  1.00  0.00    -0.399 N 
HETATM   27  H1  UNL     1      15.457  -3.043  52.250  1.00  0.00     0.156 HD
HETATM   28  H2  UNL     1      15.173  -2.479  54.013  1.00  0.00     0.156 HD
ENDBRANCH   1  26
TORSDOF 3
ENDMDL
MODEL 6
REMARK VINA RESULT:      -7.8      2.144      3.265
REMARK  3 active torsions:
REMARK  status: ('A' for Active; 'I' for Inactive)
REMARK    1  A    between atoms: N1_1  and  C1_2 
REMARK    2  A    between atoms: C7_11  and  N4_12 
REMARK    3  A    between atoms: N4_12  and  C8_13 
ROOT
HETATM    1  C1  UNL     1      24.628  -0.898  54.993  1.00  0.00     0.031 A 
HETATM    2  C2  UNL     1      23.426  -0.708  54.496  1.00  0.00     0.033 A 
HETATM    3  C3  UNL     1      22.927   0.151  53.421  1.00  0.00     0.046 A 
HETATM    4  C4  UNL     1      23.772   0.922  52.763  1.00  0.00     0.110 A 
HETATM    5  O1  UNL     1      23.224   1.708  51.758  1.00  0.00    -0.283 OA
HETATM    6  C5  UNL     1      23.964   2.504  50.894  1.00  0.00     0.202 A 
HETATM    7  N2  UNL     1      23.101   2.748  49.860  1.00  0.00    -0.215 NA
HETATM    8  C6  UNL     1      23.427   3.483  48.812  1.00  0.00     0.238 A 
HETATM    9  N3  UNL     1      24.651   4.006  48.766  1.00  0.00    -0.222 NA
HETATM   10  C7  UNL     1      25.532   3.797  49.751  1.00  0.00     0.160 A 
HETATM   11  C14 UNL     1      25.223   3.035  50.858  1.00  0.00     0.129 A 
HETATM   12  N5  UNL     1      26.288   2.950  51.784  1.00  0.00    -0.375 N 
HETATM   13  C15 UNL     1      26.812   1.784  52.524  1.00  0.00     0.195 C 
HETATM   14  S1  UNL     1      25.491   0.813  53.291  1.00  0.00    -0.119 SA
HETATM   15  C16 UNL     1      25.816  -0.198  54.496  1.00  0.00     0.071 A 
HETATM   16  H11 UNL     1      26.731   3.912  51.920  1.00  0.00     0.160 HD
ENDROOT
BRANCH  10  17
HETATM   17  N4  UNL     1      26.826   4.378  49.647  1.00  0.00    -0.339 N 
HETATM   18  H6  UNL     1      27.670   4.046  50.149  1.00  0.00     0.167 HD
BRANCH  17  19
HETATM   19  C8  UNL     1      27.208   5.468  48.858  1.00  0.00     0.035 A 
HETATM   20  C9  UNL     1      28.476   5.659  48.289  1.00  0.00     0.029 A 
HETATM   21  C10 UNL     1      28.862   6.720  47.527  1.00  0.00     0.004 A 
HETATM   22  C11 UNL     1      27.974   7.715  47.265  1.00  0.00     0.019 A 
HETATM   23  C12 UNL     1      26.678   7.624  47.786  1.00  0.00     0.013 A 
HETATM   24 BR1  UNL     1      25.510   9.055  47.370  1.00  0.00    -0.051 Br
HETATM   25  C13 UNL     1      26.383   6.525  48.537  1.00  0.00     0.048 A 
ENDBRANCH  17  19
ENDBRANCH  10  17
BRANCH   1  26
HETATM   26  N1  UNL     1      24.920  -1.811  56.081  1.00  0.00    -0.399 N 
HETATM   27  H1  UNL     1      25.968  -1.991  56.027  1.00  0.00     0.156 HD
HETATM   28  H2  UNL     1      24.287  -2.250  56.811  1.00  0.00     0.156 HD
ENDBRANCH   1  26
TORSDOF 3
ENDMDL
MODEL 7
REMARK VINA RESULT:      -7.7      3.846      8.254
REMARK  3 active torsions:
REMARK  status: ('A' for Active; 'I' for Inactive)
REMARK    1  A    between atoms: N1_1  and  C1_2 
REMARK    2  A    between atoms: C7_11  and  N4_12 
REMARK    3  A    between atoms: N4_12  and  C8_13 
ROOT
HETATM    1  C1  UNL     1      28.889   6.546  48.084  1.00  0.00     0.031 A 
HETATM    2  C2  UNL     1      28.056   7.539  48.306  1.00  0.00     0.033 A 
HETATM    3  C3  UNL     1      26.694   7.584  48.839  1.00  0.00     0.046 A 
HETATM    4  C4  UNL     1      26.100   6.459  49.194  1.00  0.00     0.110 A 
HETATM    5  O1  UNL     1      24.809   6.583  49.690  1.00  0.00    -0.283 OA
HETATM    6  C5  UNL     1      24.064   5.531  50.206  1.00  0.00     0.202 A 
HETATM    7  N2  UNL     1      23.080   6.155  50.925  1.00  0.00    -0.215 NA
HETATM    8  C6  UNL     1      22.145   5.494  51.584  1.00  0.00     0.238 A 
HETATM    9  N3  UNL     1      22.168   4.163  51.543  1.00  0.00    -0.222 NA
HETATM   10  C7  UNL     1      23.108   3.506  50.856  1.00  0.00     0.160 A 
HETATM   11  C14 UNL     1      24.098   4.166  50.157  1.00  0.00     0.129 A 
HETATM   12  N5  UNL     1      24.983   3.287  49.490  1.00  0.00    -0.375 N 
HETATM   13  C15 UNL     1      26.455   3.317  49.392  1.00  0.00     0.195 C 
HETATM   14  S1  UNL     1      27.078   4.963  48.970  1.00  0.00    -0.119 SA
HETATM   15  C16 UNL     1      28.555   5.147  48.366  1.00  0.00     0.071 A 
HETATM   16  H11 UNL     1      24.431   2.513  49.006  1.00  0.00     0.160 HD
ENDROOT
BRANCH  10  17
HETATM   17  N4  UNL     1      23.085   2.084  50.849  1.00  0.00    -0.339 N 
HETATM   18  H6  UNL     1      22.796   1.496  50.046  1.00  0.00     0.167 HD
BRANCH  17  19
HETATM   19  C8  UNL     1      23.454   1.223  51.888  1.00  0.00     0.035 A 
HETATM   20  C9  UNL     1      24.761   1.025  52.359  1.00  0.00     0.029 A 
HETATM   21  C10 UNL     1      25.134   0.183  53.363  1.00  0.00     0.004 A 
HETATM   22  C11 UNL     1      24.189  -0.560  53.999  1.00  0.00     0.019 A 
HETATM   23  C12 UNL     1      22.851  -0.439  53.607  1.00  0.00     0.013 A 
HETATM   24 BR1  UNL     1      21.607  -1.510  54.549  1.00  0.00    -0.051 Br
HETATM   25  C13 UNL     1      22.574   0.429  52.593  1.00  0.00     0.048 A 
ENDBRANCH  17  19
ENDBRANCH  10  17
BRANCH   1  26
HETATM   26  N1  UNL     1      30.222   6.714  47.539  1.00  0.00    -0.399 N 
HETATM   27  H1  UNL     1      30.081   7.095  46.555  1.00  0.00     0.156 HD
HETATM   28  H2  UNL     1      31.177   6.522  47.962  1.00  0.00     0.156 HD
ENDBRANCH   1  26
TORSDOF 3
ENDMDL
MODEL 8
REMARK VINA RESULT:      -7.7      2.885      4.000
REMARK  3 active torsions:
REMARK  status: ('A' for Active; 'I' for Inactive)
REMARK    1  A    between atoms: N1_1  and  C1_2 
REMARK    2  A    between atoms: C7_11  and  N4_12 
REMARK    3  A    between atoms: N4_12  and  C8_13 
ROOT
HETATM    1  C1  UNL     1      21.880  -0.141  53.263  1.00  0.00     0.031 A 
HETATM    2  C2  UNL     1      20.720   0.415  52.994  1.00  0.00     0.033 A 
HETATM    3  C3  UNL     1      20.349   1.755  52.539  1.00  0.00     0.046 A 
HETATM    4  C4  UNL     1      21.295   2.653  52.328  1.00  0.00     0.110 A 
HETATM    5  O1  UNL     1      20.865   3.900  51.898  1.00  0.00    -0.283 OA
HETATM    6  C5  UNL     1      21.713   4.937  51.529  1.00  0.00     0.202 A 
HETATM    7  N2  UNL     1      20.904   5.776  50.811  1.00  0.00    -0.215 NA
HETATM    8  C6  UNL     1      21.337   6.903  50.274  1.00  0.00     0.238 A 
HETATM    9  N3  UNL     1      22.617   7.229  50.442  1.00  0.00    -0.222 NA
HETATM   10  C7  UNL     1      23.449   6.443  51.134  1.00  0.00     0.160 A 
HETATM   11  C14 UNL     1      23.029   5.261  51.708  1.00  0.00     0.129 A 
HETATM   12  N5  UNL     1      24.060   4.589  52.404  1.00  0.00    -0.375 N 
HETATM   13  C15 UNL     1      24.422   3.158  52.414  1.00  0.00     0.195 C 
HETATM   14  S1  UNL     1      22.978   2.090  52.639  1.00  0.00    -0.119 SA
HETATM   15  C16 UNL     1      23.154   0.573  53.137  1.00  0.00     0.071 A 
HETATM   16  H11 UNL     1      24.616   5.285  52.992  1.00  0.00     0.160 HD
ENDROOT
BRANCH  10  17
HETATM   17  N4  UNL     1      24.806   6.841  51.279  1.00  0.00    -0.339 N 
HETATM   18  H6  UNL     1      25.272   7.053  52.180  1.00  0.00     0.167 HD
BRANCH  17  19
HETATM   19  C8  UNL     1      25.758   7.001  50.266  1.00  0.00     0.035 A 
HETATM   20  C9  UNL     1      26.198   5.995  49.392  1.00  0.00     0.029 A 
HETATM   21  C10 UNL     1      27.130   6.136  48.410  1.00  0.00     0.004 A 
HETATM   22  C11 UNL     1      27.722   7.345  48.217  1.00  0.00     0.019 A 
HETATM   23  C12 UNL     1      27.356   8.420  49.036  1.00  0.00     0.013 A 
HETATM   24 BR1  UNL     1      28.231  10.063  48.695  1.00  0.00    -0.051 Br
HETATM   25  C13 UNL     1      26.414   8.183  49.993  1.00  0.00     0.048 A 
ENDBRANCH  17  19
ENDBRANCH  10  17
BRANCH   1  26
HETATM   26  N1  UNL     1      22.038  -1.511  53.712  1.00  0.00    -0.399 N 
HETATM   27  H1  UNL     1      21.050  -1.899  53.791  1.00  0.00     0.156 HD
HETATM   28  H2  UNL     1      22.909  -2.075  53.934  1.00  0.00     0.156 HD
ENDBRANCH   1  26
TORSDOF 3
ENDMDL
MODEL 9
REMARK VINA RESULT:      -7.6      2.670      4.120
REMARK  3 active torsions:
REMARK  status: ('A' for Active; 'I' for Inactive)
REMARK    1  A    between atoms: N1_1  and  C1_2 
REMARK    2  A    between atoms: C7_11  and  N4_12 
REMARK    3  A    between atoms: N4_12  and  C8_13 
ROOT
HETATM    1  C1  UNL     1      25.022  -0.174  53.757  1.00  0.00     0.031 A 
HETATM    2  C2  UNL     1      23.758   0.167  53.638  1.00  0.00     0.033 A 
HETATM    3  C3  UNL     1      23.085   1.203  52.854  1.00  0.00     0.046 A 
HETATM    4  C4  UNL     1      23.802   2.001  52.084  1.00  0.00     0.110 A 
HETATM    5  O1  UNL     1      23.093   2.958  51.372  1.00  0.00    -0.283 OA
HETATM    6  C5  UNL     1      23.657   3.818  50.439  1.00  0.00     0.202 A 
HETATM    7  N2  UNL     1      22.580   4.267  49.720  1.00  0.00    -0.215 NA
HETATM    8  C6  UNL     1      22.693   5.121  48.719  1.00  0.00     0.238 A 
HETATM    9  N3  UNL     1      23.909   5.560  48.399  1.00  0.00    -0.222 NA
HETATM   10  C7  UNL     1      24.993   5.152  49.069  1.00  0.00     0.160 A 
HETATM   11  C14 UNL     1      24.910   4.261  50.120  1.00  0.00     0.129 A 
HETATM   12  N5  UNL     1      26.167   3.972  50.698  1.00  0.00    -0.375 N 
HETATM   13  C15 UNL     1      26.743   2.679  51.119  1.00  0.00     0.195 C 
HETATM   14  S1  UNL     1      25.578   1.700  52.100  1.00  0.00    -0.119 SA
HETATM   15  C16 UNL     1      26.103   0.507  53.038  1.00  0.00     0.071 A 
HETATM   16  H11 UNL     1      26.728   4.871  50.820  1.00  0.00     0.160 HD
ENDROOT
BRANCH  10  17
HETATM   17  N4  UNL     1      26.266   5.652  48.682  1.00  0.00    -0.339 N 
HETATM   18  H6  UNL     1      26.939   5.157  48.068  1.00  0.00     0.167 HD
BRANCH  17  19
HETATM   19  C8  UNL     1      26.838   6.881  49.028  1.00  0.00     0.035 A 
HETATM   20  C9  UNL     1      26.299   7.805  49.936  1.00  0.00     0.029 A 
HETATM   21  C10 UNL     1      26.842   9.008  50.274  1.00  0.00     0.004 A 
HETATM   22  C11 UNL     1      28.013   9.397  49.704  1.00  0.00     0.019 A 
HETATM   23  C12 UNL     1      28.637   8.549  48.783  1.00  0.00     0.013 A 
HETATM   24 BR1  UNL     1      30.264   9.173  48.043  1.00  0.00    -0.051 Br
HETATM   25  C13 UNL     1      28.020   7.364  48.508  1.00  0.00     0.048 A 
ENDBRANCH  17  19
ENDBRANCH  10  17
BRANCH   1  26
HETATM   26  N1  UNL     1      25.494  -1.253  54.604  1.00  0.00    -0.399 N 
HETATM   27  H1  UNL     1      25.594  -0.828  55.575  1.00  0.00     0.156 HD
HETATM   28  H2  UNL     1      25.716  -2.267  54.382  1.00  0.00     0.156 HD
ENDBRANCH   1  26
TORSDOF 3
ENDMDL
