MODEL 1
REMARK VINA RESULT:      -8.7      0.000      0.000
REMARK  3 active torsions:
REMARK  status: ('A' for Active; 'I' for Inactive)
REMARK    1  A    between atoms: C2_2  and  C3_3 
REMARK    2  A    between atoms: C3_3  and  C4_4 
REMARK    3  A    between atoms: C4_4  and  C5_5 
ROOT
HETATM    1  C5  UNL     1      21.468   0.682  52.908  1.00  0.00    -0.054 C 
HETATM    2  C6  UNL     1      22.758   0.790  53.143  1.00  0.00    -0.026 C 
HETATM    3  C7  UNL     1      23.533   2.038  52.825  1.00  0.00     0.068 C 
HETATM    4  C8  UNL     1      24.423   1.765  51.663  1.00  0.00    -0.022 C 
HETATM    5  C9  UNL     1      25.717   1.777  51.772  1.00  0.00    -0.006 C 
HETATM    6  C10 UNL     1      26.424   2.050  52.985  1.00  0.00     0.002 C 
HETATM    7  C11 UNL     1      27.510   2.172  53.694  1.00  0.00     0.082 C 
HETATM    8  C12 UNL     1      28.910   2.208  54.172  1.00  0.00     0.119 C 
HETATM    9  S1  UNL     1      29.445   0.600  53.447  1.00  0.00    -0.096 SA
HETATM   10  C13 UNL     1      27.830   0.180  52.735  1.00  0.00     0.060 A 
HETATM   11  N1  UNL     1      28.191   1.460  52.660  1.00  0.00    -0.208 NA
HETATM   12  C14 UNL     1      27.119  -1.086  52.628  1.00  0.00     0.165 C 
HETATM   13  C15 UNL     1      28.014  -2.192  53.065  1.00  0.00     0.072 C 
HETATM   14  N2  UNL     1      28.707  -3.057  53.405  1.00  0.00    -0.196 NA
HETATM   15  C16 UNL     1      25.840  -1.278  53.363  1.00  0.00     0.174 C 
HETATM   16  N3  UNL     1      24.768  -0.418  53.054  1.00  0.00    -0.292 NA
HETATM   17  C17 UNL     1      23.742  -0.198  53.728  1.00  0.00     0.037 C 
HETATM   18  C18 UNL     1      23.372  -0.809  55.053  1.00  0.00     0.078 C 
HETATM   19  C19 UNL     1      21.996  -1.418  55.003  1.00  0.00     0.120 C 
HETATM   20  N4  UNL     1      21.471  -1.584  53.670  1.00  0.00    -0.417 N 
HETATM   21  C20 UNL     1      20.645  -0.521  53.199  1.00  0.00     0.149 C 
HETATM   22  H22 UNL     1      22.132  -1.968  52.983  1.00  0.00     0.153 HD
ENDROOT
BRANCH   1  23
HETATM   23  C4  UNL     1      20.724   1.757  52.328  1.00  0.00     0.040 C 
BRANCH  23  24
HETATM   24  C3  UNL     1      20.070   1.289  51.020  1.00  0.00     0.030 C 
BRANCH  24  25
HETATM   25  C2  UNL     1      20.943   1.793  49.906  1.00  0.00    -0.037 C 
HETATM   26  C1  UNL     1      21.500   0.956  49.045  1.00  0.00     0.007 C 
ENDBRANCH  24  25
ENDBRANCH  23  24
ENDBRANCH   1  23
TORSDOF 3
ENDMDL
MODEL 2
REMARK VINA RESULT:      -8.7      3.401      5.537
REMARK  3 active torsions:
REMARK  status: ('A' for Active; 'I' for Inactive)
REMARK    1  A    between atoms: C2_2  and  C3_3 
REMARK    2  A    between atoms: C3_3  and  C4_4 
REMARK    3  A    between atoms: C4_4  and  C5_5 
ROOT
HETATM    1  C5  UNL     1      24.528  -0.168  52.978  1.00  0.00    -0.054 C 
HETATM    2  C6  UNL     1      24.615   1.071  52.543  1.00  0.00    -0.026 C 
HETATM    3  C7  UNL     1      23.404   1.931  52.311  1.00  0.00     0.068 C 
HETATM    4  C8  UNL     1      23.219   2.112  50.845  1.00  0.00    -0.022 C 
HETATM    5  C9  UNL     1      23.340   3.273  50.276  1.00  0.00    -0.006 C 
HETATM    6  C10 UNL     1      23.653   4.484  50.970  1.00  0.00     0.002 C 
HETATM    7  C11 UNL     1      23.914   5.759  51.019  1.00  0.00     0.082 C 
HETATM    8  C12 UNL     1      24.176   7.179  50.697  1.00  0.00     0.119 C 
HETATM    9  S1  UNL     1      25.360   6.890  49.313  1.00  0.00    -0.096 SA
HETATM   10  C13 UNL     1      25.331   5.080  49.432  1.00  0.00     0.060 A 
HETATM   11  N1  UNL     1      24.166   5.700  49.614  1.00  0.00    -0.208 NA
HETATM   12  C14 UNL     1      26.384   4.083  49.288  1.00  0.00     0.165 C 
HETATM   13  C15 UNL     1      27.628   4.747  48.810  1.00  0.00     0.072 C 
HETATM   14  N2  UNL     1      28.599   5.258  48.438  1.00  0.00    -0.196 NA
HETATM   15  C16 UNL     1      26.782   3.257  50.458  1.00  0.00     0.174 C 
HETATM   16  N3  UNL     1      25.803   2.433  51.046  1.00  0.00    -0.292 NA
HETATM   17  C17 UNL     1      25.821   1.907  52.177  1.00  0.00     0.037 C 
HETATM   18  C18 UNL     1      26.908   2.007  53.213  1.00  0.00     0.078 C 
HETATM   19  C19 UNL     1      27.345   0.642  53.673  1.00  0.00     0.120 C 
HETATM   20  N4  UNL     1      26.898  -0.438  52.827  1.00  0.00    -0.417 N 
HETATM   21  C20 UNL     1      25.683  -1.068  53.228  1.00  0.00     0.149 C 
HETATM   22  H22 UNL     1      26.998  -0.276  51.817  1.00  0.00     0.153 HD
ENDROOT
BRANCH   1  23
HETATM   23  C4  UNL     1      23.261  -0.772  53.255  1.00  0.00     0.040 C 
BRANCH  23  24
HETATM   24  C3  UNL     1      23.059  -0.880  54.773  1.00  0.00     0.030 C 
BRANCH  24  25
HETATM   25  C2  UNL     1      21.588  -0.701  55.019  1.00  0.00    -0.037 C 
HETATM   26  C1  UNL     1      20.900   0.232  54.380  1.00  0.00     0.007 C 
ENDBRANCH  24  25
ENDBRANCH  23  24
ENDBRANCH   1  23
TORSDOF 3
ENDMDL
MODEL 3
REMARK VINA RESULT:      -8.2      3.326      5.673
REMARK  3 active torsions:
REMARK  status: ('A' for Active; 'I' for Inactive)
REMARK    1  A    between atoms: C2_2  and  C3_3 
REMARK    2  A    between atoms: C3_3  and  C4_4 
REMARK    3  A    between atoms: C4_4  and  C5_5 
ROOT
HETATM    1  C5  UNL     1      25.487   4.351  49.796  1.00  0.00    -0.054 C 
HETATM    2  C6  UNL     1      25.457   3.556  50.844  1.00  0.00    -0.026 C 
HETATM    3  C7  UNL     1      26.670   2.811  51.325  1.00  0.00     0.068 C 
HETATM    4  C8  UNL     1      26.492   1.363  51.028  1.00  0.00    -0.022 C 
HETATM    5  C9  UNL     1      26.384   0.477  51.972  1.00  0.00    -0.006 C 
HETATM    6  C10 UNL     1      26.427   0.776  53.370  1.00  0.00     0.002 C 
HETATM    7  C11 UNL     1      26.360   0.451  54.629  1.00  0.00     0.082 C 
HETATM    8  C12 UNL     1      26.216  -0.265  55.916  1.00  0.00     0.119 C 
HETATM    9  S1  UNL     1      24.687  -1.203  55.491  1.00  0.00    -0.096 SA
HETATM   10  C13 UNL     1      24.503  -0.497  53.830  1.00  0.00     0.060 A 
HETATM   11  N1  UNL     1      25.747  -0.772  54.218  1.00  0.00    -0.208 NA
HETATM   12  C14 UNL     1      23.325  -0.085  53.079  1.00  0.00     0.165 C 
HETATM   13  C15 UNL     1      22.100  -0.493  53.820  1.00  0.00     0.072 C 
HETATM   14  N2  UNL     1      21.143  -0.809  54.392  1.00  0.00    -0.196 NA
HETATM   15  C16 UNL     1      23.137   1.349  52.732  1.00  0.00     0.174 C 
HETATM   16  N3  UNL     1      24.115   1.965  51.928  1.00  0.00    -0.292 NA
HETATM   17  C17 UNL     1      24.321   3.185  51.771  1.00  0.00     0.037 C 
HETATM   18  C18 UNL     1      23.563   4.327  52.392  1.00  0.00     0.078 C 
HETATM   19  C19 UNL     1      23.080   5.293  51.344  1.00  0.00     0.120 C 
HETATM   20  N4  UNL     1      23.145   4.783  49.996  1.00  0.00    -0.417 N 
HETATM   21  C20 UNL     1      24.326   5.116  49.271  1.00  0.00     0.149 C 
HETATM   22  H22 UNL     1      22.809   3.819  49.875  1.00  0.00     0.153 HD
ENDROOT
BRANCH   1  23
HETATM   23  C4  UNL     1      26.689   4.550  49.047  1.00  0.00     0.040 C 
BRANCH  23  24
HETATM   24  C3  UNL     1      26.770   6.009  48.574  1.00  0.00     0.030 C 
BRANCH  24  25
HETATM   25  C2  UNL     1      28.220   6.282  48.288  1.00  0.00    -0.037 C 
HETATM   26  C1  UNL     1      29.106   5.299  48.261  1.00  0.00     0.007 C 
ENDBRANCH  24  25
ENDBRANCH  23  24
ENDBRANCH   1  23
TORSDOF 3
ENDMDL
MODEL 4
REMARK VINA RESULT:      -7.8      3.130      6.439
REMARK  3 active torsions:
REMARK  status: ('A' for Active; 'I' for Inactive)
REMARK    1  A    between atoms: C2_2  and  C3_3 
REMARK    2  A    between atoms: C3_3  and  C4_4 
REMARK    3  A    between atoms: C4_4  and  C5_5 
ROOT
HETATM    1  C5  UNL     1      24.732  -0.514  54.130  1.00  0.00    -0.054 C 
HETATM    2  C6  UNL     1      24.086   0.091  53.156  1.00  0.00    -0.026 C 
HETATM    3  C7  UNL     1      24.795   0.749  52.006  1.00  0.00     0.068 C 
HETATM    4  C8  UNL     1      24.662   2.225  52.143  1.00  0.00    -0.022 C 
HETATM    5  C9  UNL     1      23.996   2.937  51.284  1.00  0.00    -0.006 C 
HETATM    6  C10 UNL     1      23.333   2.404  50.134  1.00  0.00     0.002 C 
HETATM    7  C11 UNL     1      22.591   2.510  49.069  1.00  0.00     0.082 C 
HETATM    8  C12 UNL     1      21.732   2.995  47.966  1.00  0.00     0.119 C 
HETATM    9  S1  UNL     1      20.567   3.984  48.997  1.00  0.00    -0.096 SA
HETATM   10  C13 UNL     1      21.341   3.571  50.585  1.00  0.00     0.060 A 
HETATM   11  N1  UNL     1      22.169   3.781  49.563  1.00  0.00    -0.208 NA
HETATM   12  C14 UNL     1      20.771   3.287  51.895  1.00  0.00     0.165 C 
HETATM   13  C15 UNL     1      19.307   3.557  51.864  1.00  0.00     0.072 C 
HETATM   14  N2  UNL     1      18.167   3.765  51.846  1.00  0.00    -0.196 NA
HETATM   15  C16 UNL     1      20.927   1.933  52.489  1.00  0.00     0.174 C 
HETATM   16  N3  UNL     1      22.234   1.467  52.732  1.00  0.00    -0.292 NA
HETATM   17  C17 UNL     1      22.605   0.293  52.928  1.00  0.00     0.037 C 
HETATM   18  C18 UNL     1      21.746  -0.942  52.971  1.00  0.00     0.078 C 
HETATM   19  C19 UNL     1      21.973  -1.718  54.241  1.00  0.00     0.120 C 
HETATM   20  N4  UNL     1      22.681  -0.984  55.262  1.00  0.00    -0.417 N 
HETATM   21  C20 UNL     1      24.092  -1.183  55.292  1.00  0.00     0.149 C 
HETATM   22  H22 UNL     1      22.367  -0.016  55.404  1.00  0.00     0.153 HD
ENDROOT
BRANCH   1  23
HETATM   23  C4  UNL     1      26.161  -0.576  54.149  1.00  0.00     0.040 C 
BRANCH  23  24
HETATM   24  C3  UNL     1      26.724   0.641  54.896  1.00  0.00     0.030 C 
BRANCH  24  25
HETATM   25  C2  UNL     1      27.988   1.028  54.184  1.00  0.00    -0.037 C 
HETATM   26  C1  UNL     1      28.077   2.173  53.525  1.00  0.00     0.007 C 
ENDBRANCH  24  25
ENDBRANCH  23  24
ENDBRANCH   1  23
TORSDOF 3
ENDMDL
MODEL 5
REMARK VINA RESULT:      -7.6      3.694      6.072
REMARK  3 active torsions:
REMARK  status: ('A' for Active; 'I' for Inactive)
REMARK    1  A    between atoms: C2_2  and  C3_3 
REMARK    2  A    between atoms: C3_3  and  C4_4 
REMARK    3  A    between atoms: C4_4  and  C5_5 
ROOT
HETATM    1  C5  UNL     1      21.287  -0.164  52.809  1.00  0.00    -0.054 C 
HETATM    2  C6  UNL     1      21.889   0.812  52.164  1.00  0.00    -0.026 C 
HETATM    3  C7  UNL     1      23.386   0.934  52.103  1.00  0.00     0.068 C 
HETATM    4  C8  UNL     1      23.806   2.093  52.938  1.00  0.00    -0.022 C 
HETATM    5  C9  UNL     1      24.356   3.149  52.419  1.00  0.00    -0.006 C 
HETATM    6  C10 UNL     1      24.620   3.320  51.024  1.00  0.00     0.002 C 
HETATM    7  C11 UNL     1      25.035   4.005  49.997  1.00  0.00     0.082 C 
HETATM    8  C12 UNL     1      25.566   5.050  49.094  1.00  0.00     0.119 C 
HETATM    9  S1  UNL     1      24.570   6.454  49.752  1.00  0.00    -0.096 SA
HETATM   10  C13 UNL     1      23.665   5.470  50.978  1.00  0.00     0.060 A 
HETATM   11  N1  UNL     1      24.953   5.171  50.817  1.00  0.00    -0.208 NA
HETATM   12  C14 UNL     1      22.279   5.513  51.422  1.00  0.00     0.165 C 
HETATM   13  C15 UNL     1      21.606   6.698  50.822  1.00  0.00     0.072 C 
HETATM   14  N2  UNL     1      21.077   7.619  50.359  1.00  0.00    -0.196 NA
HETATM   15  C16 UNL     1      21.384   4.355  51.156  1.00  0.00     0.174 C 
HETATM   16  N3  UNL     1      21.736   3.110  51.713  1.00  0.00    -0.292 NA
HETATM   17  C17 UNL     1      21.323   1.979  51.386  1.00  0.00     0.037 C 
HETATM   18  C18 UNL     1      20.324   1.647  50.312  1.00  0.00     0.078 C 
HETATM   19  C19 UNL     1      19.206   0.797  50.854  1.00  0.00     0.120 C 
HETATM   20  N4  UNL     1      19.142   0.755  52.295  1.00  0.00    -0.417 N 
HETATM   21  C20 UNL     1      19.815  -0.342  52.907  1.00  0.00     0.149 C 
HETATM   22  H22 UNL     1      19.255   1.662  52.766  1.00  0.00     0.153 HD
ENDROOT
BRANCH   1  23
HETATM   23  C4  UNL     1      22.032  -1.173  53.497  1.00  0.00     0.040 C 
BRANCH  23  24
HETATM   24  C3  UNL     1      22.059  -0.863  55.001  1.00  0.00     0.030 C 
BRANCH  24  25
HETATM   25  C2  UNL     1      23.327  -1.465  55.534  1.00  0.00    -0.037 C 
HETATM   26  C1  UNL     1      24.511  -1.006  55.159  1.00  0.00     0.007 C 
ENDBRANCH  24  25
ENDBRANCH  23  24
ENDBRANCH   1  23
TORSDOF 3
ENDMDL
MODEL 6
REMARK VINA RESULT:      -7.2      3.781      7.674
REMARK  3 active torsions:
REMARK  status: ('A' for Active; 'I' for Inactive)
REMARK    1  A    between atoms: C2_2  and  C3_3 
REMARK    2  A    between atoms: C3_3  and  C4_4 
REMARK    3  A    between atoms: C4_4  and  C5_5 
ROOT
HETATM    1  C5  UNL     1      25.721   2.301  51.755  1.00  0.00    -0.054 C 
HETATM    2  C6  UNL     1      24.432   2.501  51.578  1.00  0.00    -0.026 C 
HETATM    3  C7  UNL     1      23.397   1.972  52.530  1.00  0.00     0.068 C 
HETATM    4  C8  UNL     1      22.660   0.861  51.868  1.00  0.00    -0.022 C 
HETATM    5  C9  UNL     1      21.397   0.951  51.578  1.00  0.00    -0.006 C 
HETATM    6  C10 UNL     1      20.584   2.095  51.856  1.00  0.00     0.002 C 
HETATM    7  C11 UNL     1      19.466   2.761  51.817  1.00  0.00     0.082 C 
HETATM    8  C12 UNL     1      18.075   3.210  51.582  1.00  0.00     0.119 C 
HETATM    9  S1  UNL     1      17.981   2.755  49.798  1.00  0.00    -0.096 SA
HETATM   10  C13 UNL     1      19.685   2.141  49.682  1.00  0.00     0.060 A 
HETATM   11  N1  UNL     1      19.030   1.851  50.806  1.00  0.00    -0.208 NA
HETATM   12  C14 UNL     1      20.684   2.254  48.629  1.00  0.00     0.165 C 
HETATM   13  C15 UNL     1      20.060   2.858  47.420  1.00  0.00     0.072 C 
HETATM   14  N2  UNL     1      19.580   3.328  46.476  1.00  0.00    -0.196 NA
HETATM   15  C16 UNL     1      21.932   3.024  48.877  1.00  0.00     0.174 C 
HETATM   16  N3  UNL     1      22.779   2.589  49.914  1.00  0.00    -0.292 NA
HETATM   17  C17 UNL     1      23.686   3.230  50.483  1.00  0.00     0.037 C 
HETATM   18  C18 UNL     1      24.124   4.641  50.199  1.00  0.00     0.078 C 
HETATM   19  C19 UNL     1      25.607   4.709  49.948  1.00  0.00     0.120 C 
HETATM   20  N4  UNL     1      26.224   3.428  49.708  1.00  0.00    -0.417 N 
HETATM   21  C20 UNL     1      26.793   2.797  50.853  1.00  0.00     0.149 C 
HETATM   22  H22 UNL     1      25.712   2.806  49.070  1.00  0.00     0.153 HD
ENDROOT
BRANCH   1  23
HETATM   23  C4  UNL     1      26.212   1.560  52.875  1.00  0.00     0.040 C 
BRANCH  23  24
HETATM   24  C3  UNL     1      26.806   0.228  52.395  1.00  0.00     0.030 C 
BRANCH  24  25
HETATM   25  C2  UNL     1      25.981  -0.856  53.028  1.00  0.00    -0.037 C 
HETATM   26  C1  UNL     1      25.377  -0.662  54.189  1.00  0.00     0.007 C 
ENDBRANCH  24  25
ENDBRANCH  23  24
ENDBRANCH   1  23
TORSDOF 3
ENDMDL
MODEL 7
REMARK VINA RESULT:      -7.0      8.539     11.038
REMARK  3 active torsions:
REMARK  status: ('A' for Active; 'I' for Inactive)
REMARK    1  A    between atoms: C2_2  and  C3_3 
REMARK    2  A    between atoms: C3_3  and  C4_4 
REMARK    3  A    between atoms: C4_4  and  C5_5 
ROOT
HETATM    1  C5  UNL     1      28.685   8.774  48.626  1.00  0.00    -0.054 C 
HETATM    2  C6  UNL     1      29.668   8.071  48.106  1.00  0.00    -0.026 C 
HETATM    3  C7  UNL     1      29.428   6.834  47.286  1.00  0.00     0.068 C 
HETATM    4  C8  UNL     1      29.856   5.647  48.075  1.00  0.00    -0.022 C 
HETATM    5  C9  UNL     1      30.855   4.901  47.708  1.00  0.00    -0.006 C 
HETATM    6  C10 UNL     1      31.638   5.123  46.531  1.00  0.00     0.002 C 
HETATM    7  C11 UNL     1      32.620   4.847  45.722  1.00  0.00     0.082 C 
HETATM    8  C12 UNL     1      33.809   4.263  45.061  1.00  0.00     0.119 C 
HETATM    9  S1  UNL     1      34.882   4.165  46.556  1.00  0.00    -0.096 SA
HETATM   10  C13 UNL     1      33.673   4.900  47.691  1.00  0.00     0.060 A 
HETATM   11  N1  UNL     1      33.187   4.065  46.774  1.00  0.00    -0.208 NA
HETATM   12  C14 UNL     1      33.828   5.831  48.801  1.00  0.00     0.165 C 
HETATM   13  C15 UNL     1      35.277   6.037  49.072  1.00  0.00     0.072 C 
HETATM   14  N2  UNL     1      36.404   6.202  49.288  1.00  0.00    -0.196 NA
HETATM   15  C16 UNL     1      33.228   7.189  48.712  1.00  0.00     0.174 C 
HETATM   16  N3  UNL     1      31.831   7.284  48.563  1.00  0.00    -0.292 NA
HETATM   17  C17 UNL     1      31.166   8.265  48.174  1.00  0.00     0.037 C 
HETATM   18  C18 UNL     1      31.686   9.620  47.773  1.00  0.00     0.078 C 
HETATM   19  C19 UNL     1      30.987  10.715  48.532  1.00  0.00     0.120 C 
HETATM   20  N4  UNL     1      30.238  10.256  49.676  1.00  0.00    -0.417 N 
HETATM   21  C20 UNL     1      28.855  10.004  49.442  1.00  0.00     0.149 C 
HETATM   22  H22 UNL     1      30.719   9.567  50.268  1.00  0.00     0.153 HD
ENDROOT
BRANCH   1  23
HETATM   23  C4  UNL     1      27.319   8.394  48.440  1.00  0.00     0.040 C 
BRANCH  23  24
HETATM   24  C3  UNL     1      26.636   8.230  49.805  1.00  0.00     0.030 C 
BRANCH  24  25
HETATM   25  C2  UNL     1      26.041   6.851  49.818  1.00  0.00    -0.037 C 
HETATM   26  C1  UNL     1      26.084   6.080  48.743  1.00  0.00     0.007 C 
ENDBRANCH  24  25
ENDBRANCH  23  24
ENDBRANCH   1  23
TORSDOF 3
ENDMDL
MODEL 8
REMARK VINA RESULT:      -6.8      4.400      7.669
REMARK  3 active torsions:
REMARK  status: ('A' for Active; 'I' for Inactive)
REMARK    1  A    between atoms: C2_2  and  C3_3 
REMARK    2  A    between atoms: C3_3  and  C4_4 
REMARK    3  A    between atoms: C4_4  and  C5_5 
ROOT
HETATM    1  C5  UNL     1      23.352   1.097  52.458  1.00  0.00    -0.054 C 
HETATM    2  C6  UNL     1      22.578   1.741  51.610  1.00  0.00    -0.026 C 
HETATM    3  C7  UNL     1      21.373   1.105  50.975  1.00  0.00     0.068 C 
HETATM    4  C8  UNL     1      21.662   0.867  49.534  1.00  0.00    -0.022 C 
HETATM    5  C9  UNL     1      21.014   1.486  48.594  1.00  0.00    -0.006 C 
HETATM    6  C10 UNL     1      19.973   2.440  48.822  1.00  0.00     0.002 C 
HETATM    7  C11 UNL     1      19.086   3.307  48.425  1.00  0.00     0.082 C 
HETATM    8  C12 UNL     1      18.218   4.205  47.632  1.00  0.00     0.119 C 
HETATM    9  S1  UNL     1      19.538   4.916  46.559  1.00  0.00    -0.096 SA
HETATM   10  C13 UNL     1      20.903   4.001  47.327  1.00  0.00     0.060 A 
HETATM   11  N1  UNL     1      19.762   3.332  47.167  1.00  0.00    -0.208 NA
HETATM   12  C14 UNL     1      22.269   4.389  47.649  1.00  0.00     0.165 C 
HETATM   13  C15 UNL     1      22.547   5.733  47.074  1.00  0.00     0.072 C 
HETATM   14  N2  UNL     1      22.770   6.780  46.628  1.00  0.00    -0.196 NA
HETATM   15  C16 UNL     1      22.701   4.453  49.071  1.00  0.00     0.174 C 
HETATM   16  N3  UNL     1      22.644   3.268  49.830  1.00  0.00    -0.292 NA
HETATM   17  C17 UNL     1      22.662   3.152  51.072  1.00  0.00     0.037 C 
HETATM   18  C18 UNL     1      22.763   4.254  52.091  1.00  0.00     0.078 C 
HETATM   19  C19 UNL     1      23.893   4.000  53.054  1.00  0.00     0.120 C 
HETATM   20  N4  UNL     1      24.816   2.978  52.625  1.00  0.00    -0.417 N 
HETATM   21  C20 UNL     1      24.553   1.668  53.120  1.00  0.00     0.149 C 
HETATM   22  H22 UNL     1      25.100   3.030  51.638  1.00  0.00     0.153 HD
ENDROOT
BRANCH   1  23
HETATM   23  C4  UNL     1      23.087  -0.260  52.824  1.00  0.00     0.040 C 
BRANCH  23  24
HETATM   24  C3  UNL     1      23.669  -0.545  54.215  1.00  0.00     0.030 C 
BRANCH  24  25
HETATM   25  C2  UNL     1      22.589  -1.242  54.992  1.00  0.00    -0.037 C 
HETATM   26  C1  UNL     1      21.347  -1.294  54.536  1.00  0.00     0.007 C 
ENDBRANCH  24  25
ENDBRANCH  23  24
ENDBRANCH   1  23
TORSDOF 3
ENDMDL
MODEL 9
REMARK VINA RESULT:      -6.8      4.071      7.429
REMARK  3 active torsions:
REMARK  status: ('A' for Active; 'I' for Inactive)
REMARK    1  A    between atoms: C2_2  and  C3_3 
REMARK    2  A    between atoms: C3_3  and  C4_4 
REMARK    3  A    between atoms: C4_4  and  C5_5 
ROOT
HETATM    1  C5  UNL     1      24.788   1.441  52.416  1.00  0.00    -0.054 C 
HETATM    2  C6  UNL     1      23.891   2.128  51.742  1.00  0.00    -0.026 C 
HETATM    3  C7  UNL     1      22.480   2.304  52.227  1.00  0.00     0.068 C 
HETATM    4  C8  UNL     1      21.573   1.501  51.361  1.00  0.00    -0.022 C 
HETATM    5  C9  UNL     1      20.683   2.058  50.597  1.00  0.00    -0.006 C 
HETATM    6  C10 UNL     1      20.470   3.470  50.500  1.00  0.00     0.002 C 
HETATM    7  C11 UNL     1      19.887   4.524  50.005  1.00  0.00     0.082 C 
HETATM    8  C12 UNL     1      19.045   5.463  49.231  1.00  0.00     0.119 C 
HETATM    9  S1  UNL     1      19.346   4.728  47.567  1.00  0.00    -0.096 SA
HETATM   10  C13 UNL     1      20.482   3.437  48.147  1.00  0.00     0.060 A 
HETATM   11  N1  UNL     1      19.437   3.697  48.931  1.00  0.00    -0.208 NA
HETATM   12  C14 UNL     1      21.700   2.889  47.568  1.00  0.00     0.165 C 
HETATM   13  C15 UNL     1      21.881   3.432  46.194  1.00  0.00     0.072 C 
HETATM   14  N2  UNL     1      22.026   3.852  45.123  1.00  0.00    -0.196 NA
HETATM   15  C16 UNL     1      23.001   3.087  48.262  1.00  0.00     0.174 C 
HETATM   16  N3  UNL     1      23.140   2.561  49.561  1.00  0.00    -0.292 NA
HETATM   17  C17 UNL     1      23.994   2.858  50.421  1.00  0.00     0.037 C 
HETATM   18  C18 UNL     1      25.115   3.853  50.290  1.00  0.00     0.078 C 
HETATM   19  C19 UNL     1      26.439   3.228  50.639  1.00  0.00     0.120 C 
HETATM   20  N4  UNL     1      26.414   1.787  50.699  1.00  0.00    -0.417 N 
HETATM   21  C20 UNL     1      26.197   1.231  51.993  1.00  0.00     0.149 C 
HETATM   22  H22 UNL     1      25.914   1.324  49.929  1.00  0.00     0.153 HD
ENDROOT
BRANCH   1  23
HETATM   23  C4  UNL     1      24.465   0.814  53.661  1.00  0.00     0.040 C 
BRANCH  23  24
HETATM   24  C3  UNL     1      24.326  -0.701  53.458  1.00  0.00     0.030 C 
BRANCH  24  25
HETATM   25  C2  UNL     1      22.864  -1.015  53.600  1.00  0.00    -0.037 C 
HETATM   26  C1  UNL     1      22.199  -0.685  54.696  1.00  0.00     0.007 C 
ENDBRANCH  24  25
ENDBRANCH  23  24
ENDBRANCH   1  23
TORSDOF 3
ENDMDL
