MODEL 1
REMARK VINA RESULT:      -7.3      0.000      0.000
REMARK  6 active torsions:
REMARK  status: ('A' for Active; 'I' for Inactive)
REMARK    1  A    between atoms: C3_3  and  C4_4 
REMARK    2  A    between atoms: C3_3  and  O3_21 
REMARK    3  A    between atoms: C5_5  and  C6_6 
REMARK    4  A    between atoms: C6_6  and  C7_7 
REMARK    5  A    between atoms: C12_12  and  O1_13 
REMARK    6  A    between atoms: C15_16  and  O2_17 
ROOT
HETATM    1  C7  UNL     1      23.284   2.476  52.647  1.00  0.00    -0.019 A 
HETATM    2  C8  UNL     1      24.522   2.932  53.105  1.00  0.00     0.041 A 
HETATM    3  C9  UNL     1      25.493   2.048  53.477  1.00  0.00     0.057 A 
HETATM    4  C10 UNL     1      25.331   0.681  53.431  1.00  0.00    -0.020 A 
HETATM    5  C11 UNL     1      24.096   0.243  52.974  1.00  0.00     0.047 A 
HETATM    6  C12 UNL     1      23.067   1.106  52.580  1.00  0.00     0.075 A 
HETATM    7  C14 UNL     1      26.283  -0.393  53.797  1.00  0.00     0.129 A 
HETATM    8  C15 UNL     1      27.539   0.256  54.253  1.00  0.00     0.163 A 
HETATM    9  N1  UNL     1      27.726   1.529  54.308  1.00  0.00    -0.153 NA
HETATM   10  N2  UNL     1      26.774   2.487  53.946  1.00  0.00    -0.276 N 
HETATM   11  H19 UNL     1      26.956   3.511  54.003  1.00  0.00     0.189 HD
ENDROOT
BRANCH   1  12
HETATM   12  C6  UNL     1      22.180   3.370  52.219  1.00  0.00     0.068 C 
BRANCH  12  13
HETATM   13  C5  UNL     1      22.188   3.680  50.797  1.00  0.00    -0.019 C 
HETATM   14  C4  UNL     1      22.947   4.055  49.788  1.00  0.00     0.032 C 
BRANCH  14  15
HETATM   15  C3  UNL     1      24.378   4.333  49.875  1.00  0.00     0.063 C 
HETATM   16  C2  UNL     1      25.305   3.506  49.457  1.00  0.00     0.006 C 
HETATM   17  C1  UNL     1      26.760   3.770  49.540  1.00  0.00     0.038 C 
BRANCH  15  18
HETATM   18  O3  UNL     1      24.838   5.536  50.425  1.00  0.00    -0.356 OA
HETATM   19  C17 UNL     1      24.312   6.719  49.809  1.00  0.00     0.210 C 
ENDBRANCH  15  18
ENDBRANCH  14  15
ENDBRANCH  12  13
ENDBRANCH   1  12
BRANCH   6  20
HETATM   20  O1  UNL     1      21.846   0.636  52.129  1.00  0.00    -0.355 OA
HETATM   21  C13 UNL     1      21.102  -0.203  53.003  1.00  0.00     0.210 C 
ENDBRANCH   6  20
BRANCH   8  22
HETATM   22  O2  UNL     1      28.638  -0.484  54.666  1.00  0.00    -0.341 OA
HETATM   23  C16 UNL     1      29.718  -0.812  53.811  1.00  0.00     0.211 C 
ENDBRANCH   8  22
TORSDOF 6
ENDMDL
MODEL 2
REMARK VINA RESULT:      -7.3      2.297      6.127
REMARK  6 active torsions:
REMARK  status: ('A' for Active; 'I' for Inactive)
REMARK    1  A    between atoms: C3_3  and  C4_4 
REMARK    2  A    between atoms: C3_3  and  O3_21 
REMARK    3  A    between atoms: C5_5  and  C6_6 
REMARK    4  A    between atoms: C6_6  and  C7_7 
REMARK    5  A    between atoms: C12_12  and  O1_13 
REMARK    6  A    between atoms: C15_16  and  O2_17 
ROOT
HETATM    1  C7  UNL     1      24.333   0.876  52.919  1.00  0.00    -0.019 A 
HETATM    2  C8  UNL     1      24.804   2.149  52.590  1.00  0.00     0.041 A 
HETATM    3  C9  UNL     1      23.933   3.151  52.273  1.00  0.00     0.057 A 
HETATM    4  C10 UNL     1      22.566   2.987  52.253  1.00  0.00    -0.020 A 
HETATM    5  C11 UNL     1      22.112   1.717  52.582  1.00  0.00     0.047 A 
HETATM    6  C12 UNL     1      22.962   0.656  52.915  1.00  0.00     0.075 A 
HETATM    7  C14 UNL     1      21.505   3.970  51.933  1.00  0.00     0.129 A 
HETATM    8  C15 UNL     1      22.168   5.261  51.615  1.00  0.00     0.163 A 
HETATM    9  N1  UNL     1      23.441   5.449  51.625  1.00  0.00    -0.153 NA
HETATM   10  N2  UNL     1      24.387   4.467  51.936  1.00  0.00    -0.276 N 
HETATM   11  H19 UNL     1      25.413   4.652  51.934  1.00  0.00     0.189 HD
ENDROOT
BRANCH   1  12
HETATM   12  C6  UNL     1      25.212  -0.263  53.281  1.00  0.00     0.068 C 
BRANCH  12  13
HETATM   13  C5  UNL     1      25.813  -0.151  54.602  1.00  0.00    -0.019 C 
HETATM   14  C4  UNL     1      26.943   0.040  55.250  1.00  0.00     0.032 C 
BRANCH  14  15
HETATM   15  C3  UNL     1      28.246   0.239  54.622  1.00  0.00     0.063 C 
HETATM   16  C2  UNL     1      28.912  -0.710  54.012  1.00  0.00     0.006 C 
HETATM   17  C1  UNL     1      30.235  -0.526  53.372  1.00  0.00     0.038 C 
BRANCH  15  18
HETATM   18  O3  UNL     1      28.862   1.497  54.644  1.00  0.00    -0.356 OA
HETATM   19  C17 UNL     1      28.392   2.415  53.647  1.00  0.00     0.210 C 
ENDBRANCH  15  18
ENDBRANCH  14  15
ENDBRANCH  12  13
ENDBRANCH   1  12
BRANCH   6  20
HETATM   20  O1  UNL     1      22.477  -0.599  53.239  1.00  0.00    -0.355 OA
HETATM   21  C13 UNL     1      21.746  -0.729  54.450  1.00  0.00     0.210 C 
ENDBRANCH   6  20
BRANCH   8  22
HETATM   22  O2  UNL     1      21.442   6.393  51.273  1.00  0.00    -0.341 OA
HETATM   23  C16 UNL     1      21.998   7.486  50.566  1.00  0.00     0.211 C 
ENDBRANCH   8  22
TORSDOF 6
ENDMDL
MODEL 3
REMARK VINA RESULT:      -7.3      2.003      5.947
REMARK  6 active torsions:
REMARK  status: ('A' for Active; 'I' for Inactive)
REMARK    1  A    between atoms: C3_3  and  C4_4 
REMARK    2  A    between atoms: C3_3  and  O3_21 
REMARK    3  A    between atoms: C5_5  and  C6_6 
REMARK    4  A    between atoms: C6_6  and  C7_7 
REMARK    5  A    between atoms: C12_12  and  O1_13 
REMARK    6  A    between atoms: C15_16  and  O2_17 
ROOT
HETATM    1  C7  UNL     1      25.059   1.042  52.016  1.00  0.00    -0.019 A 
HETATM    2  C8  UNL     1      26.081   1.875  51.556  1.00  0.00     0.041 A 
HETATM    3  C9  UNL     1      25.796   2.956  50.773  1.00  0.00     0.057 A 
HETATM    4  C10 UNL     1      24.519   3.296  50.388  1.00  0.00    -0.020 A 
HETATM    5  C11 UNL     1      23.513   2.459  50.852  1.00  0.00     0.047 A 
HETATM    6  C12 UNL     1      23.751   1.339  51.657  1.00  0.00     0.075 A 
HETATM    7  C14 UNL     1      24.057   4.428  49.551  1.00  0.00     0.129 A 
HETATM    8  C15 UNL     1      25.256   5.212  49.155  1.00  0.00     0.163 A 
HETATM    9  N1  UNL     1      26.463   4.924  49.497  1.00  0.00    -0.153 NA
HETATM   10  N2  UNL     1      26.823   3.831  50.292  1.00  0.00    -0.276 N 
HETATM   11  H19 UNL     1      27.811   3.625  50.551  1.00  0.00     0.189 HD
ENDROOT
BRANCH   1  12
HETATM   12  C6  UNL     1      25.284  -0.147  52.874  1.00  0.00     0.068 C 
BRANCH  12  13
HETATM   13  C5  UNL     1      25.713   0.173  54.228  1.00  0.00    -0.019 C 
HETATM   14  C4  UNL     1      26.762   0.396  54.992  1.00  0.00     0.032 C 
BRANCH  14  15
HETATM   15  C3  UNL     1      28.150   0.367  54.540  1.00  0.00     0.063 C 
HETATM   16  C2  UNL     1      28.713  -0.679  53.988  1.00  0.00     0.006 C 
HETATM   17  C1  UNL     1      30.119  -0.727  53.526  1.00  0.00     0.038 C 
BRANCH  15  18
HETATM   18  O3  UNL     1      28.968   1.495  54.681  1.00  0.00    -0.356 OA
HETATM   19  C17 UNL     1      28.754   2.521  53.702  1.00  0.00     0.210 C 
ENDBRANCH  15  18
ENDBRANCH  14  15
ENDBRANCH  12  13
ENDBRANCH   1  12
BRANCH   6  20
HETATM   20  O1  UNL     1      22.725   0.524  52.103  1.00  0.00    -0.355 OA
HETATM   21  C13 UNL     1      21.713   1.120  52.903  1.00  0.00     0.210 C 
ENDBRANCH   6  20
BRANCH   8  22
HETATM   22  O2  UNL     1      25.160   6.346  48.362  1.00  0.00    -0.341 OA
HETATM   23  C16 UNL     1      26.263   7.184  48.071  1.00  0.00     0.211 C 
ENDBRANCH   8  22
TORSDOF 6
ENDMDL
MODEL 4
REMARK VINA RESULT:      -7.1      2.037      3.191
REMARK  6 active torsions:
REMARK  status: ('A' for Active; 'I' for Inactive)
REMARK    1  A    between atoms: C3_3  and  C4_4 
REMARK    2  A    between atoms: C3_3  and  O3_21 
REMARK    3  A    between atoms: C5_5  and  C6_6 
REMARK    4  A    between atoms: C6_6  and  C7_7 
REMARK    5  A    between atoms: C12_12  and  O1_13 
REMARK    6  A    between atoms: C15_16  and  O2_17 
ROOT
HETATM    1  C7  UNL     1      22.967   0.936  53.048  1.00  0.00    -0.019 A 
HETATM    2  C8  UNL     1      23.773  -0.142  53.415  1.00  0.00     0.041 A 
HETATM    3  C9  UNL     1      25.112   0.028  53.617  1.00  0.00     0.057 A 
HETATM    4  C10 UNL     1      25.750   1.240  53.476  1.00  0.00    -0.020 A 
HETATM    5  C11 UNL     1      24.936   2.304  53.111  1.00  0.00     0.047 A 
HETATM    6  C12 UNL     1      23.559   2.183  52.893  1.00  0.00     0.075 A 
HETATM    7  C14 UNL     1      27.181   1.578  53.660  1.00  0.00     0.129 A 
HETATM    8  C15 UNL     1      27.890   0.333  54.052  1.00  0.00     0.163 A 
HETATM    9  N1  UNL     1      27.326  -0.816  54.193  1.00  0.00    -0.153 NA
HETATM   10  N2  UNL     1      25.963  -1.060  53.999  1.00  0.00    -0.276 N 
HETATM   11  H19 UNL     1      25.536  -2.003  54.121  1.00  0.00     0.189 HD
ENDROOT
BRANCH   1  12
HETATM   12  C6  UNL     1      21.505   0.836  52.816  1.00  0.00     0.068 C 
BRANCH  12  13
HETATM   13  C5  UNL     1      21.147   0.358  51.489  1.00  0.00    -0.019 C 
HETATM   14  C4  UNL     1      21.089   0.684  50.214  1.00  0.00     0.032 C 
BRANCH  14  15
HETATM   15  C3  UNL     1      21.478   1.978  49.662  1.00  0.00     0.063 C 
HETATM   16  C2  UNL     1      22.680   2.244  49.211  1.00  0.00     0.006 C 
HETATM   17  C1  UNL     1      23.093   3.552  48.650  1.00  0.00     0.038 C 
BRANCH  15  18
HETATM   18  O3  UNL     1      20.554   3.028  49.588  1.00  0.00    -0.356 OA
HETATM   19  C17 UNL     1      19.311   2.692  48.957  1.00  0.00     0.210 C 
ENDBRANCH  15  18
ENDBRANCH  14  15
ENDBRANCH  12  13
ENDBRANCH   1  12
BRANCH   6  20
HETATM   20  O1  UNL     1      22.776   3.264  52.529  1.00  0.00    -0.355 OA
HETATM   21  C13 UNL     1      23.386   4.548  52.532  1.00  0.00     0.210 C 
ENDBRANCH   6  20
BRANCH   8  22
HETATM   22  O2  UNL     1      29.255   0.315  54.301  1.00  0.00    -0.341 OA
HETATM   23  C16 UNL     1      30.144  -0.596  53.682  1.00  0.00     0.211 C 
ENDBRANCH   8  22
TORSDOF 6
ENDMDL
MODEL 5
REMARK VINA RESULT:      -6.9      2.309      5.549
REMARK  6 active torsions:
REMARK  status: ('A' for Active; 'I' for Inactive)
REMARK    1  A    between atoms: C3_3  and  C4_4 
REMARK    2  A    between atoms: C3_3  and  O3_21 
REMARK    3  A    between atoms: C5_5  and  C6_6 
REMARK    4  A    between atoms: C6_6  and  C7_7 
REMARK    5  A    between atoms: C12_12  and  O1_13 
REMARK    6  A    between atoms: C15_16  and  O2_17 
ROOT
HETATM    1  C7  UNL     1      22.933   0.838  52.966  1.00  0.00    -0.019 A 
HETATM    2  C8  UNL     1      23.766  -0.216  53.345  1.00  0.00     0.041 A 
HETATM    3  C9  UNL     1      25.094  -0.002  53.577  1.00  0.00     0.057 A 
HETATM    4  C10 UNL     1      25.695   1.232  53.458  1.00  0.00    -0.020 A 
HETATM    5  C11 UNL     1      24.854   2.270  53.080  1.00  0.00     0.047 A 
HETATM    6  C12 UNL     1      23.486   2.105  52.832  1.00  0.00     0.075 A 
HETATM    7  C14 UNL     1      27.109   1.615  53.675  1.00  0.00     0.129 A 
HETATM    8  C15 UNL     1      27.850   0.391  54.075  1.00  0.00     0.163 A 
HETATM    9  N1  UNL     1      27.322  -0.776  54.197  1.00  0.00    -0.153 NA
HETATM   10  N2  UNL     1      25.972  -1.063  53.971  1.00  0.00    -0.276 N 
HETATM   11  H19 UNL     1      25.574  -2.021  54.078  1.00  0.00     0.189 HD
ENDROOT
BRANCH   1  12
HETATM   12  C6  UNL     1      21.480   0.691  52.702  1.00  0.00     0.068 C 
BRANCH  12  13
HETATM   13  C5  UNL     1      20.815  -0.267  53.572  1.00  0.00    -0.019 C 
HETATM   14  C4  UNL     1      19.701  -0.944  53.765  1.00  0.00     0.032 C 
BRANCH  14  15
HETATM   15  C3  UNL     1      18.522  -0.879  52.906  1.00  0.00     0.063 C 
HETATM   16  C2  UNL     1      18.493  -0.247  51.758  1.00  0.00     0.006 C 
HETATM   17  C1  UNL     1      17.305  -0.168  50.877  1.00  0.00     0.038 C 
BRANCH  15  18
HETATM   18  O3  UNL     1      17.330  -1.510  53.285  1.00  0.00    -0.356 OA
HETATM   19  C17 UNL     1      17.447  -2.917  53.536  1.00  0.00     0.210 C 
ENDBRANCH  15  18
ENDBRANCH  14  15
ENDBRANCH  12  13
ENDBRANCH   1  12
BRANCH   6  20
HETATM   20  O1  UNL     1      22.676   3.162  52.457  1.00  0.00    -0.355 OA
HETATM   21  C13 UNL     1      23.223   4.126  51.567  1.00  0.00     0.210 C 
ENDBRANCH   6  20
BRANCH   8  22
HETATM   22  O2  UNL     1      29.209   0.417  54.355  1.00  0.00    -0.341 OA
HETATM   23  C16 UNL     1      30.161  -0.355  53.646  1.00  0.00     0.211 C 
ENDBRANCH   8  22
TORSDOF 6
ENDMDL
MODEL 6
REMARK VINA RESULT:      -6.9      3.381      7.189
REMARK  6 active torsions:
REMARK  status: ('A' for Active; 'I' for Inactive)
REMARK    1  A    between atoms: C3_3  and  C4_4 
REMARK    2  A    between atoms: C3_3  and  O3_21 
REMARK    3  A    between atoms: C5_5  and  C6_6 
REMARK    4  A    between atoms: C6_6  and  C7_7 
REMARK    5  A    between atoms: C12_12  and  O1_13 
REMARK    6  A    between atoms: C15_16  and  O2_17 
ROOT
HETATM    1  C7  UNL     1      22.910   0.610  52.801  1.00  0.00    -0.019 A 
HETATM    2  C8  UNL     1      21.924  -0.041  53.545  1.00  0.00     0.041 A 
HETATM    3  C9  UNL     1      20.661  -0.186  53.047  1.00  0.00     0.057 A 
HETATM    4  C10 UNL     1      20.276   0.284  51.811  1.00  0.00    -0.020 A 
HETATM    5  C11 UNL     1      21.267   0.929  51.083  1.00  0.00     0.047 A 
HETATM    6  C12 UNL     1      22.576   1.104  51.547  1.00  0.00     0.075 A 
HETATM    7  C14 UNL     1      18.957   0.201  51.142  1.00  0.00     0.129 A 
HETATM    8  C15 UNL     1      18.033  -0.519  52.056  1.00  0.00     0.163 A 
HETATM    9  N1  UNL     1      18.359  -0.972  53.215  1.00  0.00    -0.153 NA
HETATM   10  N2  UNL     1      19.631  -0.854  53.785  1.00  0.00    -0.276 N 
HETATM   11  H19 UNL     1      19.863  -1.232  54.728  1.00  0.00     0.189 HD
ENDROOT
BRANCH   1  12
HETATM   12  C6  UNL     1      24.305   0.804  53.267  1.00  0.00     0.068 C 
BRANCH  12  13
HETATM   13  C5  UNL     1      25.174  -0.339  53.025  1.00  0.00    -0.019 C 
HETATM   14  C4  UNL     1      26.416  -0.772  53.095  1.00  0.00     0.032 C 
BRANCH  14  15
HETATM   15  C3  UNL     1      27.553   0.015  53.565  1.00  0.00     0.063 C 
HETATM   16  C2  UNL     1      27.686   1.301  53.346  1.00  0.00     0.006 C 
HETATM   17  C1  UNL     1      28.833   2.113  53.812  1.00  0.00     0.038 C 
BRANCH  15  18
HETATM   18  O3  UNL     1      28.584  -0.589  54.295  1.00  0.00    -0.356 OA
HETATM   19  C17 UNL     1      29.472  -1.405  53.519  1.00  0.00     0.210 C 
ENDBRANCH  15  18
ENDBRANCH  14  15
ENDBRANCH  12  13
ENDBRANCH   1  12
BRANCH   6  20
HETATM   20  O1  UNL     1      23.540   1.752  50.796  1.00  0.00    -0.355 OA
HETATM   21  C13 UNL     1      23.095   2.679  49.814  1.00  0.00     0.210 C 
ENDBRANCH   6  20
BRANCH   8  22
HETATM   22  O2  UNL     1      16.710  -0.763  51.716  1.00  0.00    -0.341 OA
HETATM   23  C16 UNL     1      15.660  -0.790  52.665  1.00  0.00     0.211 C 
ENDBRANCH   8  22
TORSDOF 6
ENDMDL
MODEL 7
REMARK VINA RESULT:      -6.8      1.773      4.676
REMARK  6 active torsions:
REMARK  status: ('A' for Active; 'I' for Inactive)
REMARK    1  A    between atoms: C3_3  and  C4_4 
REMARK    2  A    between atoms: C3_3  and  O3_21 
REMARK    3  A    between atoms: C5_5  and  C6_6 
REMARK    4  A    between atoms: C6_6  and  C7_7 
REMARK    5  A    between atoms: C12_12  and  O1_13 
REMARK    6  A    between atoms: C15_16  and  O2_17 
ROOT
HETATM    1  C7  UNL     1      23.636   1.604  51.528  1.00  0.00    -0.019 A 
HETATM    2  C8  UNL     1      23.930   0.612  52.466  1.00  0.00     0.041 A 
HETATM    3  C9  UNL     1      25.205   0.444  52.923  1.00  0.00     0.057 A 
HETATM    4  C10 UNL     1      26.266   1.216  52.505  1.00  0.00    -0.020 A 
HETATM    5  C11 UNL     1      25.959   2.197  51.572  1.00  0.00     0.047 A 
HETATM    6  C12 UNL     1      24.669   2.411  51.073  1.00  0.00     0.075 A 
HETATM    7  C14 UNL     1      27.691   1.153  52.905  1.00  0.00     0.129 A 
HETATM    8  C15 UNL     1      27.830   0.061  53.903  1.00  0.00     0.163 A 
HETATM    9  N1  UNL     1      26.861  -0.678  54.317  1.00  0.00    -0.153 NA
HETATM   10  N2  UNL     1      25.535  -0.561  53.888  1.00  0.00    -0.276 N 
HETATM   11  H19 UNL     1      24.772  -1.177  54.242  1.00  0.00     0.189 HD
ENDROOT
BRANCH   1  12
HETATM   12  C6  UNL     1      22.277   1.855  50.988  1.00  0.00     0.068 C 
BRANCH  12  13
HETATM   13  C5  UNL     1      21.307   2.265  51.992  1.00  0.00    -0.019 C 
HETATM   14  C4  UNL     1      20.486   1.831  52.927  1.00  0.00     0.032 C 
BRANCH  14  15
HETATM   15  C3  UNL     1      20.290   0.429  53.284  1.00  0.00     0.063 C 
HETATM   16  C2  UNL     1      21.150  -0.270  53.983  1.00  0.00     0.006 C 
HETATM   17  C1  UNL     1      20.969  -1.693  54.352  1.00  0.00     0.038 C 
BRANCH  15  18
HETATM   18  O3  UNL     1      19.134  -0.253  52.883  1.00  0.00    -0.356 OA
HETATM   19  C17 UNL     1      18.709   0.019  51.541  1.00  0.00     0.210 C 
ENDBRANCH  15  18
ENDBRANCH  14  15
ENDBRANCH  12  13
ENDBRANCH   1  12
BRANCH   6  20
HETATM   20  O1  UNL     1      24.397   3.399  50.143  1.00  0.00    -0.355 OA
HETATM   21  C13 UNL     1      25.448   4.297  49.811  1.00  0.00     0.210 C 
ENDBRANCH   6  20
BRANCH   8  22
HETATM   22  O2  UNL     1      29.052  -0.253  54.480  1.00  0.00    -0.341 OA
HETATM   23  C16 UNL     1      30.086  -0.925  53.786  1.00  0.00     0.211 C 
ENDBRANCH   8  22
TORSDOF 6
ENDMDL
MODEL 8
REMARK VINA RESULT:      -6.7      1.917      3.115
REMARK  6 active torsions:
REMARK  status: ('A' for Active; 'I' for Inactive)
REMARK    1  A    between atoms: C3_3  and  C4_4 
REMARK    2  A    between atoms: C3_3  and  O3_21 
REMARK    3  A    between atoms: C5_5  and  C6_6 
REMARK    4  A    between atoms: C6_6  and  C7_7 
REMARK    5  A    between atoms: C12_12  and  O1_13 
REMARK    6  A    between atoms: C15_16  and  O2_17 
ROOT
HETATM    1  C7  UNL     1      23.087   0.875  52.122  1.00  0.00    -0.019 A 
HETATM    2  C8  UNL     1      23.593   0.137  53.194  1.00  0.00     0.041 A 
HETATM    3  C9  UNL     1      24.933   0.118  53.453  1.00  0.00     0.057 A 
HETATM    4  C10 UNL     1      25.859   0.804  52.700  1.00  0.00    -0.020 A 
HETATM    5  C11 UNL     1      25.342   1.533  51.638  1.00  0.00     0.047 A 
HETATM    6  C12 UNL     1      23.978   1.587  51.329  1.00  0.00     0.075 A 
HETATM    7  C14 UNL     1      27.330   0.880  52.857  1.00  0.00     0.129 A 
HETATM    8  C15 UNL     1      27.700   0.053  54.035  1.00  0.00     0.163 A 
HETATM    9  N1  UNL     1      26.861  -0.600  54.761  1.00  0.00    -0.153 NA
HETATM   10  N2  UNL     1      25.479  -0.626  54.549  1.00  0.00    -0.276 N 
HETATM   11  H19 UNL     1      24.826  -1.166  55.155  1.00  0.00     0.189 HD
ENDROOT
BRANCH   1  12
HETATM   12  C6  UNL     1      21.646   0.953  51.777  1.00  0.00     0.068 C 
BRANCH  12  13
HETATM   13  C5  UNL     1      20.915   1.972  52.516  1.00  0.00    -0.019 C 
HETATM   14  C4  UNL     1      20.580   3.246  52.535  1.00  0.00     0.032 C 
BRANCH  14  15
HETATM   15  C3  UNL     1      20.976   4.231  51.533  1.00  0.00     0.063 C 
HETATM   16  C2  UNL     1      20.577   4.199  50.285  1.00  0.00     0.006 C 
HETATM   17  C1  UNL     1      20.971   5.188  49.255  1.00  0.00     0.038 C 
BRANCH  15  18
HETATM   18  O3  UNL     1      21.827   5.290  51.873  1.00  0.00    -0.356 OA
HETATM   19  C17 UNL     1      23.000   4.909  52.604  1.00  0.00     0.210 C 
ENDBRANCH  15  18
ENDBRANCH  14  15
ENDBRANCH  12  13
ENDBRANCH   1  12
BRANCH   6  20
HETATM   20  O1  UNL     1      23.495   2.324  50.262  1.00  0.00    -0.355 OA
HETATM   21  C13 UNL     1      24.386   3.241  49.640  1.00  0.00     0.210 C 
ENDBRANCH   6  20
BRANCH   8  22
HETATM   22  O2  UNL     1      29.017  -0.082  54.451  1.00  0.00    -0.341 OA
HETATM   23  C16 UNL     1      29.977  -0.849  53.749  1.00  0.00     0.211 C 
ENDBRANCH   8  22
TORSDOF 6
ENDMDL
MODEL 9
REMARK VINA RESULT:      -6.7      2.093      2.609
REMARK  6 active torsions:
REMARK  status: ('A' for Active; 'I' for Inactive)
REMARK    1  A    between atoms: C3_3  and  C4_4 
REMARK    2  A    between atoms: C3_3  and  O3_21 
REMARK    3  A    between atoms: C5_5  and  C6_6 
REMARK    4  A    between atoms: C6_6  and  C7_7 
REMARK    5  A    between atoms: C12_12  and  O1_13 
REMARK    6  A    between atoms: C15_16  and  O2_17 
ROOT
HETATM    1  C7  UNL     1      23.147   1.118  52.213  1.00  0.00    -0.019 A 
HETATM    2  C8  UNL     1      24.252   1.894  51.858  1.00  0.00     0.041 A 
HETATM    3  C9  UNL     1      25.486   1.624  52.376  1.00  0.00     0.057 A 
HETATM    4  C10 UNL     1      25.727   0.596  53.261  1.00  0.00    -0.020 A 
HETATM    5  C11 UNL     1      24.619  -0.167  53.604  1.00  0.00     0.047 A 
HETATM    6  C12 UNL     1      23.334   0.068  53.102  1.00  0.00     0.075 A 
HETATM    7  C14 UNL     1      26.997   0.183  53.901  1.00  0.00     0.129 A 
HETATM    8  C15 UNL     1      28.063   1.098  53.416  1.00  0.00     0.163 A 
HETATM    9  N1  UNL     1      27.874   2.067  52.589  1.00  0.00    -0.153 NA
HETATM   10  N2  UNL     1      26.638   2.400  52.026  1.00  0.00    -0.276 N 
HETATM   11  H19 UNL     1      26.518   3.192  51.359  1.00  0.00     0.189 HD
ENDROOT
BRANCH   1  12
HETATM   12  C6  UNL     1      21.776   1.343  51.691  1.00  0.00     0.068 C 
BRANCH  12  13
HETATM   13  C5  UNL     1      21.608   0.972  50.294  1.00  0.00    -0.019 C 
HETATM   14  C4  UNL     1      21.584   1.434  49.060  1.00  0.00     0.032 C 
BRANCH  14  15
HETATM   15  C3  UNL     1      21.773   2.832  48.685  1.00  0.00     0.063 C 
HETATM   16  C2  UNL     1      22.947   3.407  48.591  1.00  0.00     0.006 C 
HETATM   17  C1  UNL     1      23.157   4.824  48.215  1.00  0.00     0.038 C 
BRANCH  15  18
HETATM   18  O3  UNL     1      20.671   3.648  48.399  1.00  0.00    -0.356 OA
HETATM   19  C17 UNL     1      19.834   3.177  47.334  1.00  0.00     0.210 C 
ENDBRANCH  15  18
ENDBRANCH  14  15
ENDBRANCH  12  13
ENDBRANCH   1  12
BRANCH   6  20
HETATM   20  O1  UNL     1      22.250  -0.712  53.466  1.00  0.00    -0.355 OA
HETATM   21  C13 UNL     1      22.313  -1.381  54.719  1.00  0.00     0.210 C 
ENDBRANCH   6  20
BRANCH   8  22
HETATM   22  O2  UNL     1      29.381   0.973  53.832  1.00  0.00    -0.341 OA
HETATM   23  C16 UNL     1      30.159  -0.187  53.601  1.00  0.00     0.211 C 
ENDBRANCH   8  22
TORSDOF 6
ENDMDL
