MODEL 1
REMARK VINA RESULT:      -7.8      0.000      0.000
REMARK  7 active torsions:
REMARK  status: ('A' for Active; 'I' for Inactive)
REMARK    1  A    between atoms: C2_2  and  C3_3 
REMARK    2  A    between atoms: C3_3  and  N1_4 
REMARK    3  A    between atoms: N1_4  and  C4_5 
REMARK       I    between atoms: N1_4  and  C11_16 
REMARK    4  A    between atoms: C4_5  and  C5_6 
REMARK    5  A    between atoms: C9_11  and  P1_12 
REMARK    6  A    between atoms: C10_14  and  O1_15 
REMARK       I    between atoms: C11_16  and  N2_18 
REMARK    7  A    between atoms: N2_18  and  C12_19 
ROOT
HETATM    1  N1  UNL     1      23.363   0.625  53.455  1.00  0.00    -0.330 N 
HETATM    2  C11 UNL     1      24.772   0.309  53.476  1.00  0.00     0.323 C 
HETATM    3  O2  UNL     1      24.857  -0.865  53.930  1.00  0.00    -0.247 OA
HETATM    4  N2  UNL     1      25.943   1.020  53.112  1.00  0.00    -0.309 N 
HETATM    5  H14 UNL     1      25.695   1.958  52.773  1.00  0.00     0.170 HD
ENDROOT
BRANCH   1   6
HETATM    6  C3  UNL     1      22.517  -0.430  53.960  1.00  0.00     0.127 C 
BRANCH   6   7
HETATM    7  C2  UNL     1      21.155   0.136  54.319  1.00  0.00     0.015 C 
HETATM    8  C1  UNL     1      20.074  -0.648  53.596  1.00  0.00     0.006 C 
ENDBRANCH   6   7
ENDBRANCH   1   6
BRANCH   1   9
HETATM    9  C4  UNL     1      22.602   1.780  53.012  1.00  0.00     0.169 C 
BRANCH   9  10
HETATM   10  C5  UNL     1      23.024   2.333  51.723  1.00  0.00    -0.004 A 
HETATM   11  C6  UNL     1      22.376   1.756  50.624  1.00  0.00     0.035 A 
HETATM   12  C7  UNL     1      22.619   2.119  49.315  1.00  0.00     0.035 A 
HETATM   13 CL1  UNL     1      21.788   1.371  47.967  1.00  0.00    -0.084 Cl
HETATM   14  C8  UNL     1      23.528   3.083  49.031  1.00  0.00     0.040 A 
HETATM   15  C9  UNL     1      24.181   3.671  50.089  1.00  0.00     0.017 A 
HETATM   16  C10 UNL     1      23.934   3.304  51.391  1.00  0.00     0.085 A 
BRANCH  15  17
HETATM   17  P1  UNL     1      25.428   4.982  49.852  1.00  0.00     0.009 P 
HETATM   18 CL2  UNL     1      27.200   4.278  48.966  1.00  0.00    -0.094 Cl
HETATM   19  H12 UNL     1      25.639   5.749  51.048  1.00  0.00     0.079 HD
ENDBRANCH  15  17
BRANCH  16  20
HETATM   20  O1  UNL     1      24.575   3.876  52.479  1.00  0.00    -0.359 OA
HETATM   21  H13 UNL     1      24.347   4.846  52.660  1.00  0.00     0.217 HD
ENDBRANCH  16  20
ENDBRANCH   9  10
ENDBRANCH   1   9
BRANCH   4  22
HETATM   22  C12 UNL     1      27.172   0.348  53.281  1.00  0.00     0.036 A 
HETATM   23  C13 UNL     1      28.121   1.117  53.960  1.00  0.00     0.029 A 
HETATM   24  C14 UNL     1      29.378   0.616  54.213  1.00  0.00     0.002 A 
HETATM   25  C15 UNL     1      29.700  -0.647  53.792  1.00  0.00     0.000 A 
HETATM   26  C16 UNL     1      28.776  -1.424  53.118  1.00  0.00     0.002 A 
HETATM   27  C17 UNL     1      27.515  -0.922  52.865  1.00  0.00     0.029 A 
ENDBRANCH   4  22
TORSDOF 7
ENDMDL
MODEL 2
REMARK VINA RESULT:      -7.4      3.796      6.068
REMARK  7 active torsions:
REMARK  status: ('A' for Active; 'I' for Inactive)
REMARK    1  A    between atoms: C2_2  and  C3_3 
REMARK    2  A    between atoms: C3_3  and  N1_4 
REMARK    3  A    between atoms: N1_4  and  C4_5 
REMARK       I    between atoms: N1_4  and  C11_16 
REMARK    4  A    between atoms: C4_5  and  C5_6 
REMARK    5  A    between atoms: C9_11  and  P1_12 
REMARK    6  A    between atoms: C10_14  and  O1_15 
REMARK       I    between atoms: C11_16  and  N2_18 
REMARK    7  A    between atoms: N2_18  and  C12_19 
ROOT
HETATM    1  N1  UNL     1      23.798   3.261  51.281  1.00  0.00    -0.330 N 
HETATM    2  C11 UNL     1      24.694   4.090  50.511  1.00  0.00     0.323 C 
HETATM    3  O2  UNL     1      24.644   5.236  51.036  1.00  0.00    -0.247 OA
HETATM    4  N2  UNL     1      25.526   3.856  49.387  1.00  0.00    -0.309 N 
HETATM    5  H14 UNL     1      25.440   2.878  49.082  1.00  0.00     0.170 HD
ENDROOT
BRANCH   1   6
HETATM    6  C3  UNL     1      23.125   3.958  52.350  1.00  0.00     0.127 C 
BRANCH   6   7
HETATM    7  C2  UNL     1      21.624   3.777  52.213  1.00  0.00     0.015 C 
HETATM    8  C1  UNL     1      21.077   4.808  51.240  1.00  0.00     0.006 C 
ENDBRANCH   6   7
ENDBRANCH   1   6
BRANCH   1   9
HETATM    9  C4  UNL     1      23.438   1.854  51.226  1.00  0.00     0.169 C 
BRANCH   9  10
HETATM   10  C5  UNL     1      24.181   0.996  52.154  1.00  0.00    -0.004 A 
HETATM   11  C6  UNL     1      23.368   0.348  53.092  1.00  0.00     0.035 A 
HETATM   12  C7  UNL     1      23.852  -0.504  54.064  1.00  0.00     0.035 A 
HETATM   13 CL1  UNL     1      22.802  -1.296  55.220  1.00  0.00    -0.084 Cl
HETATM   14  C8  UNL     1      25.180  -0.756  54.152  1.00  0.00     0.040 A 
HETATM   15  C9  UNL     1      26.006  -0.135  53.244  1.00  0.00     0.017 A 
HETATM   16  C10 UNL     1      25.517   0.714  52.279  1.00  0.00     0.085 A 
BRANCH  15  17
HETATM   17  P1  UNL     1      27.813  -0.383  53.248  1.00  0.00     0.009 P 
HETATM   18 CL2  UNL     1      28.781   0.652  54.800  1.00  0.00    -0.094 Cl
HETATM   19  H12 UNL     1      28.391  -0.163  51.951  1.00  0.00     0.079 HD
ENDBRANCH  15  17
BRANCH  16  20
HETATM   20  O1  UNL     1      26.321   1.355  51.349  1.00  0.00    -0.359 OA
HETATM   21  H13 UNL     1      26.372   2.363  51.438  1.00  0.00     0.217 HD
ENDBRANCH  16  20
ENDBRANCH   9  10
ENDBRANCH   1   9
BRANCH   4  22
HETATM   22  C12 UNL     1      26.276   4.954  48.913  1.00  0.00     0.036 A 
HETATM   23  C13 UNL     1      27.638   4.666  48.791  1.00  0.00     0.029 A 
HETATM   24  C14 UNL     1      28.519   5.624  48.342  1.00  0.00     0.002 A 
HETATM   25  C15 UNL     1      28.054   6.869  48.013  1.00  0.00     0.000 A 
HETATM   26  C16 UNL     1      26.710   7.174  48.127  1.00  0.00     0.002 A 
HETATM   27  C17 UNL     1      25.827   6.214  48.577  1.00  0.00     0.029 A 
ENDBRANCH   4  22
TORSDOF 7
ENDMDL
MODEL 3
REMARK VINA RESULT:      -7.2      3.529      5.801
REMARK  7 active torsions:
REMARK  status: ('A' for Active; 'I' for Inactive)
REMARK    1  A    between atoms: C2_2  and  C3_3 
REMARK    2  A    between atoms: C3_3  and  N1_4 
REMARK    3  A    between atoms: N1_4  and  C4_5 
REMARK       I    between atoms: N1_4  and  C11_16 
REMARK    4  A    between atoms: C4_5  and  C5_6 
REMARK    5  A    between atoms: C9_11  and  P1_12 
REMARK    6  A    between atoms: C10_14  and  O1_15 
REMARK       I    between atoms: C11_16  and  N2_18 
REMARK    7  A    between atoms: N2_18  and  C12_19 
ROOT
HETATM    1  N1  UNL     1      23.026   3.434  50.789  1.00  0.00    -0.330 N 
HETATM    2  C11 UNL     1      24.099   4.175  50.171  1.00  0.00     0.323 C 
HETATM    3  O2  UNL     1      23.868   4.151  48.931  1.00  0.00    -0.247 OA
HETATM    4  N2  UNL     1      25.243   4.848  50.671  1.00  0.00    -0.309 N 
HETATM    5  H14 UNL     1      25.284   4.761  51.694  1.00  0.00     0.170 HD
ENDROOT
BRANCH   1   6
HETATM    6  C3  UNL     1      22.071   2.891  49.853  1.00  0.00     0.127 C 
BRANCH   6   7
HETATM    7  C2  UNL     1      20.662   3.110  50.374  1.00  0.00     0.015 C 
HETATM    8  C1  UNL     1      19.868   1.822  50.244  1.00  0.00     0.006 C 
ENDBRANCH   6   7
ENDBRANCH   1   6
BRANCH   1   9
HETATM    9  C4  UNL     1      22.681   3.130  52.167  1.00  0.00     0.169 C 
BRANCH   9  10
HETATM   10  C5  UNL     1      23.387   1.978  52.735  1.00  0.00    -0.004 A 
HETATM   11  C6  UNL     1      22.567   0.862  52.940  1.00  0.00     0.035 A 
HETATM   12  C7  UNL     1      23.017  -0.331  53.467  1.00  0.00     0.035 A 
HETATM   13 CL1  UNL     1      21.959  -1.705  53.709  1.00  0.00    -0.084 Cl
HETATM   14  C8  UNL     1      24.318  -0.475  53.821  1.00  0.00     0.040 A 
HETATM   15  C9  UNL     1      25.150   0.604  53.631  1.00  0.00     0.017 A 
HETATM   16  C10 UNL     1      24.694   1.790  53.106  1.00  0.00     0.085 A 
BRANCH  15  17
HETATM   17  P1  UNL     1      26.922   0.550  54.063  1.00  0.00     0.009 P 
HETATM   18 CL2  UNL     1      27.943  -1.037  53.139  1.00  0.00    -0.094 Cl
HETATM   19  H12 UNL     1      27.135   0.633  55.481  1.00  0.00     0.079 HD
ENDBRANCH  15  17
BRANCH  16  20
HETATM   20  O1  UNL     1      25.506   2.895  52.902  1.00  0.00    -0.359 OA
HETATM   21  H13 UNL     1      26.253   3.019  53.575  1.00  0.00     0.217 HD
ENDBRANCH  16  20
ENDBRANCH   9  10
ENDBRANCH   1   9
BRANCH   4  22
HETATM   22  C12 UNL     1      26.076   5.475  49.720  1.00  0.00     0.036 A 
HETATM   23  C13 UNL     1      27.137   4.662  49.311  1.00  0.00     0.029 A 
HETATM   24  C14 UNL     1      28.050   5.115  48.385  1.00  0.00     0.002 A 
HETATM   25  C15 UNL     1      27.916   6.373  47.863  1.00  0.00     0.000 A 
HETATM   26  C16 UNL     1      26.874   7.193  48.255  1.00  0.00     0.002 A 
HETATM   27  C17 UNL     1      25.958   6.739  49.183  1.00  0.00     0.029 A 
ENDBRANCH   4  22
TORSDOF 7
ENDMDL
MODEL 4
REMARK VINA RESULT:      -7.2      3.104      4.687
REMARK  7 active torsions:
REMARK  status: ('A' for Active; 'I' for Inactive)
REMARK    1  A    between atoms: C2_2  and  C3_3 
REMARK    2  A    between atoms: C3_3  and  N1_4 
REMARK    3  A    between atoms: N1_4  and  C4_5 
REMARK       I    between atoms: N1_4  and  C11_16 
REMARK    4  A    between atoms: C4_5  and  C5_6 
REMARK    5  A    between atoms: C9_11  and  P1_12 
REMARK    6  A    between atoms: C10_14  and  O1_15 
REMARK       I    between atoms: C11_16  and  N2_18 
REMARK    7  A    between atoms: N2_18  and  C12_19 
ROOT
HETATM    1  N1  UNL     1      25.005   2.498  51.754  1.00  0.00    -0.330 N 
HETATM    2  C11 UNL     1      26.049   1.593  52.173  1.00  0.00     0.323 C 
HETATM    3  O2  UNL     1      26.876   1.555  51.222  1.00  0.00    -0.247 OA
HETATM    4  N2  UNL     1      26.271   0.826  53.344  1.00  0.00    -0.309 N 
HETATM    5  H14 UNL     1      25.500   0.967  54.010  1.00  0.00     0.170 HD
ENDROOT
BRANCH   1   6
HETATM    6  C3  UNL     1      25.193   3.040  50.429  1.00  0.00     0.127 C 
BRANCH   6   7
HETATM    7  C2  UNL     1      24.941   4.537  50.449  1.00  0.00     0.015 C 
HETATM    8  C1  UNL     1      25.878   5.221  49.468  1.00  0.00     0.006 C 
ENDBRANCH   6   7
ENDBRANCH   1   6
BRANCH   1   9
HETATM    9  C4  UNL     1      23.801   3.004  52.391  1.00  0.00     0.169 C 
BRANCH   9  10
HETATM   10  C5  UNL     1      22.618   2.156  52.225  1.00  0.00    -0.004 A 
HETATM   11  C6  UNL     1      22.583   1.063  53.100  1.00  0.00     0.035 A 
HETATM   12  C7  UNL     1      21.566   0.130  53.119  1.00  0.00     0.035 A 
HETATM   13 CL1  UNL     1      21.560  -1.224  54.229  1.00  0.00    -0.084 Cl
HETATM   14  C8  UNL     1      20.523   0.239  52.261  1.00  0.00     0.040 A 
HETATM   15  C9  UNL     1      20.527   1.303  51.389  1.00  0.00     0.017 A 
HETATM   16  C10 UNL     1      21.544   2.228  51.375  1.00  0.00     0.085 A 
BRANCH  15  17
HETATM   17  P1  UNL     1      19.187   1.572  50.180  1.00  0.00     0.009 P 
HETATM   18 CL2  UNL     1      17.717   0.071  50.238  1.00  0.00    -0.094 Cl
HETATM   19  H12 UNL     1      19.694   1.841  48.863  1.00  0.00     0.079 HD
ENDBRANCH  15  17
BRANCH  16  20
HETATM   20  O1  UNL     1      21.578   3.311  50.510  1.00  0.00    -0.359 OA
HETATM   21  H13 UNL     1      21.840   4.196  50.928  1.00  0.00     0.217 HD
ENDBRANCH  16  20
ENDBRANCH   9  10
ENDBRANCH   1   9
BRANCH   4  22
HETATM   22  C12 UNL     1      27.446   0.046  53.378  1.00  0.00     0.036 A 
HETATM   23  C13 UNL     1      27.229  -1.275  52.977  1.00  0.00     0.029 A 
HETATM   24  C14 UNL     1      28.268  -2.179  52.949  1.00  0.00     0.002 A 
HETATM   25  C15 UNL     1      29.524  -1.777  53.319  1.00  0.00     0.000 A 
HETATM   26  C16 UNL     1      29.759  -0.474  53.719  1.00  0.00     0.002 A 
HETATM   27  C17 UNL     1      28.718   0.432  53.746  1.00  0.00     0.029 A 
ENDBRANCH   4  22
TORSDOF 7
ENDMDL
MODEL 5
REMARK VINA RESULT:      -7.1      3.207      4.245
REMARK  7 active torsions:
REMARK  status: ('A' for Active; 'I' for Inactive)
REMARK    1  A    between atoms: C2_2  and  C3_3 
REMARK    2  A    between atoms: C3_3  and  N1_4 
REMARK    3  A    between atoms: N1_4  and  C4_5 
REMARK       I    between atoms: N1_4  and  C11_16 
REMARK    4  A    between atoms: C4_5  and  C5_6 
REMARK    5  A    between atoms: C9_11  and  P1_12 
REMARK    6  A    between atoms: C10_14  and  O1_15 
REMARK       I    between atoms: C11_16  and  N2_18 
REMARK    7  A    between atoms: N2_18  and  C12_19 
ROOT
HETATM    1  N1  UNL     1      24.580   3.412  51.123  1.00  0.00    -0.330 N 
HETATM    2  C11 UNL     1      25.605   2.739  51.886  1.00  0.00     0.323 C 
HETATM    3  O2  UNL     1      25.169   2.672  53.068  1.00  0.00    -0.247 OA
HETATM    4  N2  UNL     1      26.877   2.202  51.563  1.00  0.00    -0.309 N 
HETATM    5  H14 UNL     1      27.079   2.349  50.566  1.00  0.00     0.170 HD
ENDROOT
BRANCH   1   6
HETATM    6  C3  UNL     1      23.434   3.813  51.903  1.00  0.00     0.127 C 
BRANCH   6   7
HETATM    7  C2  UNL     1      22.186   3.759  51.041  1.00  0.00     0.015 C 
HETATM    8  C1  UNL     1      21.325   4.979  51.321  1.00  0.00     0.006 C 
ENDBRANCH   6   7
ENDBRANCH   1   6
BRANCH   1   9
HETATM    9  C4  UNL     1      24.442   3.759  49.719  1.00  0.00     0.169 C 
BRANCH   9  10
HETATM   10  C5  UNL     1      25.273   4.884  49.282  1.00  0.00    -0.004 A 
HETATM   11  C6  UNL     1      24.572   6.091  49.173  1.00  0.00     0.035 A 
HETATM   12  C7  UNL     1      25.151   7.279  48.775  1.00  0.00     0.035 A 
HETATM   13 CL1  UNL     1      24.239   8.769  48.650  1.00  0.00    -0.084 Cl
HETATM   14  C8  UNL     1      26.469   7.325  48.462  1.00  0.00     0.040 A 
HETATM   15  C9  UNL     1      27.186   6.155  48.560  1.00  0.00     0.017 A 
HETATM   16  C10 UNL     1      26.602   4.975  48.957  1.00  0.00     0.085 A 
BRANCH  15  17
HETATM   17  P1  UNL     1      28.966   6.073  48.169  1.00  0.00     0.009 P 
HETATM   18 CL2  UNL     1      30.001   7.828  48.686  1.00  0.00    -0.094 Cl
HETATM   19  H12 UNL     1      29.204   5.631  46.823  1.00  0.00     0.079 HD
ENDBRANCH  15  17
BRANCH  16  20
HETATM   20  O1  UNL     1      27.296   3.780  49.066  1.00  0.00    -0.359 OA
HETATM   21  H13 UNL     1      26.728   2.960  49.240  1.00  0.00     0.217 HD
ENDBRANCH  16  20
ENDBRANCH   9  10
ENDBRANCH   1   9
BRANCH   4  22
HETATM   22  C12 UNL     1      27.598   1.602  52.617  1.00  0.00     0.036 A 
HETATM   23  C13 UNL     1      27.366   0.228  52.717  1.00  0.00     0.029 A 
HETATM   24  C14 UNL     1      27.990  -0.519  53.691  1.00  0.00     0.002 A 
HETATM   25  C15 UNL     1      28.844   0.094  54.569  1.00  0.00     0.000 A 
HETATM   26  C16 UNL     1      29.087   1.452  54.487  1.00  0.00     0.002 A 
HETATM   27  C17 UNL     1      28.462   2.201  53.510  1.00  0.00     0.029 A 
ENDBRANCH   4  22
TORSDOF 7
ENDMDL
MODEL 6
REMARK VINA RESULT:      -7.1      2.122      2.970
REMARK  7 active torsions:
REMARK  status: ('A' for Active; 'I' for Inactive)
REMARK    1  A    between atoms: C2_2  and  C3_3 
REMARK    2  A    between atoms: C3_3  and  N1_4 
REMARK    3  A    between atoms: N1_4  and  C4_5 
REMARK       I    between atoms: N1_4  and  C11_16 
REMARK    4  A    between atoms: C4_5  and  C5_6 
REMARK    5  A    between atoms: C9_11  and  P1_12 
REMARK    6  A    between atoms: C10_14  and  O1_15 
REMARK       I    between atoms: C11_16  and  N2_18 
REMARK    7  A    between atoms: N2_18  and  C12_19 
ROOT
HETATM    1  N1  UNL     1      23.966   1.844  51.737  1.00  0.00    -0.330 N 
HETATM    2  C11 UNL     1      25.185   1.237  52.218  1.00  0.00     0.323 C 
HETATM    3  O2  UNL     1      24.926   0.812  53.377  1.00  0.00    -0.247 OA
HETATM    4  N2  UNL     1      26.478   1.061  51.665  1.00  0.00    -0.309 N 
HETATM    5  H14 UNL     1      26.518   1.472  50.723  1.00  0.00     0.170 HD
ENDROOT
BRANCH   1   6
HETATM    6  C3  UNL     1      22.879   1.811  52.686  1.00  0.00     0.127 C 
BRANCH   6   7
HETATM    7  C2  UNL     1      21.654   1.191  52.039  1.00  0.00     0.015 C 
HETATM    8  C1  UNL     1      20.654   0.805  53.115  1.00  0.00     0.006 C 
ENDBRANCH   6   7
ENDBRANCH   1   6
BRANCH   1   9
HETATM    9  C4  UNL     1      23.585   2.469  50.483  1.00  0.00     0.169 C 
BRANCH   9  10
HETATM   10  C5  UNL     1      24.191   3.782  50.244  1.00  0.00    -0.004 A 
HETATM   11  C6  UNL     1      25.446   3.717  49.625  1.00  0.00     0.035 A 
HETATM   12  C7  UNL     1      26.201   4.828  49.309  1.00  0.00     0.035 A 
HETATM   13 CL1  UNL     1      27.767   4.704  48.535  1.00  0.00    -0.084 Cl
HETATM   14  C8  UNL     1      25.742   6.070  49.596  1.00  0.00     0.040 A 
HETATM   15  C9  UNL     1      24.512   6.168  50.204  1.00  0.00     0.017 A 
HETATM   16  C10 UNL     1      23.765   5.057  50.516  1.00  0.00     0.085 A 
BRANCH  15  17
HETATM   17  P1  UNL     1      23.774   7.777  50.646  1.00  0.00     0.009 P 
HETATM   18 CL2  UNL     1      22.021   8.199  49.567  1.00  0.00    -0.094 Cl
HETATM   19  H12 UNL     1      24.741   8.839  50.626  1.00  0.00     0.079 HD
ENDBRANCH  15  17
BRANCH  16  20
HETATM   20  O1  UNL     1      22.523   5.120  51.129  1.00  0.00    -0.359 OA
HETATM   21  H13 UNL     1      21.818   5.651  50.631  1.00  0.00     0.217 HD
ENDBRANCH  16  20
ENDBRANCH   9  10
ENDBRANCH   1   9
BRANCH   4  22
HETATM   22  C12 UNL     1      27.427   0.395  52.470  1.00  0.00     0.036 A 
HETATM   23  C13 UNL     1      28.293   1.274  53.125  1.00  0.00     0.029 A 
HETATM   24  C14 UNL     1      29.283   0.795  53.953  1.00  0.00     0.002 A 
HETATM   25  C15 UNL     1      29.419  -0.555  54.134  1.00  0.00     0.000 A 
HETATM   26  C16 UNL     1      28.572  -1.442  53.495  1.00  0.00     0.002 A 
HETATM   27  C17 UNL     1      27.579  -0.962  52.664  1.00  0.00     0.029 A 
ENDBRANCH   4  22
TORSDOF 7
ENDMDL
MODEL 7
REMARK VINA RESULT:      -6.9      3.900      6.411
REMARK  7 active torsions:
REMARK  status: ('A' for Active; 'I' for Inactive)
REMARK    1  A    between atoms: C2_2  and  C3_3 
REMARK    2  A    between atoms: C3_3  and  N1_4 
REMARK    3  A    between atoms: N1_4  and  C4_5 
REMARK       I    between atoms: N1_4  and  C11_16 
REMARK    4  A    between atoms: C4_5  and  C5_6 
REMARK    5  A    between atoms: C9_11  and  P1_12 
REMARK    6  A    between atoms: C10_14  and  O1_15 
REMARK       I    between atoms: C11_16  and  N2_18 
REMARK    7  A    between atoms: N2_18  and  C12_19 
ROOT
HETATM    1  N1  UNL     1      23.567   3.647  51.059  1.00  0.00    -0.330 N 
HETATM    2  C11 UNL     1      24.582   4.392  50.353  1.00  0.00     0.323 C 
HETATM    3  O2  UNL     1      24.672   5.502  50.946  1.00  0.00    -0.247 OA
HETATM    4  N2  UNL     1      25.400   4.115  49.229  1.00  0.00    -0.309 N 
HETATM    5  H14 UNL     1      25.192   3.177  48.864  1.00  0.00     0.170 HD
ENDROOT
BRANCH   1   6
HETATM    6  C3  UNL     1      22.968   4.365  52.159  1.00  0.00     0.127 C 
BRANCH   6   7
HETATM    7  C2  UNL     1      21.462   4.410  51.981  1.00  0.00     0.015 C 
HETATM    8  C1  UNL     1      21.099   5.526  51.016  1.00  0.00     0.006 C 
ENDBRANCH   6   7
ENDBRANCH   1   6
BRANCH   1   9
HETATM    9  C4  UNL     1      23.024   2.307  50.915  1.00  0.00     0.169 C 
BRANCH   9  10
HETATM   10  C5  UNL     1      23.509   1.341  51.905  1.00  0.00    -0.004 A 
HETATM   11  C6  UNL     1      24.886   1.101  51.829  1.00  0.00     0.035 A 
HETATM   12  C7  UNL     1      25.557   0.227  52.660  1.00  0.00     0.035 A 
HETATM   13 CL1  UNL     1      27.282  -0.046  52.532  1.00  0.00    -0.084 Cl
HETATM   14  C8  UNL     1      24.885  -0.459  53.616  1.00  0.00     0.040 A 
HETATM   15  C9  UNL     1      23.530  -0.244  53.717  1.00  0.00     0.017 A 
HETATM   16  C10 UNL     1      22.868   0.628  52.886  1.00  0.00     0.085 A 
BRANCH  15  17
HETATM   17  P1  UNL     1      22.503  -1.100  54.959  1.00  0.00     0.009 P 
HETATM   18 CL2  UNL     1      20.709  -1.852  54.162  1.00  0.00    -0.094 Cl
HETATM   19  H12 UNL     1      22.328  -0.314  56.149  1.00  0.00     0.079 HD
ENDBRANCH  15  17
BRANCH  16  20
HETATM   20  O1  UNL     1      21.504   0.866  52.961  1.00  0.00    -0.359 OA
HETATM   21  H13 UNL     1      21.210   1.803  52.712  1.00  0.00     0.217 HD
ENDBRANCH  16  20
ENDBRANCH   9  10
ENDBRANCH   1   9
BRANCH   4  22
HETATM   22  C12 UNL     1      26.299   5.128  48.833  1.00  0.00     0.036 A 
HETATM   23  C13 UNL     1      27.618   4.675  48.741  1.00  0.00     0.029 A 
HETATM   24  C14 UNL     1      28.628   5.532  48.367  1.00  0.00     0.002 A 
HETATM   25  C15 UNL     1      28.336   6.839  48.084  1.00  0.00     0.000 A 
HETATM   26  C16 UNL     1      27.038   7.307  48.170  1.00  0.00     0.002 A 
HETATM   27  C17 UNL     1      26.025   6.448  48.545  1.00  0.00     0.029 A 
ENDBRANCH   4  22
TORSDOF 7
ENDMDL
MODEL 8
REMARK VINA RESULT:      -6.9      2.770      4.017
REMARK  7 active torsions:
REMARK  status: ('A' for Active; 'I' for Inactive)
REMARK    1  A    between atoms: C2_2  and  C3_3 
REMARK    2  A    between atoms: C3_3  and  N1_4 
REMARK    3  A    between atoms: N1_4  and  C4_5 
REMARK       I    between atoms: N1_4  and  C11_16 
REMARK    4  A    between atoms: C4_5  and  C5_6 
REMARK    5  A    between atoms: C9_11  and  P1_12 
REMARK    6  A    between atoms: C10_14  and  O1_15 
REMARK       I    between atoms: C11_16  and  N2_18 
REMARK    7  A    between atoms: N2_18  and  C12_19 
ROOT
HETATM    1  N1  UNL     1      24.329   3.125  51.354  1.00  0.00    -0.330 N 
HETATM    2  C11 UNL     1      25.449   2.526  52.039  1.00  0.00     0.323 C 
HETATM    3  O2  UNL     1      25.125   2.479  53.258  1.00  0.00    -0.247 OA
HETATM    4  N2  UNL     1      26.712   2.039  51.617  1.00  0.00    -0.309 N 
HETATM    5  H14 UNL     1      26.816   2.161  50.602  1.00  0.00     0.170 HD
ENDROOT
BRANCH   1   6
HETATM    6  C3  UNL     1      23.239   3.498  52.224  1.00  0.00     0.127 C 
BRANCH   6   7
HETATM    7  C2  UNL     1      21.926   3.012  51.635  1.00  0.00     0.015 C 
HETATM    8  C1  UNL     1      20.850   4.058  51.866  1.00  0.00     0.006 C 
ENDBRANCH   6   7
ENDBRANCH   1   6
BRANCH   1   9
HETATM    9  C4  UNL     1      24.047   3.418  49.959  1.00  0.00     0.169 C 
BRANCH   9  10
HETATM   10  C5  UNL     1      24.690   4.632  49.448  1.00  0.00    -0.004 A 
HETATM   11  C6  UNL     1      26.054   4.472  49.175  1.00  0.00     0.035 A 
HETATM   12  C7  UNL     1      26.860   5.482  48.689  1.00  0.00     0.035 A 
HETATM   13 CL1  UNL     1      28.564   5.242  48.361  1.00  0.00    -0.084 Cl
HETATM   14  C8  UNL     1      26.345   6.712  48.450  1.00  0.00     0.040 A 
HETATM   15  C9  UNL     1      25.008   6.901  48.707  1.00  0.00     0.017 A 
HETATM   16  C10 UNL     1      24.210   5.891  49.191  1.00  0.00     0.085 A 
BRANCH  15  17
HETATM   17  P1  UNL     1      24.184   8.505  48.430  1.00  0.00     0.009 P 
HETATM   18 CL2  UNL     1      22.733   8.432  46.911  1.00  0.00    -0.094 Cl
HETATM   19  H12 UNL     1      25.127   9.579  48.284  1.00  0.00     0.079 HD
ENDBRANCH  15  17
BRANCH  16  20
HETATM   20  O1  UNL     1      22.859   6.048  49.461  1.00  0.00    -0.359 OA
HETATM   21  H13 UNL     1      22.438   6.896  49.102  1.00  0.00     0.217 HD
ENDBRANCH  16  20
ENDBRANCH   9  10
ENDBRANCH   1   9
BRANCH   4  22
HETATM   22  C12 UNL     1      27.554   1.508  52.617  1.00  0.00     0.036 A 
HETATM   23  C13 UNL     1      27.438   0.121  52.742  1.00  0.00     0.029 A 
HETATM   24  C14 UNL     1      28.188  -0.564  53.671  1.00  0.00     0.002 A 
HETATM   25  C15 UNL     1      29.054   0.122  54.480  1.00  0.00     0.000 A 
HETATM   26  C16 UNL     1      29.183   1.494  54.373  1.00  0.00     0.002 A 
HETATM   27  C17 UNL     1      28.431   2.181  53.441  1.00  0.00     0.029 A 
ENDBRANCH   4  22
TORSDOF 7
ENDMDL
MODEL 9
REMARK VINA RESULT:      -6.8      2.171      2.780
REMARK  7 active torsions:
REMARK  status: ('A' for Active; 'I' for Inactive)
REMARK    1  A    between atoms: C2_2  and  C3_3 
REMARK    2  A    between atoms: C3_3  and  N1_4 
REMARK    3  A    between atoms: N1_4  and  C4_5 
REMARK       I    between atoms: N1_4  and  C11_16 
REMARK    4  A    between atoms: C4_5  and  C5_6 
REMARK    5  A    between atoms: C9_11  and  P1_12 
REMARK    6  A    between atoms: C10_14  and  O1_15 
REMARK       I    between atoms: C11_16  and  N2_18 
REMARK    7  A    between atoms: N2_18  and  C12_19 
ROOT
HETATM    1  N1  UNL     1      23.574   2.646  51.497  1.00  0.00    -0.330 N 
HETATM    2  C11 UNL     1      24.712   2.143  52.231  1.00  0.00     0.323 C 
HETATM    3  O2  UNL     1      24.843   0.938  51.884  1.00  0.00    -0.247 OA
HETATM    4  N2  UNL     1      25.604   2.716  53.172  1.00  0.00    -0.309 N 
HETATM    5  H14 UNL     1      25.349   3.696  53.348  1.00  0.00     0.170 HD
ENDROOT
BRANCH   1   6
HETATM    6  C3  UNL     1      22.941   1.664  50.650  1.00  0.00     0.127 C 
BRANCH   6   7
HETATM    7  C2  UNL     1      21.467   1.564  50.997  1.00  0.00     0.015 C 
HETATM    8  C1  UNL     1      21.305   0.813  52.307  1.00  0.00     0.006 C 
ENDBRANCH   6   7
ENDBRANCH   1   6
BRANCH   1   9
HETATM    9  C4  UNL     1      22.933   3.946  51.410  1.00  0.00     0.169 C 
BRANCH   9  10
HETATM   10  C5  UNL     1      23.389   4.779  50.293  1.00  0.00    -0.004 A 
HETATM   11  C6  UNL     1      22.379   5.091  49.375  1.00  0.00     0.035 A 
HETATM   12  C7  UNL     1      22.581   5.859  48.247  1.00  0.00     0.035 A 
HETATM   13 CL1  UNL     1      21.289   6.227  47.122  1.00  0.00    -0.084 Cl
HETATM   14  C8  UNL     1      23.810   6.358  47.971  1.00  0.00     0.040 A 
HETATM   15  C9  UNL     1      24.824   6.070  48.854  1.00  0.00     0.017 A 
HETATM   16  C10 UNL     1      24.616   5.304  49.977  1.00  0.00     0.085 A 
BRANCH  15  17
HETATM   17  P1  UNL     1      26.527   6.678  48.607  1.00  0.00     0.009 P 
HETATM   18 CL2  UNL     1      27.932   5.126  48.417  1.00  0.00    -0.094 Cl
HETATM   19  H12 UNL     1      26.890   7.677  49.573  1.00  0.00     0.079 HD
ENDBRANCH  15  17
BRANCH  16  20
HETATM   20  O1  UNL     1      25.616   4.995  50.886  1.00  0.00    -0.359 OA
HETATM   21  H13 UNL     1      26.027   4.075  50.787  1.00  0.00     0.217 HD
ENDBRANCH  16  20
ENDBRANCH   9  10
ENDBRANCH   1   9
BRANCH   4  22
HETATM   22  C12 UNL     1      26.621   1.877  53.675  1.00  0.00     0.036 A 
HETATM   23  C13 UNL     1      27.889   2.220  53.200  1.00  0.00     0.029 A 
HETATM   24  C14 UNL     1      29.000   1.505  53.589  1.00  0.00     0.002 A 
HETATM   25  C15 UNL     1      28.858   0.449  54.448  1.00  0.00     0.000 A 
HETATM   26  C16 UNL     1      27.611   0.093  54.929  1.00  0.00     0.002 A 
HETATM   27  C17 UNL     1      26.497   0.810  54.540  1.00  0.00     0.029 A 
ENDBRANCH   4  22
TORSDOF 7
ENDMDL
