MODEL 1
REMARK VINA RESULT:      -9.3      0.000      0.000
REMARK  7 active torsions:
REMARK  status: ('A' for Active; 'I' for Inactive)
REMARK    1  A    between atoms: N1_1  and  C1_2 
REMARK    2  A    between atoms: C5_8  and  C6_9 
REMARK    3  A    between atoms: C10_13  and  O1_14 
REMARK    4  A    between atoms: O1_14  and  C11_15 
REMARK    5  A    between atoms: C11_15  and  C12_16 
REMARK    6  A    between atoms: N4_25  and  C20_26 
REMARK    7  A    between atoms: C22_28  and  N5_29 
ROOT
HETATM    1  C1  UNL     1      25.062   7.518  50.076  1.00  0.00     0.137 A 
HETATM    2  N2  UNL     1      25.265   8.852  50.162  1.00  0.00    -0.224 NA
HETATM    3  C2  UNL     1      26.398   9.384  49.668  1.00  0.00     0.237 A 
HETATM    4  N3  UNL     1      27.344   8.619  49.083  1.00  0.00    -0.223 NA
HETATM    5  C3  UNL     1      27.218   7.282  48.956  1.00  0.00     0.146 A 
HETATM    6  C4  UNL     1      26.049   6.768  49.472  1.00  0.00     0.068 A 
HETATM    7  C5  UNL     1      26.005   5.401  49.297  1.00  0.00     0.008 A 
HETATM    8  C19 UNL     1      27.211   5.121  48.646  1.00  0.00     0.106 A 
HETATM    9  N4  UNL     1      27.916   6.247  48.453  1.00  0.00    -0.335 N 
ENDROOT
BRANCH   7  10
HETATM   10  C6  UNL     1      25.097   4.310  49.622  1.00  0.00    -0.021 A 
HETATM   11  C7  UNL     1      23.968   3.881  48.960  1.00  0.00     0.012 A 
HETATM   12  C8  UNL     1      23.238   2.805  49.418  1.00  0.00     0.004 A 
HETATM   13  C9  UNL     1      23.598   2.111  50.552  1.00  0.00     0.037 A 
HETATM   14  C10 UNL     1      24.722   2.511  51.244  1.00  0.00     0.069 A 
HETATM   15  C18 UNL     1      25.440   3.589  50.770  1.00  0.00     0.049 A 
BRANCH  14  16
HETATM   16  O1  UNL     1      25.062   1.802  52.376  1.00  0.00    -0.348 OA
BRANCH  16  17
HETATM   17  C11 UNL     1      25.822   2.243  53.450  1.00  0.00     0.213 C 
BRANCH  17  18
HETATM   18  C12 UNL     1      27.070   1.434  53.609  1.00  0.00     0.083 C 
HETATM   19  C13 UNL     1      28.332   2.230  53.462  1.00  0.00     0.043 C 
HETATM   20  C14 UNL     1      29.320   1.413  54.269  1.00  0.00     0.035 C 
HETATM   21  C15 UNL     1      28.461   0.239  54.673  1.00  0.00     0.122 C 
HETATM   22  C16 UNL     1      28.193  -0.604  53.455  1.00  0.00     0.035 C 
HETATM   23  O2  UNL     1      27.213   0.867  54.870  1.00  0.00    -0.373 OA
HETATM   24  C17 UNL     1      27.135   0.236  52.727  1.00  0.00     0.043 C 
ENDBRANCH  17  18
ENDBRANCH  16  17
ENDBRANCH  14  16
ENDBRANCH   7  10
BRANCH   1  25
HETATM   25  N1  UNL     1      23.857   6.975  50.592  1.00  0.00    -0.383 N 
HETATM   26  H1  UNL     1      23.207   7.640  51.105  1.00  0.00     0.157 HD
HETATM   27  H2  UNL     1      23.903   5.965  50.321  1.00  0.00     0.157 HD
ENDBRANCH   1  25
BRANCH   9  28
HETATM   28  C20 UNL     1      29.201   6.389  47.825  1.00  0.00     0.095 C 
HETATM   29  C21 UNL     1      30.300   6.948  48.736  1.00  0.00     0.061 C 
HETATM   30  C22 UNL     1      31.228   6.025  47.934  1.00  0.00     0.227 C 
HETATM   31  C26 UNL     1      30.025   5.109  47.832  1.00  0.00     0.061 C 
BRANCH  30  32
HETATM   32  N5  UNL     1      32.379   5.545  48.606  1.00  0.00     0.093 N 
HETATM   33  C23 UNL     1      33.527   6.377  48.277  1.00  0.00     0.274 C 
HETATM   34  C24 UNL     1      33.945   5.321  47.274  1.00  0.00     0.060 C 
HETATM   35  C25 UNL     1      33.085   4.418  48.091  1.00  0.00     0.274 C 
ENDBRANCH  30  32
ENDBRANCH   9  28
TORSDOF 7
ENDMDL
MODEL 2
REMARK VINA RESULT:      -9.2      0.905      1.016
REMARK  7 active torsions:
REMARK  status: ('A' for Active; 'I' for Inactive)
REMARK    1  A    between atoms: N1_1  and  C1_2 
REMARK    2  A    between atoms: C5_8  and  C6_9 
REMARK    3  A    between atoms: C10_13  and  O1_14 
REMARK    4  A    between atoms: O1_14  and  C11_15 
REMARK    5  A    between atoms: C11_15  and  C12_16 
REMARK    6  A    between atoms: N4_25  and  C20_26 
REMARK    7  A    between atoms: C22_28  and  N5_29 
ROOT
HETATM    1  C1  UNL     1      26.257   8.243  49.948  1.00  0.00     0.137 A 
HETATM    2  N2  UNL     1      26.676   9.520  50.095  1.00  0.00    -0.224 NA
HETATM    3  C2  UNL     1      27.875   9.885  49.607  1.00  0.00     0.237 A 
HETATM    4  N3  UNL     1      28.678   9.007  48.969  1.00  0.00    -0.223 NA
HETATM    5  C3  UNL     1      28.334   7.717  48.779  1.00  0.00     0.146 A 
HETATM    6  C4  UNL     1      27.102   7.374  49.291  1.00  0.00     0.068 A 
HETATM    7  C5  UNL     1      26.833   6.044  49.050  1.00  0.00     0.008 A 
HETATM    8  C19 UNL     1      27.971   5.604  48.365  1.00  0.00     0.106 A 
HETATM    9  N4  UNL     1      28.849   6.609  48.214  1.00  0.00    -0.335 N 
ENDROOT
BRANCH   7  10
HETATM   10  C6  UNL     1      25.762   5.100  49.338  1.00  0.00    -0.021 A 
HETATM   11  C7  UNL     1      24.471   5.065  48.861  1.00  0.00     0.012 A 
HETATM   12  C8  UNL     1      23.596   4.070  49.241  1.00  0.00     0.004 A 
HETATM   13  C9  UNL     1      23.966   3.069  50.112  1.00  0.00     0.037 A 
HETATM   14  C10 UNL     1      25.251   3.069  50.613  1.00  0.00     0.069 A 
HETATM   15  C18 UNL     1      26.112   4.072  50.220  1.00  0.00     0.049 A 
BRANCH  14  16
HETATM   16  O1  UNL     1      25.599   2.058  51.481  1.00  0.00    -0.348 OA
BRANCH  16  17
HETATM   17  C11 UNL     1      25.775   2.149  52.855  1.00  0.00     0.213 C 
BRANCH  17  18
HETATM   18  C12 UNL     1      27.004   1.422  53.301  1.00  0.00     0.083 C 
HETATM   19  C13 UNL     1      28.250   2.254  53.258  1.00  0.00     0.043 C 
HETATM   20  C14 UNL     1      29.119   1.581  54.300  1.00  0.00     0.035 C 
HETATM   21  C15 UNL     1      28.239   0.421  54.704  1.00  0.00     0.122 C 
HETATM   22  C16 UNL     1      28.192  -0.566  53.569  1.00  0.00     0.035 C 
HETATM   23  O2  UNL     1      26.960   1.010  54.628  1.00  0.00    -0.373 OA
HETATM   24  C17 UNL     1      27.241   0.136  52.590  1.00  0.00     0.043 C 
ENDBRANCH  17  18
ENDBRANCH  16  17
ENDBRANCH  14  16
ENDBRANCH   7  10
BRANCH   1  25
HETATM   25  N1  UNL     1      24.984   7.878  50.459  1.00  0.00    -0.383 N 
HETATM   26  H1  UNL     1      24.870   6.879  50.801  1.00  0.00     0.157 HD
HETATM   27  H2  UNL     1      24.418   8.752  50.366  1.00  0.00     0.157 HD
ENDBRANCH   1  25
BRANCH   9  28
HETATM   28  C20 UNL     1      30.133   6.571  47.570  1.00  0.00     0.095 C 
HETATM   29  C21 UNL     1      31.319   6.890  48.489  1.00  0.00     0.061 C 
HETATM   30  C22 UNL     1      32.072   5.873  47.622  1.00  0.00     0.227 C 
HETATM   31  C26 UNL     1      30.733   5.175  47.495  1.00  0.00     0.061 C 
BRANCH  30  32
HETATM   32  N5  UNL     1      33.135   5.173  48.246  1.00  0.00     0.093 N 
HETATM   33  C23 UNL     1      34.407   5.782  47.887  1.00  0.00     0.274 C 
HETATM   34  C24 UNL     1      34.586   4.687  46.857  1.00  0.00     0.060 C 
HETATM   35  C25 UNL     1      33.600   3.945  47.691  1.00  0.00     0.274 C 
ENDBRANCH  30  32
ENDBRANCH   9  28
TORSDOF 7
ENDMDL
MODEL 3
REMARK VINA RESULT:      -9.1      3.411      6.298
REMARK  7 active torsions:
REMARK  status: ('A' for Active; 'I' for Inactive)
REMARK    1  A    between atoms: N1_1  and  C1_2 
REMARK    2  A    between atoms: C5_8  and  C6_9 
REMARK    3  A    between atoms: C10_13  and  O1_14 
REMARK    4  A    between atoms: O1_14  and  C11_15 
REMARK    5  A    between atoms: C11_15  and  C12_16 
REMARK    6  A    between atoms: N4_25  and  C20_26 
REMARK    7  A    between atoms: C22_28  and  N5_29 
ROOT
HETATM    1  C1  UNL     1      19.484   0.976  50.980  1.00  0.00     0.137 A 
HETATM    2  N2  UNL     1      18.558   1.300  50.049  1.00  0.00    -0.224 NA
HETATM    3  C2  UNL     1      18.790   2.325  49.209  1.00  0.00     0.237 A 
HETATM    4  N3  UNL     1      19.931   3.045  49.269  1.00  0.00    -0.223 NA
HETATM    5  C3  UNL     1      20.904   2.787  50.166  1.00  0.00     0.146 A 
HETATM    6  C4  UNL     1      20.636   1.733  51.012  1.00  0.00     0.068 A 
HETATM    7  C5  UNL     1      21.682   1.540  51.889  1.00  0.00     0.008 A 
HETATM    8  C19 UNL     1      22.595   2.536  51.525  1.00  0.00     0.106 A 
HETATM    9  N4  UNL     1      22.117   3.264  50.503  1.00  0.00    -0.335 N 
ENDROOT
BRANCH   7  10
HETATM   10  C6  UNL     1      21.998   0.649  52.997  1.00  0.00    -0.021 A 
HETATM   11  C7  UNL     1      21.180   0.163  53.993  1.00  0.00     0.012 A 
HETATM   12  C8  UNL     1      21.663  -0.694  54.957  1.00  0.00     0.004 A 
HETATM   13  C9  UNL     1      22.978  -1.105  54.974  1.00  0.00     0.037 A 
HETATM   14  C10 UNL     1      23.829  -0.640  53.993  1.00  0.00     0.069 A 
HETATM   15  C18 UNL     1      23.327   0.217  53.036  1.00  0.00     0.049 A 
BRANCH  14  16
HETATM   16  O1  UNL     1      25.139  -1.064  54.029  1.00  0.00    -0.348 OA
BRANCH  16  17
HETATM   17  C11 UNL     1      26.052  -1.073  52.984  1.00  0.00     0.213 C 
BRANCH  17  18
HETATM   18  C12 UNL     1      27.354  -0.455  53.386  1.00  0.00     0.083 C 
HETATM   19  C13 UNL     1      27.549   0.938  52.870  1.00  0.00     0.043 C 
HETATM   20  C14 UNL     1      28.512   1.522  53.883  1.00  0.00     0.035 C 
HETATM   21  C15 UNL     1      28.764   0.323  54.766  1.00  0.00     0.122 C 
HETATM   22  C16 UNL     1      29.593  -0.673  54.000  1.00  0.00     0.035 C 
HETATM   23  O2  UNL     1      27.495  -0.292  54.760  1.00  0.00    -0.373 OA
HETATM   24  C17 UNL     1      28.548  -1.279  53.054  1.00  0.00     0.043 C 
ENDBRANCH  17  18
ENDBRANCH  16  17
ENDBRANCH  14  16
ENDBRANCH   7  10
BRANCH   1  25
HETATM   25  N1  UNL     1      19.227  -0.114  51.850  1.00  0.00    -0.383 N 
HETATM   26  H1  UNL     1      20.065  -0.675  52.183  1.00  0.00     0.157 HD
HETATM   27  H2  UNL     1      18.187  -0.103  51.963  1.00  0.00     0.157 HD
ENDBRANCH   1  25
BRANCH   9  28
HETATM   28  C20 UNL     1      22.744   4.374  49.840  1.00  0.00     0.095 C 
HETATM   29  C21 UNL     1      23.583   5.275  50.755  1.00  0.00     0.061 C 
HETATM   30  C22 UNL     1      24.480   5.440  49.521  1.00  0.00     0.227 C 
HETATM   31  C26 UNL     1      24.072   4.020  49.187  1.00  0.00     0.061 C 
BRANCH  30  32
HETATM   32  N5  UNL     1      25.851   5.703  49.766  1.00  0.00     0.093 N 
HETATM   33  C23 UNL     1      26.096   7.137  49.724  1.00  0.00     0.274 C 
HETATM   34  C24 UNL     1      26.611   6.960  48.311  1.00  0.00     0.060 C 
HETATM   35  C25 UNL     1      26.804   5.539  48.718  1.00  0.00     0.274 C 
ENDBRANCH  30  32
ENDBRANCH   9  28
TORSDOF 7
ENDMDL
MODEL 4
REMARK VINA RESULT:      -9.0      6.502     10.015
REMARK  7 active torsions:
REMARK  status: ('A' for Active; 'I' for Inactive)
REMARK    1  A    between atoms: N1_1  and  C1_2 
REMARK    2  A    between atoms: C5_8  and  C6_9 
REMARK    3  A    between atoms: C10_13  and  O1_14 
REMARK    4  A    between atoms: O1_14  and  C11_15 
REMARK    5  A    between atoms: C11_15  and  C12_16 
REMARK    6  A    between atoms: N4_25  and  C20_26 
REMARK    7  A    between atoms: C22_28  and  N5_29 
ROOT
HETATM    1  C1  UNL     1      20.984  -0.747  53.957  1.00  0.00     0.137 A 
HETATM    2  N2  UNL     1      21.439  -1.492  54.990  1.00  0.00    -0.224 NA
HETATM    3  C2  UNL     1      22.756  -1.514  55.262  1.00  0.00     0.237 A 
HETATM    4  N3  UNL     1      23.643  -0.808  54.528  1.00  0.00    -0.223 NA
HETATM    5  C3  UNL     1      23.272  -0.041  53.483  1.00  0.00     0.146 A 
HETATM    6  C4  UNL     1      21.918  -0.039  53.230  1.00  0.00     0.068 A 
HETATM    7  C5  UNL     1      21.630   0.770  52.152  1.00  0.00     0.008 A 
HETATM    8  C19 UNL     1      22.885   1.257  51.771  1.00  0.00     0.106 A 
HETATM    9  N4  UNL     1      23.845   0.765  52.570  1.00  0.00    -0.335 N 
ENDROOT
BRANCH   7  10
HETATM   10  C6  UNL     1      20.449   1.165  51.397  1.00  0.00    -0.021 A 
HETATM   11  C7  UNL     1      20.019   0.745  50.158  1.00  0.00     0.012 A 
HETATM   12  C8  UNL     1      18.851   1.227  49.607  1.00  0.00     0.004 A 
HETATM   13  C9  UNL     1      18.061   2.146  50.263  1.00  0.00     0.037 A 
HETATM   14  C10 UNL     1      18.459   2.592  51.506  1.00  0.00     0.069 A 
HETATM   15  C18 UNL     1      19.630   2.097  52.041  1.00  0.00     0.049 A 
BRANCH  14  16
HETATM   16  O1  UNL     1      17.654   3.511  52.143  1.00  0.00    -0.348 OA
BRANCH  16  17
HETATM   17  C11 UNL     1      16.576   4.202  51.608  1.00  0.00     0.213 C 
BRANCH  17  18
HETATM   18  C12 UNL     1      15.288   3.789  52.247  1.00  0.00     0.083 C 
HETATM   19  C13 UNL     1      15.034   4.435  53.575  1.00  0.00     0.043 C 
HETATM   20  C14 UNL     1      13.523   4.394  53.667  1.00  0.00     0.035 C 
HETATM   21  C15 UNL     1      13.177   3.652  52.397  1.00  0.00     0.122 C 
HETATM   22  C16 UNL     1      13.595   2.214  52.551  1.00  0.00     0.035 C 
HETATM   23  O2  UNL     1      14.161   4.146  51.515  1.00  0.00    -0.373 OA
HETATM   24  C17 UNL     1      15.116   2.315  52.371  1.00  0.00     0.043 C 
ENDBRANCH  17  18
ENDBRANCH  16  17
ENDBRANCH  14  16
ENDBRANCH   7  10
BRANCH   1  25
HETATM   25  N1  UNL     1      19.590  -0.726  53.691  1.00  0.00    -0.383 N 
HETATM   26  H1  UNL     1      19.232  -1.379  52.934  1.00  0.00     0.157 HD
HETATM   27  H2  UNL     1      19.220  -0.011  54.359  1.00  0.00     0.157 HD
ENDBRANCH   1  25
BRANCH   9  28
HETATM   28  C20 UNL     1      25.258   1.018  52.513  1.00  0.00     0.095 C 
HETATM   29  C21 UNL     1      25.929   1.213  53.878  1.00  0.00     0.061 C 
HETATM   30  C22 UNL     1      27.132   0.526  53.218  1.00  0.00     0.227 C 
HETATM   31  C26 UNL     1      26.099  -0.247  52.424  1.00  0.00     0.061 C 
BRANCH  30  32
HETATM   32  N5  UNL     1      27.997  -0.199  54.075  1.00  0.00     0.093 N 
HETATM   33  C23 UNL     1      29.080   0.661  54.527  1.00  0.00     0.274 C 
HETATM   34  C24 UNL     1      29.961   0.028  53.471  1.00  0.00     0.060 C 
HETATM   35  C25 UNL     1      28.969  -1.083  53.523  1.00  0.00     0.274 C 
ENDBRANCH  30  32
ENDBRANCH   9  28
TORSDOF 7
ENDMDL
MODEL 5
REMARK VINA RESULT:      -8.9      2.886      5.076
REMARK  7 active torsions:
REMARK  status: ('A' for Active; 'I' for Inactive)
REMARK    1  A    between atoms: N1_1  and  C1_2 
REMARK    2  A    between atoms: C5_8  and  C6_9 
REMARK    3  A    between atoms: C10_13  and  O1_14 
REMARK    4  A    between atoms: O1_14  and  C11_15 
REMARK    5  A    between atoms: C11_15  and  C12_16 
REMARK    6  A    between atoms: N4_25  and  C20_26 
REMARK    7  A    between atoms: C22_28  and  N5_29 
ROOT
HETATM    1  C1  UNL     1      21.737   1.966  48.721  1.00  0.00     0.137 A 
HETATM    2  N2  UNL     1      21.436   2.224  47.428  1.00  0.00    -0.224 NA
HETATM    3  C2  UNL     1      21.740   3.423  46.902  1.00  0.00     0.237 A 
HETATM    4  N3  UNL     1      22.344   4.385  47.633  1.00  0.00    -0.223 NA
HETATM    5  C3  UNL     1      22.678   4.209  48.927  1.00  0.00     0.146 A 
HETATM    6  C4  UNL     1      22.352   2.972  49.437  1.00  0.00     0.068 A 
HETATM    7  C5  UNL     1      22.731   2.879  50.759  1.00  0.00     0.008 A 
HETATM    8  C19 UNL     1      23.304   4.130  51.017  1.00  0.00     0.106 A 
HETATM    9  N4  UNL     1      23.263   4.904  49.921  1.00  0.00    -0.335 N 
ENDROOT
BRANCH   7  10
HETATM   10  C6  UNL     1      22.655   1.893  51.827  1.00  0.00    -0.021 A 
HETATM   11  C7  UNL     1      21.563   1.463  52.549  1.00  0.00     0.012 A 
HETATM   12  C8  UNL     1      21.687   0.496  53.522  1.00  0.00     0.004 A 
HETATM   13  C9  UNL     1      22.900  -0.086  53.820  1.00  0.00     0.037 A 
HETATM   14  C10 UNL     1      24.017   0.317  53.120  1.00  0.00     0.069 A 
HETATM   15  C18 UNL     1      23.873   1.286  52.149  1.00  0.00     0.049 A 
BRANCH  14  16
HETATM   16  O1  UNL     1      25.219  -0.278  53.435  1.00  0.00    -0.348 OA
BRANCH  16  17
HETATM   17  C11 UNL     1      26.032  -0.011  54.527  1.00  0.00     0.213 C 
BRANCH  17  18
HETATM   18  C12 UNL     1      27.366   0.519  54.102  1.00  0.00     0.083 C 
HETATM   19  C13 UNL     1      27.306   1.874  53.466  1.00  0.00     0.043 C 
HETATM   20  C14 UNL     1      28.694   2.416  53.738  1.00  0.00     0.035 C 
HETATM   21  C15 UNL     1      29.337   1.232  54.419  1.00  0.00     0.122 C 
HETATM   22  C16 UNL     1      29.557   0.149  53.397  1.00  0.00     0.035 C 
HETATM   23  O2  UNL     1      28.250   0.717  55.156  1.00  0.00    -0.373 OA
HETATM   24  C17 UNL     1      28.137  -0.406  53.227  1.00  0.00     0.043 C 
ENDBRANCH  17  18
ENDBRANCH  16  17
ENDBRANCH  14  16
ENDBRANCH   7  10
BRANCH   1  25
HETATM   25  N1  UNL     1      21.419   0.692  49.257  1.00  0.00    -0.383 N 
HETATM   26  H1  UNL     1      21.796  -0.157  48.743  1.00  0.00     0.157 HD
HETATM   27  H2  UNL     1      20.840   0.914  50.100  1.00  0.00     0.157 HD
ENDBRANCH   1  25
BRANCH   9  28
HETATM   28  C20 UNL     1      23.744   6.249  49.771  1.00  0.00     0.095 C 
HETATM   29  C21 UNL     1      24.762   6.687  50.831  1.00  0.00     0.061 C 
HETATM   30  C22 UNL     1      25.381   7.500  49.687  1.00  0.00     0.227 C 
HETATM   31  C26 UNL     1      24.903   6.375  48.792  1.00  0.00     0.061 C 
BRANCH  30  32
HETATM   32  N5  UNL     1      26.774   7.746  49.765  1.00  0.00     0.093 N 
HETATM   33  C23 UNL     1      27.012   9.132  50.140  1.00  0.00     0.274 C 
HETATM   34  C24 UNL     1      27.267   9.434  48.678  1.00  0.00     0.060 C 
HETATM   35  C25 UNL     1      27.525   7.970  48.574  1.00  0.00     0.274 C 
ENDBRANCH  30  32
ENDBRANCH   9  28
TORSDOF 7
ENDMDL
MODEL 6
REMARK VINA RESULT:      -8.8      4.487      8.015
REMARK  7 active torsions:
REMARK  status: ('A' for Active; 'I' for Inactive)
REMARK    1  A    between atoms: N1_1  and  C1_2 
REMARK    2  A    between atoms: C5_8  and  C6_9 
REMARK    3  A    between atoms: C10_13  and  O1_14 
REMARK    4  A    between atoms: O1_14  and  C11_15 
REMARK    5  A    between atoms: C11_15  and  C12_16 
REMARK    6  A    between atoms: N4_25  and  C20_26 
REMARK    7  A    between atoms: C22_28  and  N5_29 
ROOT
HETATM    1  C1  UNL     1      20.717   0.255  52.467  1.00  0.00     0.137 A 
HETATM    2  N2  UNL     1      20.183  -0.529  53.431  1.00  0.00    -0.224 NA
HETATM    3  C2  UNL     1      20.992  -1.134  54.319  1.00  0.00     0.237 A 
HETATM    4  N3  UNL     1      22.333  -0.980  54.276  1.00  0.00    -0.223 NA
HETATM    5  C3  UNL     1      22.945  -0.215  53.349  1.00  0.00     0.146 A 
HETATM    6  C4  UNL     1      22.090   0.390  52.454  1.00  0.00     0.068 A 
HETATM    7  C5  UNL     1      22.799   1.150  51.549  1.00  0.00     0.008 A 
HETATM    8  C19 UNL     1      24.127   0.970  51.948  1.00  0.00     0.106 A 
HETATM    9  N4  UNL     1      24.194   0.158  53.016  1.00  0.00    -0.335 N 
ENDROOT
BRANCH   7  10
HETATM   10  C6  UNL     1      22.506   1.982  50.390  1.00  0.00    -0.021 A 
HETATM   11  C7  UNL     1      21.934   1.638  49.185  1.00  0.00     0.012 A 
HETATM   12  C8  UNL     1      21.719   2.581  48.203  1.00  0.00     0.004 A 
HETATM   13  C9  UNL     1      22.062   3.904  48.376  1.00  0.00     0.037 A 
HETATM   14  C10 UNL     1      22.638   4.288  49.569  1.00  0.00     0.069 A 
HETATM   15  C18 UNL     1      22.844   3.330  50.540  1.00  0.00     0.049 A 
BRANCH  14  16
HETATM   16  O1  UNL     1      22.973   5.616  49.720  1.00  0.00    -0.348 OA
BRANCH  16  17
HETATM   17  C11 UNL     1      24.099   6.136  50.342  1.00  0.00     0.213 C 
BRANCH  17  18
HETATM   18  C12 UNL     1      25.231   6.302  49.379  1.00  0.00     0.083 C 
HETATM   19  C13 UNL     1      24.825   6.881  48.058  1.00  0.00     0.043 C 
HETATM   20  C14 UNL     1      26.111   7.524  47.581  1.00  0.00     0.035 C 
HETATM   21  C15 UNL     1      27.059   7.127  48.688  1.00  0.00     0.122 C 
HETATM   22  C16 UNL     1      27.325   5.649  48.587  1.00  0.00     0.035 C 
HETATM   23  O2  UNL     1      26.209   7.191  49.812  1.00  0.00    -0.373 OA
HETATM   24  C17 UNL     1      26.025   5.063  49.154  1.00  0.00     0.043 C 
ENDBRANCH  17  18
ENDBRANCH  16  17
ENDBRANCH  14  16
ENDBRANCH   7  10
BRANCH   1  25
HETATM   25  N1  UNL     1      19.849   0.894  51.545  1.00  0.00    -0.383 N 
HETATM   26  H1  UNL     1      19.090   0.298  51.102  1.00  0.00     0.157 HD
HETATM   27  H2  UNL     1      20.195   1.881  51.521  1.00  0.00     0.157 HD
ENDBRANCH   1  25
BRANCH   9  28
HETATM   28  C20 UNL     1      25.367  -0.274  53.725  1.00  0.00     0.095 C 
HETATM   29  C21 UNL     1      26.262  -1.246  52.947  1.00  0.00     0.061 C 
HETATM   30  C22 UNL     1      27.410  -0.544  53.683  1.00  0.00     0.227 C 
HETATM   31  C26 UNL     1      26.537   0.692  53.611  1.00  0.00     0.061 C 
BRANCH  30  32
HETATM   32  N5  UNL     1      28.664  -0.516  53.023  1.00  0.00     0.093 N 
HETATM   33  C23 UNL     1      29.312  -1.814  53.137  1.00  0.00     0.274 C 
HETATM   34  C24 UNL     1      30.146  -1.245  54.266  1.00  0.00     0.060 C 
HETATM   35  C25 UNL     1      29.793   0.072  53.664  1.00  0.00     0.274 C 
ENDBRANCH  30  32
ENDBRANCH   9  28
TORSDOF 7
ENDMDL
MODEL 7
REMARK VINA RESULT:      -8.8      1.317      1.851
REMARK  7 active torsions:
REMARK  status: ('A' for Active; 'I' for Inactive)
REMARK    1  A    between atoms: N1_1  and  C1_2 
REMARK    2  A    between atoms: C5_8  and  C6_9 
REMARK    3  A    between atoms: C10_13  and  O1_14 
REMARK    4  A    between atoms: O1_14  and  C11_15 
REMARK    5  A    between atoms: C11_15  and  C12_16 
REMARK    6  A    between atoms: N4_25  and  C20_26 
REMARK    7  A    between atoms: C22_28  and  N5_29 
ROOT
HETATM    1  C1  UNL     1      23.528   6.461  50.956  1.00  0.00     0.137 A 
HETATM    2  N2  UNL     1      23.503   7.813  50.928  1.00  0.00    -0.224 NA
HETATM    3  C2  UNL     1      24.437   8.479  50.225  1.00  0.00     0.237 A 
HETATM    4  N3  UNL     1      25.405   7.833  49.541  1.00  0.00    -0.223 NA
HETATM    5  C3  UNL     1      25.500   6.488  49.517  1.00  0.00     0.146 A 
HETATM    6  C4  UNL     1      24.531   5.834  50.246  1.00  0.00     0.068 A 
HETATM    7  C5  UNL     1      24.703   4.469  50.163  1.00  0.00     0.008 A 
HETATM    8  C19 UNL     1      25.829   4.337  49.343  1.00  0.00     0.106 A 
HETATM    9  N4  UNL     1      26.287   5.543  48.970  1.00  0.00    -0.335 N 
ENDROOT
BRANCH   7  10
HETATM   10  C6  UNL     1      24.062   3.276  50.697  1.00  0.00    -0.021 A 
HETATM   11  C7  UNL     1      22.829   2.737  50.403  1.00  0.00     0.012 A 
HETATM   12  C8  UNL     1      22.396   1.576  51.007  1.00  0.00     0.004 A 
HETATM   13  C9  UNL     1      23.169   0.902  51.927  1.00  0.00     0.037 A 
HETATM   14  C10 UNL     1      24.410   1.411  52.248  1.00  0.00     0.069 A 
HETATM   15  C18 UNL     1      24.826   2.573  51.633  1.00  0.00     0.049 A 
BRANCH  14  16
HETATM   16  O1  UNL     1      25.165   0.720  53.171  1.00  0.00    -0.348 OA
BRANCH  16  17
HETATM   17  C11 UNL     1      25.970  -0.387  52.943  1.00  0.00     0.213 C 
BRANCH  17  18
HETATM   18  C12 UNL     1      27.375  -0.146  53.397  1.00  0.00     0.083 C 
HETATM   19  C13 UNL     1      27.917   1.196  53.006  1.00  0.00     0.043 C 
HETATM   20  C14 UNL     1      28.974   1.434  54.065  1.00  0.00     0.035 C 
HETATM   21  C15 UNL     1      28.906   0.138  54.837  1.00  0.00     0.122 C 
HETATM   22  C16 UNL     1      29.479  -0.961  53.984  1.00  0.00     0.035 C 
HETATM   23  O2  UNL     1      27.524  -0.143  54.779  1.00  0.00    -0.373 OA
HETATM   24  C17 UNL     1      28.337  -1.207  52.989  1.00  0.00     0.043 C 
ENDBRANCH  17  18
ENDBRANCH  16  17
ENDBRANCH  14  16
ENDBRANCH   7  10
BRANCH   1  25
HETATM   25  N1  UNL     1      22.530   5.773  51.693  1.00  0.00    -0.383 N 
HETATM   26  H1  UNL     1      22.679   4.734  51.855  1.00  0.00     0.157 HD
HETATM   27  H2  UNL     1      21.829   6.516  51.916  1.00  0.00     0.157 HD
ENDBRANCH   1  25
BRANCH   9  28
HETATM   28  C20 UNL     1      27.418   5.839  48.134  1.00  0.00     0.095 C 
HETATM   29  C21 UNL     1      28.208   7.087  48.546  1.00  0.00     0.061 C 
HETATM   30  C22 UNL     1      29.425   6.301  48.042  1.00  0.00     0.227 C 
HETATM   31  C26 UNL     1      28.675   5.074  48.520  1.00  0.00     0.061 C 
BRANCH  30  32
HETATM   32  N5  UNL     1      30.669   6.603  48.649  1.00  0.00     0.093 N 
HETATM   33  C23 UNL     1      31.392   7.572  47.840  1.00  0.00     0.274 C 
HETATM   34  C24 UNL     1      32.200   6.425  47.271  1.00  0.00     0.060 C 
HETATM   35  C25 UNL     1      31.768   5.706  48.503  1.00  0.00     0.274 C 
ENDBRANCH  30  32
ENDBRANCH   9  28
TORSDOF 7
ENDMDL
MODEL 8
REMARK VINA RESULT:      -8.3      3.128      7.369
REMARK  7 active torsions:
REMARK  status: ('A' for Active; 'I' for Inactive)
REMARK    1  A    between atoms: N1_1  and  C1_2 
REMARK    2  A    between atoms: C5_8  and  C6_9 
REMARK    3  A    between atoms: C10_13  and  O1_14 
REMARK    4  A    between atoms: O1_14  and  C11_15 
REMARK    5  A    between atoms: C11_15  and  C12_16 
REMARK    6  A    between atoms: N4_25  and  C20_26 
REMARK    7  A    between atoms: C22_28  and  N5_29 
ROOT
HETATM    1  C1  UNL     1      23.220   5.663  48.119  1.00  0.00     0.137 A 
HETATM    2  N2  UNL     1      21.890   5.421  48.074  1.00  0.00    -0.224 NA
HETATM    3  C2  UNL     1      21.331   4.611  48.991  1.00  0.00     0.237 A 
HETATM    4  N3  UNL     1      22.065   4.030  49.964  1.00  0.00    -0.223 NA
HETATM    5  C3  UNL     1      23.395   4.220  50.080  1.00  0.00     0.146 A 
HETATM    6  C4  UNL     1      23.938   5.052  49.126  1.00  0.00     0.068 A 
HETATM    7  C5  UNL     1      25.295   5.191  49.322  1.00  0.00     0.008 A 
HETATM    8  C19 UNL     1      25.539   4.396  50.448  1.00  0.00     0.106 A 
HETATM    9  N4  UNL     1      24.403   3.829  50.882  1.00  0.00    -0.335 N 
ENDROOT
BRANCH   7  10
HETATM   10  C6  UNL     1      26.403   5.881  48.678  1.00  0.00    -0.021 A 
HETATM   11  C7  UNL     1      26.452   7.145  48.133  1.00  0.00     0.012 A 
HETATM   12  C8  UNL     1      27.612   7.637  47.576  1.00  0.00     0.004 A 
HETATM   13  C9  UNL     1      28.773   6.895  47.536  1.00  0.00     0.037 A 
HETATM   14  C10 UNL     1      28.764   5.624  48.071  1.00  0.00     0.069 A 
HETATM   15  C18 UNL     1      27.594   5.150  48.626  1.00  0.00     0.049 A 
BRANCH  14  16
HETATM   16  O1  UNL     1      29.936   4.901  48.020  1.00  0.00    -0.348 OA
BRANCH  16  17
HETATM   17  C11 UNL     1      31.196   5.361  47.665  1.00  0.00     0.213 C 
BRANCH  17  18
HETATM   18  C12 UNL     1      32.109   4.233  47.301  1.00  0.00     0.083 C 
HETATM   19  C13 UNL     1      33.334   4.662  46.551  1.00  0.00     0.043 C 
HETATM   20  C14 UNL     1      34.315   3.556  46.882  1.00  0.00     0.035 C 
HETATM   21  C15 UNL     1      33.445   2.637  47.708  1.00  0.00     0.122 C 
HETATM   22  C16 UNL     1      32.441   1.980  46.799  1.00  0.00     0.035 C 
HETATM   23  O2  UNL     1      32.643   3.569  48.399  1.00  0.00    -0.373 OA
HETATM   24  C17 UNL     1      31.442   3.123  46.568  1.00  0.00     0.043 C 
ENDBRANCH  17  18
ENDBRANCH  16  17
ENDBRANCH  14  16
ENDBRANCH   7  10
BRANCH   1  25
HETATM   25  N1  UNL     1      23.791   6.527  47.150  1.00  0.00    -0.383 N 
HETATM   26  H1  UNL     1      24.843   6.672  47.192  1.00  0.00     0.157 HD
HETATM   27  H2  UNL     1      22.972   6.841  46.582  1.00  0.00     0.157 HD
ENDBRANCH   1  25
BRANCH   9  28
HETATM   28  C20 UNL     1      24.227   2.948  52.004  1.00  0.00     0.095 C 
HETATM   29  C21 UNL     1      24.210   1.456  51.648  1.00  0.00     0.061 C 
HETATM   30  C22 UNL     1      24.895   1.277  53.010  1.00  0.00     0.227 C 
HETATM   31  C26 UNL     1      25.524   2.628  52.733  1.00  0.00     0.061 C 
BRANCH  30  32
HETATM   32  N5  UNL     1      25.752   0.156  53.145  1.00  0.00     0.093 N 
HETATM   33  C23 UNL     1      25.270  -0.709  54.212  1.00  0.00     0.274 C 
HETATM   34  C24 UNL     1      26.309  -0.086  55.121  1.00  0.00     0.060 C 
HETATM   35  C25 UNL     1      26.986   0.285  53.847  1.00  0.00     0.274 C 
ENDBRANCH  30  32
ENDBRANCH   9  28
TORSDOF 7
ENDMDL
MODEL 9
REMARK VINA RESULT:      -8.1      6.035      9.196
REMARK  7 active torsions:
REMARK  status: ('A' for Active; 'I' for Inactive)
REMARK    1  A    between atoms: N1_1  and  C1_2 
REMARK    2  A    between atoms: C5_8  and  C6_9 
REMARK    3  A    between atoms: C10_13  and  O1_14 
REMARK    4  A    between atoms: O1_14  and  C11_15 
REMARK    5  A    between atoms: C11_15  and  C12_16 
REMARK    6  A    between atoms: N4_25  and  C20_26 
REMARK    7  A    between atoms: C22_28  and  N5_29 
ROOT
HETATM    1  C1  UNL     1      20.609   0.281  53.045  1.00  0.00     0.137 A 
HETATM    2  N2  UNL     1      20.155  -0.760  53.778  1.00  0.00    -0.224 NA
HETATM    3  C2  UNL     1      21.030  -1.532  54.447  1.00  0.00     0.237 A 
HETATM    4  N3  UNL     1      22.359  -1.295  54.407  1.00  0.00    -0.223 NA
HETATM    5  C3  UNL     1      22.892  -0.278  53.701  1.00  0.00     0.146 A 
HETATM    6  C4  UNL     1      21.972   0.494  53.027  1.00  0.00     0.068 A 
HETATM    7  C5  UNL     1      22.603   1.507  52.338  1.00  0.00     0.008 A 
HETATM    8  C19 UNL     1      23.955   1.303  52.635  1.00  0.00     0.106 A 
HETATM    9  N4  UNL     1      24.107   0.242  53.443  1.00  0.00    -0.335 N 
ENDROOT
BRANCH   7  10
HETATM   10  C6  UNL     1      22.220   2.599  51.455  1.00  0.00    -0.021 A 
HETATM   11  C7  UNL     1      22.058   3.938  51.734  1.00  0.00     0.012 A 
HETATM   12  C8  UNL     1      21.704   4.835  50.749  1.00  0.00     0.004 A 
HETATM   13  C9  UNL     1      21.495   4.439  49.445  1.00  0.00     0.037 A 
HETATM   14  C10 UNL     1      21.646   3.106  49.126  1.00  0.00     0.069 A 
HETATM   15  C18 UNL     1      22.003   2.224  50.125  1.00  0.00     0.049 A 
BRANCH  14  16
HETATM   16  O1  UNL     1      21.432   2.734  47.817  1.00  0.00    -0.348 OA
BRANCH  16  17
HETATM   17  C11 UNL     1      22.204   3.061  46.710  1.00  0.00     0.213 C 
BRANCH  17  18
HETATM   18  C12 UNL     1      21.449   3.927  45.752  1.00  0.00     0.083 C 
HETATM   19  C13 UNL     1      21.908   5.354  45.732  1.00  0.00     0.043 C 
HETATM   20  C14 UNL     1      21.506   5.799  44.341  1.00  0.00     0.035 C 
HETATM   21  C15 UNL     1      20.809   4.560  43.832  1.00  0.00     0.122 C 
HETATM   22  C16 UNL     1      19.502   4.408  44.563  1.00  0.00     0.035 C 
HETATM   23  O2  UNL     1      21.590   3.545  44.422  1.00  0.00    -0.373 OA
HETATM   24  C17 UNL     1      19.971   3.883  45.926  1.00  0.00     0.043 C 
ENDBRANCH  17  18
ENDBRANCH  16  17
ENDBRANCH  14  16
ENDBRANCH   7  10
BRANCH   1  25
HETATM   25  N1  UNL     1      19.671   1.093  52.355  1.00  0.00    -0.383 N 
HETATM   26  H1  UNL     1      18.701   1.178  52.778  1.00  0.00     0.157 HD
HETATM   27  H2  UNL     1      20.206   1.440  51.525  1.00  0.00     0.157 HD
ENDBRANCH   1  25
BRANCH   9  28
HETATM   28  C20 UNL     1      25.329  -0.296  53.974  1.00  0.00     0.095 C 
HETATM   29  C21 UNL     1      26.163  -1.101  52.970  1.00  0.00     0.061 C 
HETATM   30  C22 UNL     1      27.364  -0.527  53.735  1.00  0.00     0.227 C 
HETATM   31  C26 UNL     1      26.488   0.690  53.950  1.00  0.00     0.061 C 
BRANCH  30  32
HETATM   32  N5  UNL     1      28.564  -0.366  52.999  1.00  0.00     0.093 N 
HETATM   33  C23 UNL     1      29.326  -1.606  53.017  1.00  0.00     0.274 C 
HETATM   34  C24 UNL     1      30.181  -1.010  54.115  1.00  0.00     0.060 C 
HETATM   35  C25 UNL     1      29.679   0.293  53.594  1.00  0.00     0.274 C 
ENDBRANCH  30  32
ENDBRANCH   9  28
TORSDOF 7
ENDMDL
