MODEL 1
REMARK VINA RESULT:      -7.9      0.000      0.000
REMARK  3 active torsions:
REMARK  status: ('A' for Active; 'I' for Inactive)
REMARK    1  A    between atoms: C5_5  and  C6_6 
REMARK    2  A    between atoms: C8_8  and  C9_9 
REMARK    3  A    between atoms: N1_16  and  N2_17 
ROOT
HETATM    1  C6  UNL     1      24.082   1.758  52.867  1.00  0.00     0.109 C 
HETATM    2  C7  UNL     1      25.237   1.389  51.940  1.00  0.00     0.052 C 
HETATM    3  C8  UNL     1      25.972   1.359  53.265  1.00  0.00     0.109 C 
HETATM    4  N1  UNL     1      24.719   0.825  53.812  1.00  0.00    -0.236 NA
ENDROOT
BRANCH   1   5
HETATM    5  C5  UNL     1      22.748   1.355  52.400  1.00  0.00    -0.038 A 
HETATM    6  C4  UNL     1      21.677   0.961  53.182  1.00  0.00     0.009 A 
HETATM    7  C3  UNL     1      20.472   0.605  52.606  1.00  0.00     0.008 A 
HETATM    8  C2  UNL     1      20.315   0.639  51.221  1.00  0.00    -0.056 A 
HETATM    9  C1  UNL     1      19.036   0.266  50.550  1.00  0.00     0.049 C 
HETATM   10  C16 UNL     1      21.370   1.030  50.426  1.00  0.00    -0.056 A 
HETATM   11  C15 UNL     1      22.581   1.385  51.024  1.00  0.00     0.016 A 
HETATM   12  C17 UNL     1      21.223   1.074  48.929  1.00  0.00     0.049 C 
ENDBRANCH   1   5
BRANCH   4  13
HETATM   13  N2  UNL     1      24.519  -0.476  53.346  1.00  0.00    -0.267 NA
HETATM   14  H14 UNL     1      25.289  -1.123  53.574  1.00  0.00     0.137 HD
HETATM   15  H15 UNL     1      24.360  -0.535  52.314  1.00  0.00     0.137 HD
ENDBRANCH   4  13
BRANCH   3  16
HETATM   16  C9  UNL     1      27.127   0.466  53.355  1.00  0.00    -0.039 A 
HETATM   17  C10 UNL     1      28.182   1.031  54.066  1.00  0.00     0.012 A 
HETATM   18  C11 UNL     1      29.383   0.355  54.275  1.00  0.00     0.043 A 
HETATM   19  C12 UNL     1      29.520  -0.898  53.763  1.00  0.00     0.116 A 
HETATM   20  F1  UNL     1      30.682  -1.588  53.949  1.00  0.00    -0.206 F 
HETATM   21  C13 UNL     1      28.504  -1.477  53.063  1.00  0.00     0.043 A 
HETATM   22  C14 UNL     1      27.301  -0.812  52.848  1.00  0.00     0.012 A 
ENDBRANCH   3  16
TORSDOF 3
ENDMDL
MODEL 2
REMARK VINA RESULT:      -7.7      3.797      7.377
REMARK  3 active torsions:
REMARK  status: ('A' for Active; 'I' for Inactive)
REMARK    1  A    between atoms: C5_5  and  C6_6 
REMARK    2  A    between atoms: C8_8  and  C9_9 
REMARK    3  A    between atoms: N1_16  and  N2_17 
ROOT
HETATM    1  C6  UNL     1      25.167   2.278  52.570  1.00  0.00     0.109 C 
HETATM    2  C7  UNL     1      24.163   1.594  51.645  1.00  0.00     0.052 C 
HETATM    3  C8  UNL     1      23.862   3.039  51.301  1.00  0.00     0.109 C 
HETATM    4  N1  UNL     1      25.303   3.257  51.478  1.00  0.00    -0.236 NA
ENDROOT
BRANCH   1   5
HETATM    5  C5  UNL     1      26.379   1.502  52.865  1.00  0.00    -0.038 A 
HETATM    6  C4  UNL     1      27.578   1.989  53.357  1.00  0.00     0.009 A 
HETATM    7  C3  UNL     1      28.644   1.140  53.588  1.00  0.00     0.008 A 
HETATM    8  C2  UNL     1      28.529  -0.225  53.331  1.00  0.00    -0.056 A 
HETATM    9  C1  UNL     1      29.649  -1.182  53.564  1.00  0.00     0.049 C 
HETATM   10  C16 UNL     1      27.343  -0.727  52.841  1.00  0.00    -0.056 A 
HETATM   11  C15 UNL     1      26.276   0.143  52.612  1.00  0.00     0.016 A 
HETATM   12  C17 UNL     1      27.197  -2.197  52.556  1.00  0.00     0.049 C 
ENDBRANCH   1   5
BRANCH   4  13
HETATM   13  N2  UNL     1      26.001   2.652  50.432  1.00  0.00    -0.267 NA
HETATM   14  H14 UNL     1      25.467   2.596  49.552  1.00  0.00     0.137 HD
HETATM   15  H15 UNL     1      26.339   1.688  50.651  1.00  0.00     0.137 HD
ENDBRANCH   4  13
BRANCH   3  16
HETATM   16  C9  UNL     1      23.348   3.301  49.957  1.00  0.00    -0.039 A 
HETATM   17  C10 UNL     1      23.361   4.656  49.638  1.00  0.00     0.012 A 
HETATM   18  C11 UNL     1      22.915   5.134  48.407  1.00  0.00     0.043 A 
HETATM   19  C12 UNL     1      22.454   4.239  47.492  1.00  0.00     0.116 A 
HETATM   20  F1  UNL     1      22.010   4.670  46.277  1.00  0.00    -0.206 F 
HETATM   21  C13 UNL     1      22.430   2.906  47.777  1.00  0.00     0.043 A 
HETATM   22  C14 UNL     1      22.873   2.417  49.002  1.00  0.00     0.012 A 
ENDBRANCH   3  16
TORSDOF 3
ENDMDL
MODEL 3
REMARK VINA RESULT:      -7.7      4.313      5.783
REMARK  3 active torsions:
REMARK  status: ('A' for Active; 'I' for Inactive)
REMARK    1  A    between atoms: C5_5  and  C6_6 
REMARK    2  A    between atoms: C8_8  and  C9_9 
REMARK    3  A    between atoms: N1_16  and  N2_17 
ROOT
HETATM    1  C6  UNL     1      23.435   2.795  50.920  1.00  0.00     0.109 C 
HETATM    2  C7  UNL     1      24.373   2.549  49.740  1.00  0.00     0.052 C 
HETATM    3  C8  UNL     1      24.418   4.063  49.773  1.00  0.00     0.109 C 
HETATM    4  N1  UNL     1      24.339   3.915  51.231  1.00  0.00    -0.236 NA
ENDROOT
BRANCH   1   5
HETATM    5  C5  UNL     1      23.399   1.725  51.927  1.00  0.00    -0.038 A 
HETATM    6  C4  UNL     1      24.435   0.876  52.274  1.00  0.00     0.009 A 
HETATM    7  C3  UNL     1      24.260  -0.093  53.245  1.00  0.00     0.008 A 
HETATM    8  C2  UNL     1      23.034  -0.230  53.893  1.00  0.00    -0.056 A 
HETATM    9  C1  UNL     1      22.795  -1.258  54.947  1.00  0.00     0.049 C 
HETATM   10  C16 UNL     1      21.992   0.607  53.560  1.00  0.00    -0.056 A 
HETATM   11  C15 UNL     1      22.184   1.580  52.577  1.00  0.00     0.016 A 
HETATM   12  C17 UNL     1      20.660   0.477  54.247  1.00  0.00     0.049 C 
ENDBRANCH   1   5
BRANCH   4  13
HETATM   13  N2  UNL     1      25.537   3.390  51.716  1.00  0.00    -0.267 NA
HETATM   14  H14 UNL     1      25.428   2.491  52.211  1.00  0.00     0.137 HD
HETATM   15  H15 UNL     1      26.054   4.035  52.356  1.00  0.00     0.137 HD
ENDBRANCH   4  13
BRANCH   3  16
HETATM   16  C9  UNL     1      25.639   4.694  49.272  1.00  0.00    -0.039 A 
HETATM   17  C10 UNL     1      25.435   6.017  48.890  1.00  0.00     0.012 A 
HETATM   18  C11 UNL     1      26.462   6.812  48.383  1.00  0.00     0.043 A 
HETATM   19  C12 UNL     1      27.703   6.266  48.261  1.00  0.00     0.116 A 
HETATM   20  F1  UNL     1      28.732   7.014  47.769  1.00  0.00    -0.206 F 
HETATM   21  C13 UNL     1      27.933   4.974  48.628  1.00  0.00     0.043 A 
HETATM   22  C14 UNL     1      26.915   4.172  49.135  1.00  0.00     0.012 A 
ENDBRANCH   3  16
TORSDOF 3
ENDMDL
MODEL 4
REMARK VINA RESULT:      -7.6      3.285      7.448
REMARK  3 active torsions:
REMARK  status: ('A' for Active; 'I' for Inactive)
REMARK    1  A    between atoms: C5_5  and  C6_6 
REMARK    2  A    between atoms: C8_8  and  C9_9 
REMARK    3  A    between atoms: N1_16  and  N2_17 
ROOT
HETATM    1  C6  UNL     1      24.379   0.358  53.842  1.00  0.00     0.109 C 
HETATM    2  C7  UNL     1      23.319  -0.416  53.061  1.00  0.00     0.052 C 
HETATM    3  C8  UNL     1      22.620   0.925  53.153  1.00  0.00     0.109 C 
HETATM    4  N1  UNL     1      23.962   1.502  53.013  1.00  0.00    -0.236 NA
ENDROOT
BRANCH   1   5
HETATM    5  C5  UNL     1      25.763  -0.089  53.636  1.00  0.00    -0.038 A 
HETATM    6  C4  UNL     1      26.176  -1.244  52.995  1.00  0.00     0.009 A 
HETATM    7  C3  UNL     1      27.520  -1.543  52.874  1.00  0.00     0.008 A 
HETATM    8  C2  UNL     1      28.486  -0.683  53.396  1.00  0.00    -0.056 A 
HETATM    9  C1  UNL     1      29.948  -0.960  53.290  1.00  0.00     0.049 C 
HETATM   10  C16 UNL     1      28.092   0.471  54.037  1.00  0.00    -0.056 A 
HETATM   11  C15 UNL     1      26.731   0.758  54.153  1.00  0.00     0.016 A 
HETATM   12  C17 UNL     1      29.116   1.413  54.609  1.00  0.00     0.049 C 
ENDBRANCH   1   5
BRANCH   4  13
HETATM   13  N2  UNL     1      24.430   1.293  51.714  1.00  0.00    -0.267 NA
HETATM   14  H14 UNL     1      23.904   1.812  50.994  1.00  0.00     0.137 HD
HETATM   15  H15 UNL     1      24.442   0.289  51.425  1.00  0.00     0.137 HD
ENDBRANCH   4  13
BRANCH   3  16
HETATM   16  C9  UNL     1      21.682   1.251  52.079  1.00  0.00    -0.039 A 
HETATM   17  C10 UNL     1      21.055   2.479  52.275  1.00  0.00     0.012 A 
HETATM   18  C11 UNL     1      20.122   2.989  51.374  1.00  0.00     0.043 A 
HETATM   19  C12 UNL     1      19.820   2.256  50.269  1.00  0.00     0.116 A 
HETATM   20  F1  UNL     1      18.911   2.724  49.366  1.00  0.00    -0.206 F 
HETATM   21  C13 UNL     1      20.417   1.051  50.050  1.00  0.00     0.043 A 
HETATM   22  C14 UNL     1      21.351   0.531  50.942  1.00  0.00     0.012 A 
ENDBRANCH   3  16
TORSDOF 3
ENDMDL
MODEL 5
REMARK VINA RESULT:      -7.6      2.552      3.366
REMARK  3 active torsions:
REMARK  status: ('A' for Active; 'I' for Inactive)
REMARK    1  A    between atoms: C5_5  and  C6_6 
REMARK    2  A    between atoms: C8_8  and  C9_9 
REMARK    3  A    between atoms: N1_16  and  N2_17 
ROOT
HETATM    1  C6  UNL     1      24.474   1.650  51.993  1.00  0.00     0.109 C 
HETATM    2  C7  UNL     1      25.093   1.424  53.370  1.00  0.00     0.052 C 
HETATM    3  C8  UNL     1      25.870   0.387  52.584  1.00  0.00     0.109 C 
HETATM    4  N1  UNL     1      25.826   1.361  51.486  1.00  0.00    -0.236 NA
ENDROOT
BRANCH   1   5
HETATM    5  C5  UNL     1      23.992   3.014  51.737  1.00  0.00    -0.038 A 
HETATM    6  C4  UNL     1      23.707   3.985  52.681  1.00  0.00     0.009 A 
HETATM    7  C3  UNL     1      23.256   5.234  52.297  1.00  0.00     0.008 A 
HETATM    8  C2  UNL     1      23.082   5.538  50.947  1.00  0.00    -0.056 A 
HETATM    9  C1  UNL     1      22.599   6.871  50.482  1.00  0.00     0.049 C 
HETATM   10  C16 UNL     1      23.360   4.584  49.994  1.00  0.00    -0.056 A 
HETATM   11  C15 UNL     1      23.814   3.327  50.398  1.00  0.00     0.016 A 
HETATM   12  C17 UNL     1      23.179   4.890  48.532  1.00  0.00     0.049 C 
ENDBRANCH   1   5
BRANCH   4  13
HETATM   13  N2  UNL     1      26.649   2.447  51.789  1.00  0.00    -0.267 NA
HETATM   14  H14 UNL     1      27.402   2.225  52.458  1.00  0.00     0.137 HD
HETATM   15  H15 UNL     1      26.135   3.275  52.165  1.00  0.00     0.137 HD
ENDBRANCH   4  13
BRANCH   3  16
HETATM   16  C9  UNL     1      27.206   0.056  53.076  1.00  0.00    -0.039 A 
HETATM   17  C10 UNL     1      27.600  -1.231  52.718  1.00  0.00     0.012 A 
HETATM   18  C11 UNL     1      28.839  -1.757  53.081  1.00  0.00     0.043 A 
HETATM   19  C12 UNL     1      29.685  -0.980  53.810  1.00  0.00     0.116 A 
HETATM   20  F1  UNL     1      30.905  -1.461  54.183  1.00  0.00    -0.206 F 
HETATM   21  C13 UNL     1      29.326   0.284  54.175  1.00  0.00     0.043 A 
HETATM   22  C14 UNL     1      28.093   0.819  53.817  1.00  0.00     0.012 A 
ENDBRANCH   3  16
TORSDOF 3
ENDMDL
MODEL 6
REMARK VINA RESULT:      -7.6      8.495      9.512
REMARK  3 active torsions:
REMARK  status: ('A' for Active; 'I' for Inactive)
REMARK    1  A    between atoms: C5_5  and  C6_6 
REMARK    2  A    between atoms: C8_8  and  C9_9 
REMARK    3  A    between atoms: N1_16  and  N2_17 
ROOT
HETATM    1  C6  UNL     1      29.738   6.674  47.328  1.00  0.00     0.109 C 
HETATM    2  C7  UNL     1      30.736   5.525  47.457  1.00  0.00     0.052 C 
HETATM    3  C8  UNL     1      31.708   6.665  47.228  1.00  0.00     0.109 C 
HETATM    4  N1  UNL     1      30.768   7.468  48.019  1.00  0.00    -0.236 NA
ENDROOT
BRANCH   1   5
HETATM    5  C5  UNL     1      28.482   6.501  48.071  1.00  0.00    -0.038 A 
HETATM    6  C4  UNL     1      27.612   7.498  48.476  1.00  0.00     0.009 A 
HETATM    7  C3  UNL     1      26.460   7.191  49.174  1.00  0.00     0.008 A 
HETATM    8  C2  UNL     1      26.152   5.867  49.483  1.00  0.00    -0.056 A 
HETATM    9  C1  UNL     1      24.921   5.483  50.233  1.00  0.00     0.049 C 
HETATM   10  C16 UNL     1      27.007   4.861  49.088  1.00  0.00    -0.056 A 
HETATM   11  C15 UNL     1      28.167   5.188  48.384  1.00  0.00     0.016 A 
HETATM   12  C17 UNL     1      26.695   3.425  49.410  1.00  0.00     0.049 C 
ENDBRANCH   1   5
BRANCH   4  13
HETATM   13  N2  UNL     1      30.811   7.063  49.354  1.00  0.00    -0.267 NA
HETATM   14  H14 UNL     1      30.659   7.829  50.027  1.00  0.00     0.137 HD
HETATM   15  H15 UNL     1      31.702   6.587  49.623  1.00  0.00     0.137 HD
ENDBRANCH   4  13
BRANCH   3  16
HETATM   16  C9  UNL     1      33.043   6.515  47.805  1.00  0.00    -0.039 A 
HETATM   17  C10 UNL     1      33.810   7.669  47.678  1.00  0.00     0.012 A 
HETATM   18  C11 UNL     1      35.117   7.751  48.158  1.00  0.00     0.043 A 
HETATM   19  C12 UNL     1      35.652   6.660  48.769  1.00  0.00     0.116 A 
HETATM   20  F1  UNL     1      36.927   6.703  49.251  1.00  0.00    -0.206 F 
HETATM   21  C13 UNL     1      34.924   5.515  48.908  1.00  0.00     0.043 A 
HETATM   22  C14 UNL     1      33.619   5.423  48.433  1.00  0.00     0.012 A 
ENDBRANCH   3  16
TORSDOF 3
ENDMDL
MODEL 7
REMARK VINA RESULT:      -7.5      4.572      6.292
REMARK  3 active torsions:
REMARK  status: ('A' for Active; 'I' for Inactive)
REMARK    1  A    between atoms: C5_5  and  C6_6 
REMARK    2  A    between atoms: C8_8  and  C9_9 
REMARK    3  A    between atoms: N1_16  and  N2_17 
ROOT
HETATM    1  C6  UNL     1      25.797   3.276  49.611  1.00  0.00     0.109 C 
HETATM    2  C7  UNL     1      24.841   3.025  50.775  1.00  0.00     0.052 C 
HETATM    3  C8  UNL     1      25.538   1.680  50.742  1.00  0.00     0.109 C 
HETATM    4  N1  UNL     1      26.738   2.444  50.381  1.00  0.00    -0.236 NA
ENDROOT
BRANCH   1   5
HETATM    5  C5  UNL     1      26.210   4.674  49.426  1.00  0.00    -0.038 A 
HETATM    6  C4  UNL     1      25.545   5.802  49.874  1.00  0.00     0.009 A 
HETATM    7  C3  UNL     1      26.050   7.065  49.626  1.00  0.00     0.008 A 
HETATM    8  C2  UNL     1      27.241   7.224  48.919  1.00  0.00    -0.056 A 
HETATM    9  C1  UNL     1      27.827   8.564  48.627  1.00  0.00     0.049 C 
HETATM   10  C16 UNL     1      27.916   6.112  48.466  1.00  0.00    -0.056 A 
HETATM   11  C15 UNL     1      27.393   4.843  48.724  1.00  0.00     0.016 A 
HETATM   12  C17 UNL     1      29.203   6.259  47.701  1.00  0.00     0.049 C 
ENDBRANCH   1   5
BRANCH   4  13
HETATM   13  N2  UNL     1      27.174   3.182  51.483  1.00  0.00    -0.267 NA
HETATM   14  H14 UNL     1      26.498   3.206  52.262  1.00  0.00     0.137 HD
HETATM   15  H15 UNL     1      27.421   4.172  51.257  1.00  0.00     0.137 HD
ENDBRANCH   4  13
BRANCH   3  16
HETATM   16  C9  UNL     1      25.615   0.950  52.007  1.00  0.00    -0.039 A 
HETATM   17  C10 UNL     1      24.361   0.711  52.560  1.00  0.00     0.012 A 
HETATM   18  C11 UNL     1      24.198   0.030  53.766  1.00  0.00     0.043 A 
HETATM   19  C12 UNL     1      25.308  -0.412  54.416  1.00  0.00     0.116 A 
HETATM   20  F1  UNL     1      25.187  -1.082  55.597  1.00  0.00    -0.206 F 
HETATM   21  C13 UNL     1      26.549  -0.193  53.898  1.00  0.00     0.043 A 
HETATM   22  C14 UNL     1      26.724   0.486  52.695  1.00  0.00     0.012 A 
ENDBRANCH   3  16
TORSDOF 3
ENDMDL
MODEL 8
REMARK VINA RESULT:      -7.3      4.773      7.173
REMARK  3 active torsions:
REMARK  status: ('A' for Active; 'I' for Inactive)
REMARK    1  A    between atoms: C5_5  and  C6_6 
REMARK    2  A    between atoms: C8_8  and  C9_9 
REMARK    3  A    between atoms: N1_16  and  N2_17 
ROOT
HETATM    1  C6  UNL     1      25.281   3.056  49.676  1.00  0.00     0.109 C 
HETATM    2  C7  UNL     1      23.768   2.869  49.593  1.00  0.00     0.052 C 
HETATM    3  C8  UNL     1      24.068   1.906  50.724  1.00  0.00     0.109 C 
HETATM    4  N1  UNL     1      25.087   2.883  51.126  1.00  0.00    -0.236 NA
ENDROOT
BRANCH   1   5
HETATM    5  C5  UNL     1      25.774   4.379  49.268  1.00  0.00    -0.038 A 
HETATM    6  C4  UNL     1      25.035   5.544  49.159  1.00  0.00     0.009 A 
HETATM    7  C3  UNL     1      25.631   6.725  48.759  1.00  0.00     0.008 A 
HETATM    8  C2  UNL     1      26.991   6.764  48.459  1.00  0.00    -0.056 A 
HETATM    9  C1  UNL     1      27.681   8.013  48.024  1.00  0.00     0.049 C 
HETATM   10  C16 UNL     1      27.743   5.613  48.562  1.00  0.00    -0.056 A 
HETATM   11  C15 UNL     1      27.126   4.428  48.966  1.00  0.00     0.016 A 
HETATM   12  C17 UNL     1      29.213   5.632  48.243  1.00  0.00     0.049 C 
ENDBRANCH   1   5
BRANCH   4  13
HETATM   13  N2  UNL     1      24.468   4.029  51.625  1.00  0.00    -0.267 NA
HETATM   14  H14 UNL     1      23.450   4.056  51.465  1.00  0.00     0.137 HD
HETATM   15  H15 UNL     1      24.864   4.921  51.251  1.00  0.00     0.137 HD
ENDBRANCH   4  13
BRANCH   3  16
HETATM   16  C9  UNL     1      22.999   1.680  51.695  1.00  0.00    -0.039 A 
HETATM   17  C10 UNL     1      23.326   0.699  52.627  1.00  0.00     0.012 A 
HETATM   18  C11 UNL     1      22.452   0.321  53.646  1.00  0.00     0.043 A 
HETATM   19  C12 UNL     1      21.242   0.938  53.724  1.00  0.00     0.116 A 
HETATM   20  F1  UNL     1      20.362   0.594  54.708  1.00  0.00    -0.206 F 
HETATM   21  C13 UNL     1      20.894   1.902  52.826  1.00  0.00     0.043 A 
HETATM   22  C14 UNL     1      21.758   2.287  51.804  1.00  0.00     0.012 A 
ENDBRANCH   3  16
TORSDOF 3
ENDMDL
MODEL 9
REMARK VINA RESULT:      -7.3      4.450      6.106
REMARK  3 active torsions:
REMARK  status: ('A' for Active; 'I' for Inactive)
REMARK    1  A    between atoms: C5_5  and  C6_6 
REMARK    2  A    between atoms: C8_8  and  C9_9 
REMARK    3  A    between atoms: N1_16  and  N2_17 
ROOT
HETATM    1  C6  UNL     1      23.367   2.501  50.836  1.00  0.00     0.109 C 
HETATM    2  C7  UNL     1      24.712   2.820  50.188  1.00  0.00     0.052 C 
HETATM    3  C8  UNL     1      24.014   4.145  49.959  1.00  0.00     0.109 C 
HETATM    4  N1  UNL     1      23.392   3.909  51.267  1.00  0.00    -0.236 NA
ENDROOT
BRANCH   1   5
HETATM    5  C5  UNL     1      23.411   1.516  51.925  1.00  0.00    -0.038 A 
HETATM    6  C4  UNL     1      24.512   0.788  52.342  1.00  0.00     0.009 A 
HETATM    7  C3  UNL     1      24.410  -0.112  53.386  1.00  0.00     0.008 A 
HETATM    8  C2  UNL     1      23.193  -0.302  54.039  1.00  0.00    -0.056 A 
HETATM    9  C1  UNL     1      23.032  -1.261  55.171  1.00  0.00     0.049 C 
HETATM   10  C16 UNL     1      22.087   0.413  53.637  1.00  0.00    -0.056 A 
HETATM   11  C15 UNL     1      22.206   1.318  52.580  1.00  0.00     0.016 A 
HETATM   12  C17 UNL     1      20.763   0.224  54.327  1.00  0.00     0.049 C 
ENDBRANCH   1   5
BRANCH   4  13
HETATM   13  N2  UNL     1      24.351   4.042  52.273  1.00  0.00    -0.267 NA
HETATM   14  H14 UNL     1      25.197   4.552  51.978  1.00  0.00     0.137 HD
HETATM   15  H15 UNL     1      24.665   3.132  52.680  1.00  0.00     0.137 HD
ENDBRANCH   4  13
BRANCH   3  16
HETATM   16  C9  UNL     1      24.866   5.330  49.874  1.00  0.00    -0.039 A 
HETATM   17  C10 UNL     1      25.945   5.149  49.013  1.00  0.00     0.012 A 
HETATM   18  C11 UNL     1      26.887   6.150  48.780  1.00  0.00     0.043 A 
HETATM   19  C12 UNL     1      26.739   7.341  49.421  1.00  0.00     0.116 A 
HETATM   20  F1  UNL     1      27.642   8.343  49.217  1.00  0.00    -0.206 F 
HETATM   21  C13 UNL     1      25.693   7.547  50.269  1.00  0.00     0.043 A 
HETATM   22  C14 UNL     1      24.746   6.556  50.509  1.00  0.00     0.012 A 
ENDBRANCH   3  16
TORSDOF 3
ENDMDL
