MODEL 1
REMARK VINA RESULT:      -9.2      0.000      0.000
REMARK  3 active torsions:
REMARK  status: ('A' for Active; 'I' for Inactive)
REMARK    1  A    between atoms: C1_2  and  C2_3 
REMARK    2  A    between atoms: C10_12  and  N2_13 
REMARK    3  A    between atoms: N2_13  and  C11_14 
ROOT
HETATM    1  C2  UNL     1      17.834  -0.013  51.003  1.00  0.00     0.002 A 
HETATM    2  C3  UNL     1      17.335  -0.634  52.124  1.00  0.00     0.017 A 
HETATM    3  C4  UNL     1      18.280  -0.878  53.119  1.00  0.00     0.039 A 
HETATM    4  C5  UNL     1      19.599  -0.512  52.960  1.00  0.00     0.086 A 
HETATM    5  C6  UNL     1      20.050   0.120  51.794  1.00  0.00    -0.006 A 
HETATM    6  C7  UNL     1      19.130   0.381  50.771  1.00  0.00     0.026 A 
HETATM    7  C8  UNL     1      21.371   0.591  51.399  1.00  0.00     0.161 C 
HETATM    8  N1  UNL     1      22.338   0.744  52.432  1.00  0.00    -0.379 N 
HETATM    9  C9  UNL     1      22.631  -0.122  53.549  1.00  0.00     0.129 A 
HETATM   10  C10 UNL     1      23.968  -0.199  53.874  1.00  0.00     0.160 A 
HETATM   11  N3  UNL     1      24.242  -0.979  54.918  1.00  0.00    -0.222 NA
HETATM   12  C17 UNL     1      23.328  -1.653  55.626  1.00  0.00     0.238 A 
HETATM   13  N4  UNL     1      22.018  -1.608  55.343  1.00  0.00    -0.215 NA
HETATM   14  C18 UNL     1      21.684  -0.835  54.298  1.00  0.00     0.202 A 
HETATM   15  O2  UNL     1      20.292  -0.887  54.125  1.00  0.00    -0.289 OA
HETATM   16  H7  UNL     1      23.009   1.572  52.522  1.00  0.00     0.160 HD
ENDROOT
BRANCH  10  17
HETATM   17  N2  UNL     1      24.924   0.505  53.101  1.00  0.00    -0.339 N 
HETATM   18  H8  UNL     1      24.740   1.152  52.311  1.00  0.00     0.167 HD
BRANCH  17  19
HETATM   19  C11 UNL     1      26.342   0.455  53.216  1.00  0.00     0.035 A 
HETATM   20  C12 UNL     1      27.189   1.513  53.397  1.00  0.00     0.032 A 
HETATM   21  C13 UNL     1      28.556   1.436  53.496  1.00  0.00     0.046 A 
HETATM   22  C14 UNL     1      29.170   0.206  53.411  1.00  0.00     0.138 A 
HETATM   23  F1  UNL     1      30.506   0.197  53.514  1.00  0.00    -0.204 F 
HETATM   24  C15 UNL     1      28.363  -0.872  53.229  1.00  0.00     0.074 A 
HETATM   25 CL1  UNL     1      29.212  -2.420  53.127  1.00  0.00    -0.081 Cl
HETATM   26  C16 UNL     1      26.979  -0.759  53.134  1.00  0.00     0.056 A 
ENDBRANCH  17  19
ENDBRANCH  10  17
BRANCH   1  27
HETATM   27  C1  UNL     1      16.917   0.271  49.925  1.00  0.00     0.269 C 
HETATM   28  O1  UNL     1      16.309  -0.231  48.956  1.00  0.00    -0.301 OA
ENDBRANCH   1  27
TORSDOF 3
ENDMDL
MODEL 2
REMARK VINA RESULT:      -9.1      2.046      3.285
REMARK  3 active torsions:
REMARK  status: ('A' for Active; 'I' for Inactive)
REMARK    1  A    between atoms: C1_2  and  C2_3 
REMARK    2  A    between atoms: C10_12  and  N2_13 
REMARK    3  A    between atoms: N2_13  and  C11_14 
ROOT
HETATM    1  C2  UNL     1      18.701  -0.143  51.871  1.00  0.00     0.002 A 
HETATM    2  C3  UNL     1      18.634   0.366  50.595  1.00  0.00     0.017 A 
HETATM    3  C4  UNL     1      19.820   0.937  50.137  1.00  0.00     0.039 A 
HETATM    4  C5  UNL     1      20.950   0.973  50.926  1.00  0.00     0.086 A 
HETATM    5  C6  UNL     1      20.958   0.437  52.220  1.00  0.00    -0.006 A 
HETATM    6  C7  UNL     1      19.786  -0.146  52.716  1.00  0.00     0.026 A 
HETATM    7  C8  UNL     1      22.009   0.358  53.227  1.00  0.00     0.161 C 
HETATM    8  N1  UNL     1      23.345   0.562  52.783  1.00  0.00    -0.379 N 
HETATM    9  C9  UNL     1      23.865   1.539  51.857  1.00  0.00     0.129 A 
HETATM   10  C10 UNL     1      25.111   2.030  52.187  1.00  0.00     0.160 A 
HETATM   11  N3  UNL     1      25.605   2.916  51.324  1.00  0.00    -0.222 NA
HETATM   12  C17 UNL     1      24.982   3.327  50.214  1.00  0.00     0.238 A 
HETATM   13  N4  UNL     1      23.771   2.877  49.856  1.00  0.00    -0.215 NA
HETATM   14  C18 UNL     1      23.224   1.981  50.691  1.00  0.00     0.202 A 
HETATM   15  O2  UNL     1      21.967   1.605  50.189  1.00  0.00    -0.289 OA
HETATM   16  H7  UNL     1      24.187  -0.022  53.092  1.00  0.00     0.160 HD
ENDROOT
BRANCH  10  17
HETATM   17  N2  UNL     1      25.746   1.599  53.378  1.00  0.00    -0.339 N 
HETATM   18  H8  UNL     1      25.390   1.690  54.348  1.00  0.00     0.167 HD
BRANCH  17  19
HETATM   19  C11 UNL     1      27.021   0.979  53.508  1.00  0.00     0.035 A 
HETATM   20  C12 UNL     1      28.200   1.585  53.840  1.00  0.00     0.032 A 
HETATM   21  C13 UNL     1      29.418   0.962  53.949  1.00  0.00     0.046 A 
HETATM   22  C14 UNL     1      29.505  -0.392  53.711  1.00  0.00     0.138 A 
HETATM   23  F1  UNL     1      30.722  -0.942  53.833  1.00  0.00    -0.204 F 
HETATM   24  C15 UNL     1      28.355  -1.033  53.376  1.00  0.00     0.074 A 
HETATM   25 CL1  UNL     1      28.536  -2.768  53.082  1.00  0.00    -0.081 Cl
HETATM   26  C16 UNL     1      27.136  -0.370  53.275  1.00  0.00     0.056 A 
ENDBRANCH  17  19
ENDBRANCH  10  17
BRANCH   1  27
HETATM   27  C1  UNL     1      17.511  -0.750  52.418  1.00  0.00     0.269 C 
HETATM   28  O1  UNL     1      16.832  -0.886  53.457  1.00  0.00    -0.301 OA
ENDBRANCH   1  27
TORSDOF 3
ENDMDL
MODEL 3
REMARK VINA RESULT:      -9.0      4.743      5.731
REMARK  3 active torsions:
REMARK  status: ('A' for Active; 'I' for Inactive)
REMARK    1  A    between atoms: C1_2  and  C2_3 
REMARK    2  A    between atoms: C10_12  and  N2_13 
REMARK    3  A    between atoms: N2_13  and  C11_14 
ROOT
HETATM    1  C2  UNL     1      20.123  -0.081  52.565  1.00  0.00     0.002 A 
HETATM    2  C3  UNL     1      20.653  -0.393  53.795  1.00  0.00     0.017 A 
HETATM    3  C4  UNL     1      21.969   0.027  53.981  1.00  0.00     0.039 A 
HETATM    4  C5  UNL     1      22.654   0.698  52.990  1.00  0.00     0.086 A 
HETATM    5  C6  UNL     1      22.061   0.987  51.756  1.00  0.00    -0.006 A 
HETATM    6  C7  UNL     1      20.739   0.582  51.531  1.00  0.00     0.026 A 
HETATM    7  C8  UNL     1      22.572   1.670  50.574  1.00  0.00     0.161 C 
HETATM    8  N1  UNL     1      23.744   2.460  50.741  1.00  0.00    -0.379 N 
HETATM    9  C9  UNL     1      24.946   2.171  51.486  1.00  0.00     0.129 A 
HETATM   10  C10 UNL     1      26.106   2.624  50.894  1.00  0.00     0.160 A 
HETATM   11  N3  UNL     1      27.216   2.381  51.588  1.00  0.00    -0.222 NA
HETATM   12  C17 UNL     1      27.253   1.752  52.769  1.00  0.00     0.238 A 
HETATM   13  N4  UNL     1      26.150   1.294  53.379  1.00  0.00    -0.215 NA
HETATM   14  C18 UNL     1      25.001   1.512  52.723  1.00  0.00     0.202 A 
HETATM   15  O2  UNL     1      23.942   0.982  53.478  1.00  0.00    -0.289 OA
HETATM   16  H7  UNL     1      23.893   3.430  50.315  1.00  0.00     0.160 HD
ENDROOT
BRANCH  10  17
HETATM   17  N2  UNL     1      26.049   3.269  49.634  1.00  0.00    -0.339 N 
HETATM   18  H8  UNL     1      25.691   2.876  48.743  1.00  0.00     0.167 HD
BRANCH  17  19
HETATM   19  C11 UNL     1      26.498   4.580  49.307  1.00  0.00     0.035 A 
HETATM   20  C12 UNL     1      27.620   4.912  48.600  1.00  0.00     0.032 A 
HETATM   21  C13 UNL     1      28.034   6.188  48.309  1.00  0.00     0.046 A 
HETATM   22  C14 UNL     1      27.282   7.256  48.745  1.00  0.00     0.138 A 
HETATM   23  F1  UNL     1      27.739   8.476  48.428  1.00  0.00    -0.204 F 
HETATM   24  C15 UNL     1      26.159   6.969  49.453  1.00  0.00     0.074 A 
HETATM   25 CL1  UNL     1      25.240   8.384  49.986  1.00  0.00    -0.081 Cl
HETATM   26  C16 UNL     1      25.768   5.663  49.732  1.00  0.00     0.056 A 
ENDBRANCH  17  19
ENDBRANCH  10  17
BRANCH   1  27
HETATM   27  C1  UNL     1      18.763  -0.485  52.295  1.00  0.00     0.269 C 
HETATM   28  O1  UNL     1      17.771  -1.076  52.771  1.00  0.00    -0.301 OA
ENDBRANCH   1  27
TORSDOF 3
ENDMDL
MODEL 4
REMARK VINA RESULT:      -8.8      5.763      8.238
REMARK  3 active torsions:
REMARK  status: ('A' for Active; 'I' for Inactive)
REMARK    1  A    between atoms: C1_2  and  C2_3 
REMARK    2  A    between atoms: C10_12  and  N2_13 
REMARK    3  A    between atoms: N2_13  and  C11_14 
ROOT
HETATM    1  C2  UNL     1      26.253   6.558  48.604  1.00  0.00     0.002 A 
HETATM    2  C3  UNL     1      27.398   5.853  48.313  1.00  0.00     0.017 A 
HETATM    3  C4  UNL     1      27.474   4.599  48.916  1.00  0.00     0.039 A 
HETATM    4  C5  UNL     1      26.466   4.134  49.734  1.00  0.00     0.086 A 
HETATM    5  C6  UNL     1      25.322   4.898  49.994  1.00  0.00    -0.006 A 
HETATM    6  C7  UNL     1      25.208   6.164  49.405  1.00  0.00     0.026 A 
HETATM    7  C8  UNL     1      24.144   4.629  50.809  1.00  0.00     0.161 C 
HETATM    8  N1  UNL     1      23.912   3.276  51.182  1.00  0.00    -0.379 N 
HETATM    9  C9  UNL     1      24.849   2.276  51.637  1.00  0.00     0.129 A 
HETATM   10  C10 UNL     1      24.355   1.434  52.610  1.00  0.00     0.160 A 
HETATM   11  N3  UNL     1      25.208   0.495  53.017  1.00  0.00    -0.222 NA
HETATM   12  C17 UNL     1      26.453   0.343  52.551  1.00  0.00     0.238 A 
HETATM   13  N4  UNL     1      26.973   1.141  51.607  1.00  0.00    -0.215 NA
HETATM   14  C18 UNL     1      26.156   2.106  51.159  1.00  0.00     0.202 A 
HETATM   15  O2  UNL     1      26.834   2.853  50.183  1.00  0.00    -0.289 OA
HETATM   16  H7  UNL     1      22.958   2.793  51.166  1.00  0.00     0.160 HD
ENDROOT
BRANCH  10  17
HETATM   17  N2  UNL     1      23.042   1.623  53.107  1.00  0.00    -0.339 N 
HETATM   18  H8  UNL     1      22.603   2.518  53.397  1.00  0.00     0.167 HD
BRANCH  17  19
HETATM   19  C11 UNL     1      22.052   0.630  53.347  1.00  0.00     0.035 A 
HETATM   20  C12 UNL     1      22.151  -0.445  54.186  1.00  0.00     0.032 A 
HETATM   21  C13 UNL     1      21.181  -1.394  54.390  1.00  0.00     0.046 A 
HETATM   22  C14 UNL     1      19.987  -1.293  53.712  1.00  0.00     0.138 A 
HETATM   23  F1  UNL     1      19.080  -2.251  53.954  1.00  0.00    -0.204 F 
HETATM   24  C15 UNL     1      19.847  -0.239  52.866  1.00  0.00     0.074 A 
HETATM   25 CL1  UNL     1      18.293  -0.169  52.024  1.00  0.00    -0.081 Cl
HETATM   26  C16 UNL     1      20.852   0.705  52.682  1.00  0.00     0.056 A 
ENDBRANCH  17  19
ENDBRANCH  10  17
BRANCH   1  27
HETATM   27  C1  UNL     1      26.102   7.868  48.018  1.00  0.00     0.269 C 
HETATM   28  O1  UNL     1      26.479   8.608  47.084  1.00  0.00    -0.301 OA
ENDBRANCH   1  27
TORSDOF 3
ENDMDL
MODEL 5
REMARK VINA RESULT:      -8.7      5.890      8.481
REMARK  3 active torsions:
REMARK  status: ('A' for Active; 'I' for Inactive)
REMARK    1  A    between atoms: C1_2  and  C2_3 
REMARK    2  A    between atoms: C10_12  and  N2_13 
REMARK    3  A    between atoms: N2_13  and  C11_14 
ROOT
HETATM    1  C2  UNL     1      28.291   6.400  48.252  1.00  0.00     0.002 A 
HETATM    2  C3  UNL     1      27.661   7.570  48.607  1.00  0.00     0.017 A 
HETATM    3  C4  UNL     1      26.485   7.396  49.334  1.00  0.00     0.039 A 
HETATM    4  C5  UNL     1      26.020   6.139  49.656  1.00  0.00     0.086 A 
HETATM    5  C6  UNL     1      26.705   4.982  49.266  1.00  0.00    -0.006 A 
HETATM    6  C7  UNL     1      27.892   5.115  48.534  1.00  0.00     0.026 A 
HETATM    7  C8  UNL     1      26.418   3.569  49.481  1.00  0.00     0.161 C 
HETATM    8  N1  UNL     1      25.474   3.249  50.496  1.00  0.00    -0.379 N 
HETATM    9  C9  UNL     1      24.215   3.881  50.811  1.00  0.00     0.129 A 
HETATM   10  C10 UNL     1      23.224   3.009  51.207  1.00  0.00     0.160 A 
HETATM   11  N3  UNL     1      22.066   3.589  51.520  1.00  0.00    -0.222 NA
HETATM   12  C17 UNL     1      21.836   4.907  51.469  1.00  0.00     0.238 A 
HETATM   13  N4  UNL     1      22.771   5.789  51.087  1.00  0.00    -0.215 NA
HETATM   14  C18 UNL     1      23.959   5.259  50.760  1.00  0.00     0.202 A 
HETATM   15  O2  UNL     1      24.827   6.296  50.385  1.00  0.00    -0.289 OA
HETATM   16  H7  UNL     1      25.585   2.455  51.205  1.00  0.00     0.160 HD
ENDROOT
BRANCH  10  17
HETATM   17  N2  UNL     1      23.478   1.616  51.235  1.00  0.00    -0.339 N 
HETATM   18  H8  UNL     1      23.502   0.966  50.427  1.00  0.00     0.167 HD
BRANCH  17  19
HETATM   19  C11 UNL     1      23.726   0.800  52.374  1.00  0.00     0.035 A 
HETATM   20  C12 UNL     1      24.928   0.596  52.994  1.00  0.00     0.032 A 
HETATM   21  C13 UNL     1      25.138  -0.206  54.087  1.00  0.00     0.046 A 
HETATM   22  C14 UNL     1      24.074  -0.883  54.642  1.00  0.00     0.138 A 
HETATM   23  F1  UNL     1      24.345  -1.649  55.708  1.00  0.00    -0.204 F 
HETATM   24  C15 UNL     1      22.861  -0.707  54.055  1.00  0.00     0.074 A 
HETATM   25 CL1  UNL     1      21.538  -1.603  54.814  1.00  0.00    -0.081 Cl
HETATM   26  C16 UNL     1      22.683   0.114  52.947  1.00  0.00     0.056 A 
ENDBRANCH  17  19
ENDBRANCH  10  17
BRANCH   1  27
HETATM   27  C1  UNL     1      29.515   6.497  47.494  1.00  0.00     0.269 C 
HETATM   28  O1  UNL     1      30.398   7.287  47.096  1.00  0.00    -0.301 OA
ENDBRANCH   1  27
TORSDOF 3
ENDMDL
MODEL 6
REMARK VINA RESULT:      -8.6      5.806      8.005
REMARK  3 active torsions:
REMARK  status: ('A' for Active; 'I' for Inactive)
REMARK    1  A    between atoms: C1_2  and  C2_3 
REMARK    2  A    between atoms: C10_12  and  N2_13 
REMARK    3  A    between atoms: N2_13  and  C11_14 
ROOT
HETATM    1  C2  UNL     1      26.595  -0.419  52.862  1.00  0.00     0.002 A 
HETATM    2  C3  UNL     1      25.444  -0.521  53.608  1.00  0.00     0.017 A 
HETATM    3  C4  UNL     1      24.508   0.484  53.367  1.00  0.00     0.039 A 
HETATM    4  C5  UNL     1      24.750   1.483  52.448  1.00  0.00     0.086 A 
HETATM    5  C6  UNL     1      25.943   1.535  51.718  1.00  0.00    -0.006 A 
HETATM    6  C7  UNL     1      26.908   0.542  51.931  1.00  0.00     0.026 A 
HETATM    7  C8  UNL     1      26.421   2.475  50.712  1.00  0.00     0.161 C 
HETATM    8  N1  UNL     1      25.451   3.322  50.107  1.00  0.00    -0.379 N 
HETATM    9  C9  UNL     1      24.352   4.036  50.712  1.00  0.00     0.129 A 
HETATM   10  C10 UNL     1      24.110   5.278  50.166  1.00  0.00     0.160 A 
HETATM   11  N3  UNL     1      23.083   5.932  50.706  1.00  0.00    -0.222 NA
HETATM   12  C17 UNL     1      22.318   5.463  51.699  1.00  0.00     0.238 A 
HETATM   13  N4  UNL     1      22.520   4.261  52.259  1.00  0.00    -0.215 NA
HETATM   14  C18 UNL     1      23.543   3.558  51.753  1.00  0.00     0.202 A 
HETATM   15  O2  UNL     1      23.629   2.333  52.435  1.00  0.00    -0.289 OA
HETATM   16  H7  UNL     1      25.404   3.549  49.062  1.00  0.00     0.160 HD
ENDROOT
BRANCH  10  17
HETATM   17  N2  UNL     1      24.943   5.768  49.130  1.00  0.00    -0.339 N 
HETATM   18  H8  UNL     1      24.943   5.478  48.134  1.00  0.00     0.167 HD
BRANCH  17  19
HETATM   19  C11 UNL     1      25.979   6.739  49.233  1.00  0.00     0.035 A 
HETATM   20  C12 UNL     1      25.988   7.850  50.029  1.00  0.00     0.032 A 
HETATM   21  C13 UNL     1      26.999   8.776  50.100  1.00  0.00     0.046 A 
HETATM   22  C14 UNL     1      28.122   8.609  49.319  1.00  0.00     0.138 A 
HETATM   23  F1  UNL     1      29.073   9.546  49.433  1.00  0.00    -0.204 F 
HETATM   24  C15 UNL     1      28.152   7.516  48.512  1.00  0.00     0.074 A 
HETATM   25 CL1  UNL     1      29.618   7.361  47.535  1.00  0.00    -0.081 Cl
HETATM   26  C16 UNL     1      27.109   6.597  48.464  1.00  0.00     0.056 A 
ENDBRANCH  17  19
ENDBRANCH  10  17
BRANCH   1  27
HETATM   27  C1  UNL     1      27.614  -1.423  53.056  1.00  0.00     0.269 C 
HETATM   28  O1  UNL     1      27.836  -2.652  53.054  1.00  0.00    -0.301 OA
ENDBRANCH   1  27
TORSDOF 3
ENDMDL
MODEL 7
REMARK VINA RESULT:      -8.6      5.238      9.175
REMARK  3 active torsions:
REMARK  status: ('A' for Active; 'I' for Inactive)
REMARK    1  A    between atoms: C1_2  and  C2_3 
REMARK    2  A    between atoms: C10_12  and  N2_13 
REMARK    3  A    between atoms: N2_13  and  C11_14 
ROOT
HETATM    1  C2  UNL     1      25.582   0.184  53.390  1.00  0.00     0.002 A 
HETATM    2  C3  UNL     1      25.567   1.176  52.436  1.00  0.00     0.017 A 
HETATM    3  C4  UNL     1      24.300   1.489  51.947  1.00  0.00     0.039 A 
HETATM    4  C5  UNL     1      23.174   0.837  52.405  1.00  0.00     0.086 A 
HETATM    5  C6  UNL     1      23.252  -0.166  53.378  1.00  0.00    -0.006 A 
HETATM    6  C7  UNL     1      24.508  -0.509  53.895  1.00  0.00     0.026 A 
HETATM    7  C8  UNL     1      22.223  -0.984  54.008  1.00  0.00     0.161 C 
HETATM    8  N1  UNL     1      20.878  -0.537  53.885  1.00  0.00    -0.379 N 
HETATM    9  C9  UNL     1      20.193   0.006  52.737  1.00  0.00     0.129 A 
HETATM   10  C10 UNL     1      18.874  -0.377  52.627  1.00  0.00     0.160 A 
HETATM   11  N3  UNL     1      18.230   0.140  51.582  1.00  0.00    -0.222 NA
HETATM   12  C17 UNL     1      18.777   0.968  50.684  1.00  0.00     0.238 A 
HETATM   13  N4  UNL     1      20.057   1.364  50.752  1.00  0.00    -0.215 NA
HETATM   14  C18 UNL     1      20.753   0.873  51.788  1.00  0.00     0.202 A 
HETATM   15  O2  UNL     1      22.064   1.373  51.727  1.00  0.00    -0.289 OA
HETATM   16  H7  UNL     1      20.158  -0.541  54.677  1.00  0.00     0.160 HD
ENDROOT
BRANCH  10  17
HETATM   17  N2  UNL     1      18.317  -1.271  53.574  1.00  0.00    -0.339 N 
HETATM   18  H8  UNL     1      18.503  -1.301  54.595  1.00  0.00     0.167 HD
BRANCH  17  19
HETATM   19  C11 UNL     1      17.408  -2.339  53.332  1.00  0.00     0.035 A 
HETATM   20  C12 UNL     1      17.536  -3.637  53.742  1.00  0.00     0.032 A 
HETATM   21  C13 UNL     1      16.646  -4.650  53.485  1.00  0.00     0.046 A 
HETATM   22  C14 UNL     1      15.510  -4.379  52.754  1.00  0.00     0.138 A 
HETATM   23  F1  UNL     1      14.681  -5.410  52.537  1.00  0.00    -0.204 F 
HETATM   24  C15 UNL     1      15.344  -3.100  52.327  1.00  0.00     0.074 A 
HETATM   25 CL1  UNL     1      13.868  -2.819  51.395  1.00  0.00    -0.081 Cl
HETATM   26  C16 UNL     1      16.267  -2.097  52.606  1.00  0.00     0.056 A 
ENDBRANCH  17  19
ENDBRANCH  10  17
BRANCH   1  27
HETATM   27  C1  UNL     1      26.859  -0.198  53.943  1.00  0.00     0.269 C 
HETATM   28  O1  UNL     1      27.555  -0.188  54.981  1.00  0.00    -0.301 OA
ENDBRANCH   1  27
TORSDOF 3
ENDMDL
MODEL 8
REMARK VINA RESULT:      -8.5      4.738      8.875
REMARK  3 active torsions:
REMARK  status: ('A' for Active; 'I' for Inactive)
REMARK    1  A    between atoms: C1_2  and  C2_3 
REMARK    2  A    between atoms: C10_12  and  N2_13 
REMARK    3  A    between atoms: N2_13  and  C11_14 
ROOT
HETATM    1  C2  UNL     1      28.305  -0.190  53.502  1.00  0.00     0.002 A 
HETATM    2  C3  UNL     1      28.648   1.142  53.465  1.00  0.00     0.017 A 
HETATM    3  C4  UNL     1      27.567   2.013  53.336  1.00  0.00     0.039 A 
HETATM    4  C5  UNL     1      26.273   1.544  53.253  1.00  0.00     0.086 A 
HETATM    5  C6  UNL     1      25.986   0.174  53.296  1.00  0.00    -0.006 A 
HETATM    6  C7  UNL     1      27.045  -0.733  53.426  1.00  0.00     0.026 A 
HETATM    7  C8  UNL     1      24.724  -0.552  53.227  1.00  0.00     0.161 C 
HETATM    8  N1  UNL     1      23.536   0.196  53.460  1.00  0.00    -0.379 N 
HETATM    9  C9  UNL     1      23.172   1.511  52.989  1.00  0.00     0.129 A 
HETATM   10  C10 UNL     1      21.838   1.653  52.671  1.00  0.00     0.160 A 
HETATM   11  N3  UNL     1      21.493   2.871  52.257  1.00  0.00    -0.222 NA
HETATM   12  C17 UNL     1      22.335   3.904  52.142  1.00  0.00     0.238 A 
HETATM   13  N4  UNL     1      23.640   3.808  52.439  1.00  0.00    -0.215 NA
HETATM   14  C18 UNL     1      24.044   2.602  52.862  1.00  0.00     0.202 A 
HETATM   15  O2  UNL     1      25.421   2.656  53.131  1.00  0.00    -0.289 OA
HETATM   16  H7  UNL     1      22.711  -0.138  54.054  1.00  0.00     0.160 HD
ENDROOT
BRANCH  10  17
HETATM   17  N2  UNL     1      20.965   0.543  52.778  1.00  0.00    -0.339 N 
HETATM   18  H8  UNL     1      21.080  -0.291  53.386  1.00  0.00     0.167 HD
BRANCH  17  19
HETATM   19  C11 UNL     1      19.759   0.312  52.057  1.00  0.00     0.035 A 
HETATM   20  C12 UNL     1      19.455   0.758  50.801  1.00  0.00     0.032 A 
HETATM   21  C13 UNL     1      18.278   0.527  50.134  1.00  0.00     0.046 A 
HETATM   22  C14 UNL     1      17.290  -0.214  50.745  1.00  0.00     0.138 A 
HETATM   23  F1  UNL     1      16.165  -0.403  50.042  1.00  0.00    -0.204 F 
HETATM   24  C15 UNL     1      17.553  -0.675  51.996  1.00  0.00     0.074 A 
HETATM   25 CL1  UNL     1      16.245  -1.617  52.725  1.00  0.00    -0.081 Cl
HETATM   26  C16 UNL     1      18.758  -0.423  52.644  1.00  0.00     0.056 A 
ENDBRANCH  17  19
ENDBRANCH  10  17
BRANCH   1  27
HETATM   27  C1  UNL     1      29.370  -1.155  53.632  1.00  0.00     0.269 C 
HETATM   28  O1  UNL     1      29.624  -2.376  53.705  1.00  0.00    -0.301 OA
ENDBRANCH   1  27
TORSDOF 3
ENDMDL
MODEL 9
REMARK VINA RESULT:      -8.5      6.451      8.500
REMARK  3 active torsions:
REMARK  status: ('A' for Active; 'I' for Inactive)
REMARK    1  A    between atoms: C1_2  and  C2_3 
REMARK    2  A    between atoms: C10_12  and  N2_13 
REMARK    3  A    between atoms: N2_13  and  C11_14 
ROOT
HETATM    1  C2  UNL     1      25.855   0.537  52.470  1.00  0.00     0.002 A 
HETATM    2  C3  UNL     1      24.745   0.889  53.202  1.00  0.00     0.017 A 
HETATM    3  C4  UNL     1      24.207   2.132  52.874  1.00  0.00     0.039 A 
HETATM    4  C5  UNL     1      24.767   2.919  51.889  1.00  0.00     0.086 A 
HETATM    5  C6  UNL     1      25.899   2.506  51.177  1.00  0.00    -0.006 A 
HETATM    6  C7  UNL     1      26.469   1.263  51.477  1.00  0.00     0.026 A 
HETATM    7  C8  UNL     1      26.659   3.150  50.113  1.00  0.00     0.161 C 
HETATM    8  N1  UNL     1      26.031   4.230  49.433  1.00  0.00    -0.379 N 
HETATM    9  C9  UNL     1      25.247   5.318  49.966  1.00  0.00     0.129 A 
HETATM   10  C10 UNL     1      25.439   6.525  49.327  1.00  0.00     0.160 A 
HETATM   11  N3  UNL     1      24.702   7.527  49.801  1.00  0.00    -0.222 NA
HETATM   12  C17 UNL     1      23.832   7.422  50.813  1.00  0.00     0.238 A 
HETATM   13  N4  UNL     1      23.617   6.269  51.462  1.00  0.00    -0.215 NA
HETATM   14  C18 UNL     1      24.334   5.223  51.026  1.00  0.00     0.202 A 
HETATM   15  O2  UNL     1      24.003   4.096  51.795  1.00  0.00    -0.289 OA
HETATM   16  H7  UNL     1      26.055   4.381  48.374  1.00  0.00     0.160 HD
ENDROOT
BRANCH  10  17
HETATM   17  N2  UNL     1      26.380   6.623  48.272  1.00  0.00    -0.339 N 
HETATM   18  H8  UNL     1      26.201   6.497  47.258  1.00  0.00     0.167 HD
BRANCH  17  19
HETATM   19  C11 UNL     1      27.775   6.885  48.373  1.00  0.00     0.035 A 
HETATM   20  C12 UNL     1      28.795   5.999  48.164  1.00  0.00     0.032 A 
HETATM   21  C13 UNL     1      30.134   6.278  48.278  1.00  0.00     0.046 A 
HETATM   22  C14 UNL     1      30.529   7.549  48.630  1.00  0.00     0.138 A 
HETATM   23  F1  UNL     1      31.850   7.758  48.725  1.00  0.00    -0.204 F 
HETATM   24  C15 UNL     1      29.546   8.461  48.848  1.00  0.00     0.074 A 
HETATM   25 CL1  UNL     1      30.120  10.073  49.298  1.00  0.00    -0.081 Cl
HETATM   26  C16 UNL     1      28.197   8.144  48.724  1.00  0.00     0.056 A 
ENDBRANCH  17  19
ENDBRANCH  10  17
BRANCH   1  27
HETATM   27  C1  UNL     1      26.473  -0.737  52.754  1.00  0.00     0.269 C 
HETATM   28  O1  UNL     1      26.601  -1.627  53.621  1.00  0.00    -0.301 OA
ENDBRANCH   1  27
TORSDOF 3
ENDMDL
