MODEL 1
REMARK VINA RESULT:      -9.5      0.000      0.000
REMARK  2 active torsions:
REMARK  status: ('A' for Active; 'I' for Inactive)
REMARK    1  A    between atoms: C9_12  and  N4_13 
REMARK    2  A    between atoms: N4_13  and  C10_14 
ROOT
HETATM    1  C1  UNL     1      22.245   5.240  47.179  1.00  0.00     0.149 C 
HETATM    2  N1  UNL     1      23.018   5.043  48.373  1.00  0.00    -0.391 N 
HETATM    3  C2  UNL     1      22.939   3.813  49.019  1.00  0.00     0.085 C 
HETATM    4  C3  UNL     1      23.105   2.522  49.304  1.00  0.00     0.014 C 
HETATM    5  C4  UNL     1      22.593   1.863  50.457  1.00  0.00    -0.011 C 
HETATM    6  C5  UNL     1      22.203   1.277  51.382  1.00  0.00     0.038 A 
HETATM    7  C6  UNL     1      21.950   0.420  52.257  1.00  0.00     0.102 A 
HETATM    8  C7  UNL     1      20.518   0.341  51.482  1.00  0.00    -0.002 C 
HETATM    9  N2  UNL     1      19.398   0.257  50.877  1.00  0.00    -0.100 N 
HETATM   10  C8  UNL     1      21.715  -0.502  53.214  1.00  0.00     0.118 A 
HETATM   11  N3  UNL     1      22.914  -0.561  53.802  1.00  0.00    -0.248 NA
HETATM   12  C9  UNL     1      23.936   0.240  53.337  1.00  0.00     0.119 A 
HETATM   13  C16 UNL     1      23.425   0.986  52.262  1.00  0.00     0.076 A 
HETATM   14  C17 UNL     1      24.511   1.916  52.460  1.00  0.00    -0.003 C 
HETATM   15  C18 UNL     1      24.565   3.272  51.856  1.00  0.00     0.296 A 
HETATM   16  N5  UNL     1      25.772   3.472  51.115  1.00  0.00     0.106 N 
HETATM   17  C19 UNL     1      25.558   4.555  50.068  1.00  0.00     0.259 A 
HETATM   18  O1  UNL     1      25.347   3.796  50.950  1.00  0.00     0.000 OA
HETATM   19  C20 UNL     1      26.339   5.244  49.078  1.00  0.00     0.018 C 
HETATM   20  C21 UNL     1      25.277   5.964  48.575  1.00  0.00    -0.008 C 
HETATM   21  C22 UNL     1      23.962   5.741  49.207  1.00  0.00     0.148 C 
HETATM   22  H16 UNL     1      26.607   2.785  51.485  1.00  0.00     0.317 HD
ENDROOT
BRANCH  12  23
HETATM   23  N4  UNL     1      25.128   0.044  54.055  1.00  0.00    -0.343 N 
HETATM   24  H8  UNL     1      25.005   0.603  54.916  1.00  0.00     0.167 HD
BRANCH  23  25
HETATM   25  C10 UNL     1      26.152  -0.766  53.555  1.00  0.00     0.034 A 
HETATM   26  C11 UNL     1      26.053  -1.931  52.891  1.00  0.00     0.029 A 
HETATM   27  C12 UNL     1      27.256  -2.483  52.515  1.00  0.00     0.004 A 
HETATM   28  C13 UNL     1      28.481  -1.957  52.757  1.00  0.00     0.019 A 
HETATM   29  C14 UNL     1      28.581  -0.744  53.450  1.00  0.00     0.013 A 
HETATM   30 BR1  UNL     1      30.261   0.033  53.827  1.00  0.00    -0.051 Br
HETATM   31  C15 UNL     1      27.363  -0.195  53.824  1.00  0.00     0.048 A 
ENDBRANCH  23  25
ENDBRANCH  12  23
TORSDOF 2
ENDMDL
MODEL 2
REMARK VINA RESULT:      -9.3      2.942      6.890
REMARK  2 active torsions:
REMARK  status: ('A' for Active; 'I' for Inactive)
REMARK    1  A    between atoms: C9_12  and  N4_13 
REMARK    2  A    between atoms: N4_13  and  C10_14 
ROOT
HETATM    1  C1  UNL     1      20.357  -1.603  54.576  1.00  0.00     0.149 C 
HETATM    2  N1  UNL     1      20.610  -0.519  53.668  1.00  0.00    -0.391 N 
HETATM    3  C2  UNL     1      21.915  -0.304  53.239  1.00  0.00     0.085 C 
HETATM    4  C3  UNL     1      23.074  -0.444  52.597  1.00  0.00     0.014 C 
HETATM    5  C4  UNL     1      24.194   0.425  52.723  1.00  0.00    -0.011 C 
HETATM    6  C5  UNL     1      25.135   1.104  52.783  1.00  0.00     0.038 A 
HETATM    7  C6  UNL     1      26.248   1.652  52.627  1.00  0.00     0.102 A 
HETATM    8  C7  UNL     1      26.610   0.862  54.005  1.00  0.00    -0.002 C 
HETATM    9  N2  UNL     1      26.912   0.238  55.076  1.00  0.00    -0.100 N 
HETATM   10  C8  UNL     1      27.437   2.258  52.421  1.00  0.00     0.118 A 
HETATM   11  N3  UNL     1      27.226   2.821  51.227  1.00  0.00    -0.248 NA
HETATM   12  C9  UNL     1      26.003   2.660  50.610  1.00  0.00     0.119 A 
HETATM   13  C16 UNL     1      25.208   1.870  51.457  1.00  0.00     0.076 A 
HETATM   14  C17 UNL     1      24.051   2.380  50.760  1.00  0.00    -0.003 C 
HETATM   15  C18 UNL     1      22.657   2.244  51.253  1.00  0.00     0.296 A 
HETATM   16  N5  UNL     1      21.809   1.632  50.277  1.00  0.00     0.106 N 
HETATM   17  C19 UNL     1      20.618   0.984  50.966  1.00  0.00     0.259 A 
HETATM   18  O1  UNL     1      21.631   1.571  50.804  1.00  0.00     0.000 OA
HETATM   19  C20 UNL     1      19.422   0.285  50.584  1.00  0.00     0.018 C 
HETATM   20  C21 UNL     1      19.028   0.016  51.878  1.00  0.00    -0.008 C 
HETATM   21  C22 UNL     1      19.903   0.515  52.957  1.00  0.00     0.148 C 
HETATM   22  H16 UNL     1      22.217   1.781  49.220  1.00  0.00     0.317 HD
ENDROOT
BRANCH  12  23
HETATM   23  N4  UNL     1      25.954   3.303  49.361  1.00  0.00    -0.343 N 
HETATM   24  H8  UNL     1      25.542   2.600  48.726  1.00  0.00     0.167 HD
BRANCH  23  25
HETATM   25  C10 UNL     1      26.413   4.614  49.201  1.00  0.00     0.034 A 
HETATM   26  C11 UNL     1      27.553   5.041  48.629  1.00  0.00     0.029 A 
HETATM   27  C12 UNL     1      27.711   6.408  48.612  1.00  0.00     0.004 A 
HETATM   28  C13 UNL     1      26.837   7.314  49.112  1.00  0.00     0.019 A 
HETATM   29  C14 UNL     1      25.652   6.866  49.709  1.00  0.00     0.013 A 
HETATM   30 BR1  UNL     1      24.399   8.081  50.432  1.00  0.00    -0.051 Br
HETATM   31  C15 UNL     1      25.500   5.488  49.719  1.00  0.00     0.048 A 
ENDBRANCH  23  25
ENDBRANCH  12  23
TORSDOF 2
ENDMDL
MODEL 3
REMARK VINA RESULT:      -9.1      3.096      7.424
REMARK  2 active torsions:
REMARK  status: ('A' for Active; 'I' for Inactive)
REMARK    1  A    between atoms: C9_12  and  N4_13 
REMARK    2  A    between atoms: N4_13  and  C10_14 
ROOT
HETATM    1  C1  UNL     1      23.089  -0.888  54.172  1.00  0.00     0.149 C 
HETATM    2  N1  UNL     1      24.196  -0.302  53.472  1.00  0.00    -0.391 N 
HETATM    3  C2  UNL     1      24.006   0.919  52.833  1.00  0.00     0.085 C 
HETATM    4  C3  UNL     1      23.838   2.224  52.625  1.00  0.00     0.014 C 
HETATM    5  C4  UNL     1      23.707   2.844  51.350  1.00  0.00    -0.011 C 
HETATM    6  C5  UNL     1      23.600   3.402  50.336  1.00  0.00     0.038 A 
HETATM    7  C6  UNL     1      23.492   4.249  49.423  1.00  0.00     0.102 A 
HETATM    8  C7  UNL     1      21.932   3.777  49.440  1.00  0.00    -0.002 C 
HETATM    9  N2  UNL     1      20.705   3.429  49.450  1.00  0.00    -0.100 N 
HETATM   10  C8  UNL     1      23.415   5.174  48.443  1.00  0.00     0.118 A 
HETATM   11  N3  UNL     1      24.652   5.679  48.481  1.00  0.00    -0.248 NA
HETATM   12  C9  UNL     1      25.561   5.177  49.388  1.00  0.00     0.119 A 
HETATM   13  C16 UNL     1      24.908   4.171  50.120  1.00  0.00     0.076 A 
HETATM   14  C17 UNL     1      26.210   3.657  50.474  1.00  0.00    -0.003 C 
HETATM   15  C18 UNL     1      26.440   2.315  51.068  1.00  0.00     0.296 A 
HETATM   16  N5  UNL     1      27.177   2.398  52.290  1.00  0.00     0.106 N 
HETATM   17  C19 UNL     1      26.896   1.170  53.143  1.00  0.00     0.259 A 
HETATM   18  O1  UNL     1      26.860   1.939  52.246  1.00  0.00     0.000 OA
HETATM   19  C20 UNL     1      27.334   0.627  54.400  1.00  0.00     0.018 C 
HETATM   20  C21 UNL     1      26.469  -0.446  54.368  1.00  0.00    -0.008 C 
HETATM   21  C22 UNL     1      25.587  -0.556  53.191  1.00  0.00     0.148 C 
HETATM   22  H16 UNL     1      27.805   3.352  52.334  1.00  0.00     0.317 HD
ENDROOT
BRANCH  12  23
HETATM   23  N4  UNL     1      26.805   5.826  49.303  1.00  0.00    -0.343 N 
HETATM   24  H8  UNL     1      27.498   5.061  49.343  1.00  0.00     0.167 HD
BRANCH  23  25
HETATM   25  C10 UNL     1      26.892   7.217  49.196  1.00  0.00     0.034 A 
HETATM   26  C11 UNL     1      26.441   8.155  50.048  1.00  0.00     0.029 A 
HETATM   27  C12 UNL     1      26.695   9.452  49.664  1.00  0.00     0.004 A 
HETATM   28  C13 UNL     1      27.340   9.832  48.535  1.00  0.00     0.019 A 
HETATM   29  C14 UNL     1      27.807   8.854  47.648  1.00  0.00     0.013 A 
HETATM   30 BR1  UNL     1      28.704   9.324  46.053  1.00  0.00    -0.051 Br
HETATM   31  C15 UNL     1      27.547   7.551  48.045  1.00  0.00     0.048 A 
ENDBRANCH  23  25
ENDBRANCH  12  23
TORSDOF 2
ENDMDL
MODEL 4
REMARK VINA RESULT:      -9.0      2.359      5.260
REMARK  2 active torsions:
REMARK  status: ('A' for Active; 'I' for Inactive)
REMARK    1  A    between atoms: C9_12  and  N4_13 
REMARK    2  A    between atoms: N4_13  and  C10_14 
ROOT
HETATM    1  C1  UNL     1      16.859   3.638  51.829  1.00  0.00     0.149 C 
HETATM    2  N1  UNL     1      17.880   2.685  51.495  1.00  0.00    -0.391 N 
HETATM    3  C2  UNL     1      19.209   3.029  51.720  1.00  0.00     0.085 C 
HETATM    4  C3  UNL     1      20.360   3.286  52.338  1.00  0.00     0.014 C 
HETATM    5  C4  UNL     1      21.577   3.648  51.694  1.00  0.00    -0.011 C 
HETATM    6  C5  UNL     1      22.596   3.942  51.220  1.00  0.00     0.038 A 
HETATM    7  C6  UNL     1      23.792   4.233  50.996  1.00  0.00     0.102 A 
HETATM    8  C7  UNL     1      23.198   5.747  50.896  1.00  0.00    -0.002 C 
HETATM    9  N2  UNL     1      22.751   6.940  50.829  1.00  0.00    -0.100 N 
HETATM   10  C8  UNL     1      25.093   4.508  50.762  1.00  0.00     0.118 A 
HETATM   11  N3  UNL     1      25.640   3.304  50.959  1.00  0.00    -0.248 NA
HETATM   12  C9  UNL     1      24.831   2.239  51.296  1.00  0.00     0.119 A 
HETATM   13  C16 UNL     1      23.512   2.721  51.360  1.00  0.00     0.076 A 
HETATM   14  C17 UNL     1      23.063   1.357  51.205  1.00  0.00    -0.003 C 
HETATM   15  C18 UNL     1      21.668   0.976  50.868  1.00  0.00     0.296 A 
HETATM   16  N5  UNL     1      21.128   0.055  51.820  1.00  0.00     0.106 N 
HETATM   17  C19 UNL     1      19.609   0.141  51.812  1.00  0.00     0.259 A 
HETATM   18  O1  UNL     1      20.742   0.355  51.549  1.00  0.00     0.000 OA
HETATM   19  C20 UNL     1      18.505  -0.518  52.456  1.00  0.00     0.018 C 
HETATM   20  C21 UNL     1      17.544   0.293  51.890  1.00  0.00    -0.008 C 
HETATM   21  C22 UNL     1      18.017   1.348  50.974  1.00  0.00     0.148 C 
HETATM   22  H16 UNL     1      21.955  -0.529  52.350  1.00  0.00     0.317 HD
ENDROOT
BRANCH  12  23
HETATM   23  N4  UNL     1      25.566   1.055  51.479  1.00  0.00    -0.343 N 
HETATM   24  H8  UNL     1      25.586   0.618  50.543  1.00  0.00     0.167 HD
BRANCH  23  25
HETATM   25  C10 UNL     1      26.080   0.706  52.731  1.00  0.00     0.034 A 
HETATM   26  C11 UNL     1      25.487   0.791  53.936  1.00  0.00     0.029 A 
HETATM   27  C12 UNL     1      26.256   0.351  54.988  1.00  0.00     0.004 A 
HETATM   28  C13 UNL     1      27.516  -0.141  54.899  1.00  0.00     0.019 A 
HETATM   29  C14 UNL     1      28.131  -0.227  53.643  1.00  0.00     0.013 A 
HETATM   30 BR1  UNL     1      29.889  -0.893  53.457  1.00  0.00    -0.051 Br
HETATM   31  C15 UNL     1      27.347   0.218  52.590  1.00  0.00     0.048 A 
ENDBRANCH  23  25
ENDBRANCH  12  23
TORSDOF 2
ENDMDL
MODEL 5
REMARK VINA RESULT:      -8.9      3.989      7.952
REMARK  2 active torsions:
REMARK  status: ('A' for Active; 'I' for Inactive)
REMARK    1  A    between atoms: C9_12  and  N4_13 
REMARK    2  A    between atoms: N4_13  and  C10_14 
ROOT
HETATM    1  C1  UNL     1      21.469   4.622  51.754  1.00  0.00     0.149 C 
HETATM    2  N1  UNL     1      22.707   4.092  51.255  1.00  0.00    -0.391 N 
HETATM    3  C2  UNL     1      23.651   4.978  50.745  1.00  0.00     0.085 C 
HETATM    4  C3  UNL     1      24.604   5.906  50.673  1.00  0.00     0.014 C 
HETATM    5  C4  UNL     1      25.215   6.366  49.472  1.00  0.00    -0.011 C 
HETATM    6  C5  UNL     1      25.750   6.773  48.524  1.00  0.00     0.038 A 
HETATM    7  C6  UNL     1      26.494   7.360  47.709  1.00  0.00     0.102 A 
HETATM    8  C7  UNL     1      25.184   8.306  47.496  1.00  0.00    -0.002 C 
HETATM    9  N2  UNL     1      24.172   9.064  47.328  1.00  0.00    -0.100 N 
HETATM   10  C8  UNL     1      27.330   7.970  46.842  1.00  0.00     0.118 A 
HETATM   11  N3  UNL     1      28.463   7.301  47.076  1.00  0.00    -0.248 NA
HETATM   12  C9  UNL     1      28.471   6.291  48.015  1.00  0.00     0.119 A 
HETATM   13  C16 UNL     1      27.173   6.205  48.547  1.00  0.00     0.076 A 
HETATM   14  C17 UNL     1      27.497   4.867  48.983  1.00  0.00    -0.003 C 
HETATM   15  C18 UNL     1      26.490   3.875  49.438  1.00  0.00     0.296 A 
HETATM   16  N5  UNL     1      26.802   3.365  50.737  1.00  0.00     0.106 N 
HETATM   17  C19 UNL     1      25.535   2.851  51.404  1.00  0.00     0.259 A 
HETATM   18  O1  UNL     1      26.260   3.334  50.605  1.00  0.00     0.000 OA
HETATM   19  C20 UNL     1      25.172   2.195  52.631  1.00  0.00     0.018 C 
HETATM   20  C21 UNL     1      23.817   2.222  52.378  1.00  0.00    -0.008 C 
HETATM   21  C22 UNL     1      23.389   2.832  51.104  1.00  0.00     0.148 C 
HETATM   22  H16 UNL     1      27.919   3.452  50.962  1.00  0.00     0.317 HD
ENDROOT
BRANCH  12  23
HETATM   23  N4  UNL     1      29.741   5.703  48.146  1.00  0.00    -0.343 N 
HETATM   24  H8  UNL     1      29.576   4.695  47.987  1.00  0.00     0.167 HD
BRANCH  23  25
HETATM   25  C10 UNL     1      30.871   6.473  48.436  1.00  0.00     0.034 A 
HETATM   26  C11 UNL     1      30.933   7.753  48.843  1.00  0.00     0.029 A 
HETATM   27  C12 UNL     1      32.206   8.227  49.061  1.00  0.00     0.004 A 
HETATM   28  C13 UNL     1      33.353   7.523  48.899  1.00  0.00     0.019 A 
HETATM   29  C14 UNL     1      33.285   6.191  48.473  1.00  0.00     0.013 A 
HETATM   30 BR1  UNL     1      34.850   5.163  48.219  1.00  0.00    -0.051 Br
HETATM   31  C15 UNL     1      31.998   5.723  48.258  1.00  0.00     0.048 A 
ENDBRANCH  23  25
ENDBRANCH  12  23
TORSDOF 2
ENDMDL
MODEL 6
REMARK VINA RESULT:      -8.9      3.215      5.365
REMARK  2 active torsions:
REMARK  status: ('A' for Active; 'I' for Inactive)
REMARK    1  A    between atoms: C9_12  and  N4_13 
REMARK    2  A    between atoms: N4_13  and  C10_14 
ROOT
HETATM    1  C1  UNL     1      26.252  10.572  45.811  1.00  0.00     0.149 C 
HETATM    2  N1  UNL     1      26.123  10.088  47.157  1.00  0.00    -0.391 N 
HETATM    3  C2  UNL     1      25.676   8.786  47.353  1.00  0.00     0.085 C 
HETATM    4  C3  UNL     1      25.643   7.455  47.410  1.00  0.00     0.014 C 
HETATM    5  C4  UNL     1      24.536   6.677  47.850  1.00  0.00    -0.011 C 
HETATM    6  C5  UNL     1      23.665   5.994  48.204  1.00  0.00     0.038 A 
HETATM    7  C6  UNL     1      22.934   5.039  48.546  1.00  0.00     0.102 A 
HETATM    8  C7  UNL     1      22.289   5.260  47.066  1.00  0.00    -0.002 C 
HETATM    9  N2  UNL     1      21.783   5.411  45.905  1.00  0.00    -0.100 N 
HETATM   10  C8  UNL     1      22.167   4.004  48.951  1.00  0.00     0.118 A 
HETATM   11  N3  UNL     1      22.747   3.707  50.118  1.00  0.00    -0.248 NA
HETATM   12  C9  UNL     1      23.829   4.448  50.545  1.00  0.00     0.119 A 
HETATM   13  C16 UNL     1      24.083   5.419  49.562  1.00  0.00     0.076 A 
HETATM   14  C17 UNL     1      24.805   6.168  50.563  1.00  0.00    -0.003 C 
HETATM   15  C18 UNL     1      25.205   7.590  50.409  1.00  0.00     0.296 A 
HETATM   16  N5  UNL     1      26.610   7.768  50.613  1.00  0.00     0.106 N 
HETATM   17  C19 UNL     1      27.076   9.028  49.901  1.00  0.00     0.259 A 
HETATM   18  O1  UNL     1      26.374   8.162  50.295  1.00  0.00     0.000 OA
HETATM   19  C20 UNL     1      28.295   9.776  49.756  1.00  0.00     0.018 C 
HETATM   20  C21 UNL     1      27.763  10.690  48.871  1.00  0.00    -0.008 C 
HETATM   21  C22 UNL     1      26.342  10.522  48.513  1.00  0.00     0.148 C 
HETATM   22  H16 UNL     1      27.044   6.935  51.264  1.00  0.00     0.317 HD
ENDROOT
BRANCH  12  23
HETATM   23  N4  UNL     1      24.324   3.996  51.780  1.00  0.00    -0.343 N 
HETATM   24  H8  UNL     1      24.063   4.739  52.449  1.00  0.00     0.167 HD
BRANCH  23  25
HETATM   25  C10 UNL     1      25.000   2.777  51.889  1.00  0.00     0.034 A 
HETATM   26  C11 UNL     1      26.206   2.439  51.397  1.00  0.00     0.029 A 
HETATM   27  C12 UNL     1      26.607   1.156  51.688  1.00  0.00     0.004 A 
HETATM   28  C13 UNL     1      25.902   0.248  52.405  1.00  0.00     0.019 A 
HETATM   29  C14 UNL     1      24.646   0.602  52.914  1.00  0.00     0.013 A 
HETATM   30 BR1  UNL     1      23.612  -0.625  53.912  1.00  0.00    -0.051 Br
HETATM   31  C15 UNL     1      24.251   1.898  52.616  1.00  0.00     0.048 A 
ENDBRANCH  23  25
ENDBRANCH  12  23
TORSDOF 2
ENDMDL
MODEL 7
REMARK VINA RESULT:      -8.8      6.350      9.934
REMARK  2 active torsions:
REMARK  status: ('A' for Active; 'I' for Inactive)
REMARK    1  A    between atoms: C9_12  and  N4_13 
REMARK    2  A    between atoms: N4_13  and  C10_14 
ROOT
HETATM    1  C1  UNL     1      24.657   9.515  48.715  1.00  0.00     0.149 C 
HETATM    2  N1  UNL     1      25.487   8.379  48.426  1.00  0.00    -0.391 N 
HETATM    3  C2  UNL     1      26.847   8.463  48.707  1.00  0.00     0.085 C 
HETATM    4  C3  UNL     1      28.000   8.499  49.373  1.00  0.00     0.014 C 
HETATM    5  C4  UNL     1      29.289   8.613  48.780  1.00  0.00    -0.011 C 
HETATM    6  C5  UNL     1      30.365   8.700  48.349  1.00  0.00     0.038 A 
HETATM    7  C6  UNL     1      31.602   8.752  48.176  1.00  0.00     0.102 A 
HETATM    8  C7  UNL     1      31.317  10.352  48.048  1.00  0.00    -0.002 C 
HETATM    9  N2  UNL     1      31.112  11.608  47.959  1.00  0.00    -0.100 N 
HETATM   10  C8  UNL     1      32.940   8.768  47.997  1.00  0.00     0.118 A 
HETATM   11  N3  UNL     1      33.236   7.484  48.220  1.00  0.00    -0.248 NA
HETATM   12  C9  UNL     1      32.223   6.599  48.524  1.00  0.00     0.119 A 
HETATM   13  C16 UNL     1      31.021   7.326  48.531  1.00  0.00     0.076 A 
HETATM   14  C17 UNL     1      30.323   6.074  48.360  1.00  0.00    -0.003 C 
HETATM   15  C18 UNL     1      28.896   5.965  47.965  1.00  0.00     0.296 A 
HETATM   16  N5  UNL     1      28.150   5.176  48.895  1.00  0.00     0.106 N 
HETATM   17  C19 UNL     1      26.678   5.553  48.822  1.00  0.00     0.259 A 
HETATM   18  O1  UNL     1      27.840   5.542  48.607  1.00  0.00     0.000 OA
HETATM   19  C20 UNL     1      25.442   5.126  49.419  1.00  0.00     0.018 C 
HETATM   20  C21 UNL     1      24.679   6.101  48.812  1.00  0.00    -0.008 C 
HETATM   21  C22 UNL     1      25.385   7.036  47.915  1.00  0.00     0.148 C 
HETATM   22  H16 UNL     1      28.826   4.449  49.461  1.00  0.00     0.317 HD
ENDROOT
BRANCH  12  23
HETATM   23  N4  UNL     1      32.708   5.297  48.741  1.00  0.00    -0.343 N 
HETATM   24  H8  UNL     1      32.323   5.030  49.662  1.00  0.00     0.167 HD
BRANCH  23  25
HETATM   25  C10 UNL     1      33.525   4.661  47.801  1.00  0.00     0.034 A 
HETATM   26  C11 UNL     1      34.537   3.802  48.015  1.00  0.00     0.029 A 
HETATM   27  C12 UNL     1      35.144   3.332  46.872  1.00  0.00     0.004 A 
HETATM   28  C13 UNL     1      34.807   3.663  45.602  1.00  0.00     0.019 A 
HETATM   29  C14 UNL     1      33.754   4.560  45.384  1.00  0.00     0.013 A 
HETATM   30 BR1  UNL     1      33.246   5.067  43.636  1.00  0.00    -0.051 Br
HETATM   31  C15 UNL     1      33.148   5.026  46.541  1.00  0.00     0.048 A 
ENDBRANCH  23  25
ENDBRANCH  12  23
TORSDOF 2
ENDMDL
MODEL 8
REMARK VINA RESULT:      -8.7      3.370      8.877
REMARK  2 active torsions:
REMARK  status: ('A' for Active; 'I' for Inactive)
REMARK    1  A    between atoms: C9_12  and  N4_13 
REMARK    2  A    between atoms: N4_13  and  C10_14 
ROOT
HETATM    1  C1  UNL     1      27.352   0.630  52.344  1.00  0.00     0.149 C 
HETATM    2  N1  UNL     1      26.398   1.695  52.217  1.00  0.00    -0.391 N 
HETATM    3  C2  UNL     1      26.469   2.519  51.097  1.00  0.00     0.085 C 
HETATM    4  C3  UNL     1      26.370   2.959  49.844  1.00  0.00     0.014 C 
HETATM    5  C4  UNL     1      26.723   4.265  49.401  1.00  0.00    -0.011 C 
HETATM    6  C5  UNL     1      26.990   5.317  48.987  1.00  0.00     0.038 A 
HETATM    7  C6  UNL     1      27.158   6.338  48.284  1.00  0.00     0.102 A 
HETATM    8  C7  UNL     1      28.707   5.830  48.268  1.00  0.00    -0.002 C 
HETATM    9  N2  UNL     1      29.920   5.439  48.234  1.00  0.00    -0.100 N 
HETATM   10  C8  UNL     1      27.299   7.446  47.526  1.00  0.00     0.118 A 
HETATM   11  N3  UNL     1      26.023   7.829  47.408  1.00  0.00    -0.248 NA
HETATM   12  C9  UNL     1      25.034   7.090  48.022  1.00  0.00     0.119 A 
HETATM   13  C16 UNL     1      25.662   6.016  48.676  1.00  0.00     0.076 A 
HETATM   14  C17 UNL     1      24.479   5.893  49.495  1.00  0.00    -0.003 C 
HETATM   15  C18 UNL     1      24.414   5.096  50.747  1.00  0.00     0.296 A 
HETATM   16  N5  UNL     1      23.347   4.145  50.712  1.00  0.00     0.106 N 
HETATM   17  C19 UNL     1      23.649   3.001  51.668  1.00  0.00     0.259 A 
HETATM   18  O1  UNL     1      23.764   4.006  51.058  1.00  0.00     0.000 OA
HETATM   19  C20 UNL     1      22.999   1.805  52.131  1.00  0.00     0.018 C 
HETATM   20  C21 UNL     1      24.067   1.384  52.895  1.00  0.00    -0.008 C 
HETATM   21  C22 UNL     1      25.261   2.250  52.906  1.00  0.00     0.148 C 
HETATM   22  H16 UNL     1      22.524   4.469  49.989  1.00  0.00     0.317 HD
ENDROOT
BRANCH  12  23
HETATM   23  N4  UNL     1      23.755   7.622  47.786  1.00  0.00    -0.343 N 
HETATM   24  H8  UNL     1      23.487   8.054  48.686  1.00  0.00     0.167 HD
BRANCH  23  25
HETATM   25  C10 UNL     1      23.133   7.495  46.541  1.00  0.00     0.034 A 
HETATM   26  C11 UNL     1      22.992   8.419  45.575  1.00  0.00     0.029 A 
HETATM   27  C12 UNL     1      22.338   7.979  44.447  1.00  0.00     0.004 A 
HETATM   28  C13 UNL     1      21.847   6.731  44.252  1.00  0.00     0.019 A 
HETATM   29  C14 UNL     1      21.994   5.771  45.260  1.00  0.00     0.013 A 
HETATM   30 BR1  UNL     1      21.321   4.018  45.050  1.00  0.00    -0.051 Br
HETATM   31  C15 UNL     1      22.656   6.224  46.392  1.00  0.00     0.048 A 
ENDBRANCH  23  25
ENDBRANCH  12  23
TORSDOF 2
ENDMDL
MODEL 9
REMARK VINA RESULT:      -8.4      2.402      3.612
REMARK  2 active torsions:
REMARK  status: ('A' for Active; 'I' for Inactive)
REMARK    1  A    between atoms: C9_12  and  N4_13 
REMARK    2  A    between atoms: N4_13  and  C10_14 
ROOT
HETATM    1  C1  UNL     1      24.425   8.930  46.153  1.00  0.00     0.149 C 
HETATM    2  N1  UNL     1      24.413   8.583  47.546  1.00  0.00    -0.391 N 
HETATM    3  C2  UNL     1      24.135   7.266  47.899  1.00  0.00     0.085 C 
HETATM    4  C3  UNL     1      24.266   5.955  48.092  1.00  0.00     0.014 C 
HETATM    5  C4  UNL     1      23.280   5.106  48.669  1.00  0.00    -0.011 C 
HETATM    6  C5  UNL     1      22.514   4.368  49.138  1.00  0.00     0.038 A 
HETATM    7  C6  UNL     1      21.919   3.378  49.616  1.00  0.00     0.102 A 
HETATM    8  C7  UNL     1      21.190   3.362  48.159  1.00  0.00    -0.002 C 
HETATM    9  N2  UNL     1      20.621   3.327  47.017  1.00  0.00    -0.100 N 
HETATM   10  C8  UNL     1      21.301   2.310  50.165  1.00  0.00     0.118 A 
HETATM   11  N3  UNL     1      21.962   2.209  51.323  1.00  0.00    -0.248 NA
HETATM   12  C9  UNL     1      22.962   3.113  51.613  1.00  0.00     0.119 A 
HETATM   13  C16 UNL     1      23.056   3.995  50.523  1.00  0.00     0.076 A 
HETATM   14  C17 UNL     1      23.723   4.926  51.402  1.00  0.00    -0.003 C 
HETATM   15  C18 UNL     1      23.942   6.360  51.081  1.00  0.00     0.296 A 
HETATM   16  N5  UNL     1      25.322   6.720  51.190  1.00  0.00     0.106 N 
HETATM   17  C19 UNL     1      25.602   7.942  50.328  1.00  0.00     0.259 A 
HETATM   18  O1  UNL     1      25.027   7.048  50.846  1.00  0.00     0.000 OA
HETATM   19  C20 UNL     1      26.714   8.806  50.041  1.00  0.00     0.018 C 
HETATM   20  C21 UNL     1      26.039   9.552  49.098  1.00  0.00    -0.008 C 
HETATM   21  C22 UNL     1      24.635   9.182  48.838  1.00  0.00     0.148 C 
HETATM   22  H16 UNL     1      25.881   6.019  51.898  1.00  0.00     0.317 HD
ENDROOT
BRANCH  12  23
HETATM   23  N4  UNL     1      23.560   2.857  52.858  1.00  0.00    -0.343 N 
HETATM   24  H8  UNL     1      23.170   3.581  53.484  1.00  0.00     0.167 HD
BRANCH  23  25
HETATM   25  C10 UNL     1      24.467   1.806  53.026  1.00  0.00     0.034 A 
HETATM   26  C11 UNL     1      24.227   0.482  53.031  1.00  0.00     0.029 A 
HETATM   27  C12 UNL     1      25.342  -0.304  53.207  1.00  0.00     0.004 A 
HETATM   28  C13 UNL     1      26.610   0.143  53.370  1.00  0.00     0.019 A 
HETATM   29  C14 UNL     1      26.857   1.522  53.367  1.00  0.00     0.013 A 
HETATM   30 BR1  UNL     1      28.603   2.205  53.600  1.00  0.00    -0.051 Br
HETATM   31  C15 UNL     1      25.727   2.305  53.187  1.00  0.00     0.048 A 
ENDBRANCH  23  25
ENDBRANCH  12  23
TORSDOF 2
ENDMDL
