MODEL 1
REMARK VINA RESULT:      -7.2      0.000      0.000
REMARK  6 active torsions:
REMARK  status: ('A' for Active; 'I' for Inactive)
REMARK    1  A    between atoms: O1_2  and  C2_3 
REMARK    2  A    between atoms: C3_4  and  C4_5 
REMARK    3  A    between atoms: C6_7  and  C7_8 
REMARK    4  A    between atoms: C7_8  and  C8_9 
REMARK    5  A    between atoms: C8_9  and  C9_10 
REMARK    6  A    between atoms: C15_17  and  O2_18 
ROOT
HETATM    1  C4  UNL     1      27.398   2.174  53.120  1.00  0.00     0.065 A 
HETATM    2  C5  UNL     1      26.077   2.061  53.458  1.00  0.00     0.059 A 
HETATM    3  C6  UNL     1      25.030   2.283  52.590  1.00  0.00     0.041 A 
HETATM    4  N1  UNL     1      25.341   2.638  51.317  1.00  0.00    -0.212 NA
HETATM    5  C15 UNL     1      26.641   2.751  50.978  1.00  0.00     0.268 A 
HETATM    6  N2  UNL     1      27.643   2.528  51.848  1.00  0.00    -0.207 NA
ENDROOT
BRANCH   3   7
HETATM    7  C7  UNL     1      23.604   2.153  52.982  1.00  0.00     0.064 C 
BRANCH   7   8
HETATM    8  C8  UNL     1      22.975   1.143  52.018  1.00  0.00     0.044 C 
BRANCH   8   9
HETATM    9  C9  UNL     1      22.161   0.213  52.807  1.00  0.00    -0.058 A 
HETATM   10  C10 UNL     1      22.775  -0.670  53.666  1.00  0.00     0.007 A 
HETATM   11  C11 UNL     1      22.005  -1.553  54.416  1.00  0.00     0.001 A 
HETATM   12  C12 UNL     1      20.614  -1.580  54.330  1.00  0.00     0.000 A 
HETATM   13  C13 UNL     1      19.970  -0.693  53.465  1.00  0.00     0.001 A 
HETATM   14  C14 UNL     1      20.771   0.180  52.727  1.00  0.00     0.007 A 
ENDBRANCH   8   9
ENDBRANCH   7   8
ENDBRANCH   3   7
BRANCH   1  15
HETATM   15  C3  UNL     1      28.504   1.946  54.017  1.00  0.00     0.055 C 
HETATM   16  C2  UNL     1      28.814   0.757  54.499  1.00  0.00     0.136 C 
BRANCH  16  17
HETATM   17  O1  UNL     1      28.361  -0.548  54.420  1.00  0.00    -0.368 OA
HETATM   18  C1  UNL     1      28.728  -1.335  53.313  1.00  0.00     0.208 C 
ENDBRANCH  16  17
ENDBRANCH   1  15
BRANCH   5  19
HETATM   19  O2  UNL     1      26.939   3.120  49.652  1.00  0.00    -0.324 OA
HETATM   20  C16 UNL     1      26.706   4.428  49.182  1.00  0.00     0.213 C 
ENDBRANCH   5  19
TORSDOF 6
ENDMDL
MODEL 2
REMARK VINA RESULT:      -7.1      2.189      6.212
REMARK  6 active torsions:
REMARK  status: ('A' for Active; 'I' for Inactive)
REMARK    1  A    between atoms: O1_2  and  C2_3 
REMARK    2  A    between atoms: C3_4  and  C4_5 
REMARK    3  A    between atoms: C6_7  and  C7_8 
REMARK    4  A    between atoms: C7_8  and  C8_9 
REMARK    5  A    between atoms: C8_9  and  C9_10 
REMARK    6  A    between atoms: C15_17  and  O2_18 
ROOT
HETATM    1  C4  UNL     1      26.694  -0.174  52.762  1.00  0.00     0.065 A 
HETATM    2  C5  UNL     1      26.541   0.931  51.971  1.00  0.00     0.059 A 
HETATM    3  C6  UNL     1      25.340   1.569  51.751  1.00  0.00     0.041 A 
HETATM    4  N1  UNL     1      24.241   1.058  52.364  1.00  0.00    -0.212 NA
HETATM    5  C15 UNL     1      24.386  -0.032  53.145  1.00  0.00     0.268 A 
HETATM    6  N2  UNL     1      25.574  -0.634  53.341  1.00  0.00    -0.207 NA
ENDROOT
BRANCH   3   7
HETATM    7  C7  UNL     1      25.199   2.769  50.888  1.00  0.00     0.064 C 
BRANCH   7   8
HETATM    8  C8  UNL     1      26.454   2.829  50.013  1.00  0.00     0.044 C 
BRANCH   8   9
HETATM    9  C9  UNL     1      26.528   4.168  49.420  1.00  0.00    -0.058 A 
HETATM   10  C10 UNL     1      25.425   4.992  49.460  1.00  0.00     0.007 A 
HETATM   11  C11 UNL     1      25.493   6.263  48.899  1.00  0.00     0.001 A 
HETATM   12  C12 UNL     1      26.651   6.743  48.289  1.00  0.00     0.000 A 
HETATM   13  C13 UNL     1      27.781   5.924  48.239  1.00  0.00     0.001 A 
HETATM   14  C14 UNL     1      27.680   4.655  48.810  1.00  0.00     0.007 A 
ENDBRANCH   8   9
ENDBRANCH   7   8
ENDBRANCH   3   7
BRANCH   1  15
HETATM   15  C3  UNL     1      27.945  -0.853  53.001  1.00  0.00     0.055 C 
HETATM   16  C2  UNL     1      28.828  -0.453  53.896  1.00  0.00     0.136 C 
BRANCH  16  17
HETATM   17  O1  UNL     1      28.981   0.561  54.826  1.00  0.00    -0.368 OA
HETATM   18  C1  UNL     1      29.301   1.857  54.382  1.00  0.00     0.208 C 
ENDBRANCH  16  17
ENDBRANCH   1  15
BRANCH   5  19
HETATM   19  O2  UNL     1      23.233  -0.544  53.770  1.00  0.00    -0.324 OA
HETATM   20  C16 UNL     1      22.002  -0.624  53.091  1.00  0.00     0.213 C 
ENDBRANCH   5  19
TORSDOF 6
ENDMDL
MODEL 3
REMARK VINA RESULT:      -6.8      1.284      2.005
REMARK  6 active torsions:
REMARK  status: ('A' for Active; 'I' for Inactive)
REMARK    1  A    between atoms: O1_2  and  C2_3 
REMARK    2  A    between atoms: C3_4  and  C4_5 
REMARK    3  A    between atoms: C6_7  and  C7_8 
REMARK    4  A    between atoms: C7_8  and  C8_9 
REMARK    5  A    between atoms: C8_9  and  C9_10 
REMARK    6  A    between atoms: C15_17  and  O2_18 
ROOT
HETATM    1  C4  UNL     1      26.467   0.465  52.656  1.00  0.00     0.065 A 
HETATM    2  C5  UNL     1      25.104   0.527  52.743  1.00  0.00     0.059 A 
HETATM    3  C6  UNL     1      24.323   1.447  52.078  1.00  0.00     0.041 A 
HETATM    4  N1  UNL     1      24.959   2.348  51.287  1.00  0.00    -0.212 NA
HETATM    5  C15 UNL     1      26.304   2.292  51.198  1.00  0.00     0.268 A 
HETATM    6  N2  UNL     1      27.040   1.381  51.860  1.00  0.00    -0.207 NA
ENDROOT
BRANCH   3   7
HETATM    7  C7  UNL     1      22.843   1.493  52.188  1.00  0.00     0.064 C 
BRANCH   7   8
HETATM    8  C8  UNL     1      22.417   0.207  52.902  1.00  0.00     0.044 C 
BRANCH   8   9
HETATM    9  C9  UNL     1      20.993  -0.013  52.623  1.00  0.00    -0.058 A 
HETATM   10  C10 UNL     1      20.213  -0.673  53.546  1.00  0.00     0.007 A 
HETATM   11  C11 UNL     1      18.864  -0.883  53.285  1.00  0.00     0.001 A 
HETATM   12  C12 UNL     1      18.260  -0.445  52.106  1.00  0.00     0.000 A 
HETATM   13  C13 UNL     1      19.033   0.226  51.157  1.00  0.00     0.001 A 
HETATM   14  C14 UNL     1      20.383   0.421  51.450  1.00  0.00     0.007 A 
ENDBRANCH   8   9
ENDBRANCH   7   8
ENDBRANCH   3   7
BRANCH   1  15
HETATM   15  C3  UNL     1      27.298  -0.491  53.347  1.00  0.00     0.055 C 
HETATM   16  C2  UNL     1      28.107  -0.167  54.338  1.00  0.00     0.136 C 
BRANCH  16  17
HETATM   17  O1  UNL     1      28.486   0.961  55.045  1.00  0.00    -0.368 OA
HETATM   18  C1  UNL     1      29.405   1.856  54.467  1.00  0.00     0.208 C 
ENDBRANCH  16  17
ENDBRANCH   1  15
BRANCH   5  19
HETATM   19  O2  UNL     1      26.942   3.237  50.371  1.00  0.00    -0.324 OA
HETATM   20  C16 UNL     1      26.214   4.244  49.707  1.00  0.00     0.213 C 
ENDBRANCH   5  19
TORSDOF 6
ENDMDL
MODEL 4
REMARK VINA RESULT:      -6.8      3.633      7.251
REMARK  6 active torsions:
REMARK  status: ('A' for Active; 'I' for Inactive)
REMARK    1  A    between atoms: O1_2  and  C2_3 
REMARK    2  A    between atoms: C3_4  and  C4_5 
REMARK    3  A    between atoms: C6_7  and  C7_8 
REMARK    4  A    between atoms: C7_8  and  C8_9 
REMARK    5  A    between atoms: C8_9  and  C9_10 
REMARK    6  A    between atoms: C15_17  and  O2_18 
ROOT
HETATM    1  C4  UNL     1      22.221   1.750  52.464  1.00  0.00     0.065 A 
HETATM    2  C5  UNL     1      23.465   1.308  52.822  1.00  0.00     0.059 A 
HETATM    3  C6  UNL     1      23.710   0.120  53.475  1.00  0.00     0.041 A 
HETATM    4  N1  UNL     1      22.639  -0.656  53.779  1.00  0.00    -0.212 NA
HETATM    5  C15 UNL     1      21.409  -0.226  53.429  1.00  0.00     0.268 A 
HETATM    6  N2  UNL     1      21.201   0.940  52.791  1.00  0.00    -0.207 NA
ENDROOT
BRANCH   3   7
HETATM    7  C7  UNL     1      25.070  -0.338  53.853  1.00  0.00     0.064 C 
BRANCH   7   8
HETATM    8  C8  UNL     1      25.913  -0.312  52.575  1.00  0.00     0.044 C 
BRANCH   8   9
HETATM    9  C9  UNL     1      27.309  -0.563  52.948  1.00  0.00    -0.058 A 
HETATM   10  C10 UNL     1      27.817  -1.840  52.863  1.00  0.00     0.007 A 
HETATM   11  C11 UNL     1      29.140  -2.081  53.216  1.00  0.00     0.001 A 
HETATM   12  C12 UNL     1      29.986  -1.065  53.659  1.00  0.00     0.000 A 
HETATM   13  C13 UNL     1      29.491   0.237  53.752  1.00  0.00     0.001 A 
HETATM   14  C14 UNL     1      28.159   0.446  53.391  1.00  0.00     0.007 A 
ENDBRANCH   8   9
ENDBRANCH   7   8
ENDBRANCH   3   7
BRANCH   1  15
HETATM   15  C3  UNL     1      21.948   2.991  51.781  1.00  0.00     0.055 C 
HETATM   16  C2  UNL     1      20.781   3.605  51.829  1.00  0.00     0.136 C 
BRANCH  16  17
HETATM   17  O1  UNL     1      19.535   3.427  52.405  1.00  0.00    -0.368 OA
HETATM   18  C1  UNL     1      18.455   3.032  51.594  1.00  0.00     0.208 C 
ENDBRANCH  16  17
ENDBRANCH   1  15
BRANCH   5  19
HETATM   19  O2  UNL     1      20.313  -1.048  53.754  1.00  0.00    -0.324 OA
HETATM   20  C16 UNL     1      19.021  -0.781  53.261  1.00  0.00     0.213 C 
ENDBRANCH   5  19
TORSDOF 6
ENDMDL
MODEL 5
REMARK VINA RESULT:      -6.7      2.178      4.650
REMARK  6 active torsions:
REMARK  status: ('A' for Active; 'I' for Inactive)
REMARK    1  A    between atoms: O1_2  and  C2_3 
REMARK    2  A    between atoms: C3_4  and  C4_5 
REMARK    3  A    between atoms: C6_7  and  C7_8 
REMARK    4  A    between atoms: C7_8  and  C8_9 
REMARK    5  A    between atoms: C8_9  and  C9_10 
REMARK    6  A    between atoms: C15_17  and  O2_18 
ROOT
HETATM    1  C4  UNL     1      24.830   1.215  52.488  1.00  0.00     0.065 A 
HETATM    2  C5  UNL     1      23.669   0.526  52.708  1.00  0.00     0.059 A 
HETATM    3  C6  UNL     1      23.517  -0.455  53.664  1.00  0.00     0.041 A 
HETATM    4  N1  UNL     1      24.597  -0.750  54.432  1.00  0.00    -0.212 NA
HETATM    5  C15 UNL     1      25.745  -0.073  54.218  1.00  0.00     0.268 A 
HETATM    6  N2  UNL     1      25.863   0.881  53.277  1.00  0.00    -0.207 NA
ENDROOT
BRANCH   3   7
HETATM    7  C7  UNL     1      22.246  -1.190  53.885  1.00  0.00     0.064 C 
BRANCH   7   8
HETATM    8  C8  UNL     1      21.200  -0.145  54.282  1.00  0.00     0.044 C 
BRANCH   8   9
HETATM    9  C9  UNL     1      20.095  -0.223  53.320  1.00  0.00    -0.058 A 
HETATM   10  C10 UNL     1      19.018  -1.039  53.585  1.00  0.00     0.007 A 
HETATM   11  C11 UNL     1      17.969  -1.115  52.675  1.00  0.00     0.001 A 
HETATM   12  C12 UNL     1      17.965  -0.386  51.486  1.00  0.00     0.000 A 
HETATM   13  C13 UNL     1      19.048   0.447  51.198  1.00  0.00     0.001 A 
HETATM   14  C14 UNL     1      20.084   0.501  52.131  1.00  0.00     0.007 A 
ENDBRANCH   8   9
ENDBRANCH   7   8
ENDBRANCH   3   7
BRANCH   1  15
HETATM   15  C3  UNL     1      25.004   2.244  51.491  1.00  0.00     0.055 C 
HETATM   16  C2  UNL     1      24.469   3.446  51.589  1.00  0.00     0.136 C 
BRANCH  16  17
HETATM   17  O1  UNL     1      23.671   4.162  52.463  1.00  0.00    -0.368 OA
HETATM   18  C1  UNL     1      22.308   4.338  52.160  1.00  0.00     0.208 C 
ENDBRANCH  16  17
ENDBRANCH   1  15
BRANCH   5  19
HETATM   19  O2  UNL     1      26.851  -0.396  55.027  1.00  0.00    -0.324 OA
HETATM   20  C16 UNL     1      28.123   0.162  54.790  1.00  0.00     0.213 C 
ENDBRANCH   5  19
TORSDOF 6
ENDMDL
MODEL 6
REMARK VINA RESULT:      -6.7      1.719      4.305
REMARK  6 active torsions:
REMARK  status: ('A' for Active; 'I' for Inactive)
REMARK    1  A    between atoms: O1_2  and  C2_3 
REMARK    2  A    between atoms: C3_4  and  C4_5 
REMARK    3  A    between atoms: C6_7  and  C7_8 
REMARK    4  A    between atoms: C7_8  and  C8_9 
REMARK    5  A    between atoms: C8_9  and  C9_10 
REMARK    6  A    between atoms: C15_17  and  O2_18 
ROOT
HETATM    1  C4  UNL     1      25.980   3.753  50.014  1.00  0.00     0.065 A 
HETATM    2  C5  UNL     1      24.764   3.192  50.295  1.00  0.00     0.059 A 
HETATM    3  C6  UNL     1      24.565   2.193  51.222  1.00  0.00     0.041 A 
HETATM    4  N1  UNL     1      25.653   1.741  51.896  1.00  0.00    -0.212 NA
HETATM    5  C15 UNL     1      26.855   2.291  51.623  1.00  0.00     0.268 A 
HETATM    6  N2  UNL     1      27.019   3.267  50.711  1.00  0.00    -0.207 NA
ENDROOT
BRANCH   3   7
HETATM    7  C7  UNL     1      23.234   1.600  51.509  1.00  0.00     0.064 C 
BRANCH   7   8
HETATM    8  C8  UNL     1      23.067   1.614  53.031  1.00  0.00     0.044 C 
BRANCH   8   9
HETATM    9  C9  UNL     1      22.168   0.514  53.397  1.00  0.00    -0.058 A 
HETATM   10  C10 UNL     1      20.837   0.578  53.047  1.00  0.00     0.007 A 
HETATM   11  C11 UNL     1      19.983  -0.463  53.392  1.00  0.00     0.001 A 
HETATM   12  C12 UNL     1      20.427  -1.587  54.090  1.00  0.00     0.000 A 
HETATM   13  C13 UNL     1      21.772  -1.671  54.453  1.00  0.00     0.001 A 
HETATM   14  C14 UNL     1      22.603  -0.610  54.092  1.00  0.00     0.007 A 
ENDBRANCH   8   9
ENDBRANCH   7   8
ENDBRANCH   3   7
BRANCH   1  15
HETATM   15  C3  UNL     1      26.204   4.800  49.046  1.00  0.00     0.055 C 
HETATM   16  C2  UNL     1      26.062   6.083  49.319  1.00  0.00     0.136 C 
BRANCH  16  17
HETATM   17  O1  UNL     1      25.715   6.887  50.391  1.00  0.00    -0.368 OA
HETATM   18  C1  UNL     1      24.364   6.969  50.776  1.00  0.00     0.208 C 
ENDBRANCH  16  17
ENDBRANCH   1  15
BRANCH   5  19
HETATM   19  O2  UNL     1      27.969   1.807  52.335  1.00  0.00    -0.324 OA
HETATM   20  C16 UNL     1      28.374   2.390  53.552  1.00  0.00     0.213 C 
ENDBRANCH   5  19
TORSDOF 6
ENDMDL
MODEL 7
REMARK VINA RESULT:      -6.6      2.645      6.324
REMARK  6 active torsions:
REMARK  status: ('A' for Active; 'I' for Inactive)
REMARK    1  A    between atoms: O1_2  and  C2_3 
REMARK    2  A    between atoms: C3_4  and  C4_5 
REMARK    3  A    between atoms: C6_7  and  C7_8 
REMARK    4  A    between atoms: C7_8  and  C8_9 
REMARK    5  A    between atoms: C8_9  and  C9_10 
REMARK    6  A    between atoms: C15_17  and  O2_18 
ROOT
HETATM    1  C4  UNL     1      23.257   2.331  52.616  1.00  0.00     0.065 A 
HETATM    2  C5  UNL     1      24.268   1.498  53.010  1.00  0.00     0.059 A 
HETATM    3  C6  UNL     1      24.081   0.211  53.465  1.00  0.00     0.041 A 
HETATM    4  N1  UNL     1      22.806  -0.250  53.525  1.00  0.00    -0.212 NA
HETATM    5  C15 UNL     1      21.805   0.568  53.139  1.00  0.00     0.268 A 
HETATM    6  N2  UNL     1      22.019   1.821  52.698  1.00  0.00    -0.207 NA
ENDROOT
BRANCH   3   7
HETATM    7  C7  UNL     1      25.196  -0.675  53.886  1.00  0.00     0.064 C 
BRANCH   7   8
HETATM    8  C8  UNL     1      26.062  -0.910  52.645  1.00  0.00     0.044 C 
BRANCH   8   9
HETATM    9  C9  UNL     1      27.455  -0.630  53.007  1.00  0.00    -0.058 A 
HETATM   10  C10 UNL     1      27.848   0.667  53.248  1.00  0.00     0.007 A 
HETATM   11  C11 UNL     1      29.169   0.936  53.592  1.00  0.00     0.001 A 
HETATM   12  C12 UNL     1      30.125  -0.074  53.703  1.00  0.00     0.000 A 
HETATM   13  C13 UNL     1      29.748  -1.396  53.463  1.00  0.00     0.001 A 
HETATM   14  C14 UNL     1      28.416  -1.631  53.120  1.00  0.00     0.007 A 
ENDBRANCH   8   9
ENDBRANCH   7   8
ENDBRANCH   3   7
BRANCH   1  15
HETATM   15  C3  UNL     1      23.437   3.681  52.138  1.00  0.00     0.055 C 
HETATM   16  C2  UNL     1      24.200   3.989  51.106  1.00  0.00     0.136 C 
BRANCH  16  17
HETATM   17  O1  UNL     1      25.014   3.351  50.187  1.00  0.00    -0.368 OA
HETATM   18  C1  UNL     1      26.406   3.341  50.394  1.00  0.00     0.208 C 
ENDBRANCH  16  17
ENDBRANCH   1  15
BRANCH   5  19
HETATM   19  O2  UNL     1      20.491   0.067  53.209  1.00  0.00    -0.324 OA
HETATM   20  C16 UNL     1      19.575   0.255  52.156  1.00  0.00     0.213 C 
ENDBRANCH   5  19
TORSDOF 6
ENDMDL
MODEL 8
REMARK VINA RESULT:      -6.6      4.071      6.104
REMARK  6 active torsions:
REMARK  status: ('A' for Active; 'I' for Inactive)
REMARK    1  A    between atoms: O1_2  and  C2_3 
REMARK    2  A    between atoms: C3_4  and  C4_5 
REMARK    3  A    between atoms: C6_7  and  C7_8 
REMARK    4  A    between atoms: C7_8  and  C8_9 
REMARK    5  A    between atoms: C8_9  and  C9_10 
REMARK    6  A    between atoms: C15_17  and  O2_18 
ROOT
HETATM    1  C4  UNL     1      27.653   5.981  48.497  1.00  0.00     0.065 A 
HETATM    2  C5  UNL     1      27.466   4.665  48.819  1.00  0.00     0.059 A 
HETATM    3  C6  UNL     1      26.395   4.186  49.542  1.00  0.00     0.041 A 
HETATM    4  N1  UNL     1      25.471   5.089  49.959  1.00  0.00    -0.212 NA
HETATM    5  C15 UNL     1      25.651   6.388  49.645  1.00  0.00     0.268 A 
HETATM    6  N2  UNL     1      26.707   6.826  48.936  1.00  0.00    -0.207 NA
ENDROOT
BRANCH   3   7
HETATM    7  C7  UNL     1      26.214   2.752  49.879  1.00  0.00     0.064 C 
BRANCH   7   8
HETATM    8  C8  UNL     1      25.790   2.697  51.349  1.00  0.00     0.044 C 
BRANCH   8   9
HETATM    9  C9  UNL     1      26.652   1.726  52.032  1.00  0.00    -0.058 A 
HETATM   10  C10 UNL     1      27.720   2.171  52.778  1.00  0.00     0.007 A 
HETATM   11  C11 UNL     1      28.539   1.254  53.428  1.00  0.00     0.001 A 
HETATM   12  C12 UNL     1      28.317  -0.121  53.351  1.00  0.00     0.000 A 
HETATM   13  C13 UNL     1      27.239  -0.594  52.600  1.00  0.00     0.001 A 
HETATM   14  C14 UNL     1      26.437   0.353  51.962  1.00  0.00     0.007 A 
ENDBRANCH   8   9
ENDBRANCH   7   8
ENDBRANCH   3   7
BRANCH   1  15
HETATM   15  C3  UNL     1      28.769   6.497  47.741  1.00  0.00     0.055 C 
HETATM   16  C2  UNL     1      30.028   6.257  48.052  1.00  0.00     0.136 C 
BRANCH  16  17
HETATM   17  O1  UNL     1      30.751   5.568  49.011  1.00  0.00    -0.368 OA
HETATM   18  C1  UNL     1      32.007   6.062  49.408  1.00  0.00     0.208 C 
ENDBRANCH  16  17
ENDBRANCH   1  15
BRANCH   5  19
HETATM   19  O2  UNL     1      24.679   7.306  50.087  1.00  0.00    -0.324 OA
HETATM   20  C16 UNL     1      23.820   7.007  51.163  1.00  0.00     0.213 C 
ENDBRANCH   5  19
TORSDOF 6
ENDMDL
MODEL 9
REMARK VINA RESULT:      -6.5      3.014      6.563
REMARK  6 active torsions:
REMARK  status: ('A' for Active; 'I' for Inactive)
REMARK    1  A    between atoms: O1_2  and  C2_3 
REMARK    2  A    between atoms: C3_4  and  C4_5 
REMARK    3  A    between atoms: C6_7  and  C7_8 
REMARK    4  A    between atoms: C7_8  and  C8_9 
REMARK    5  A    between atoms: C8_9  and  C9_10 
REMARK    6  A    between atoms: C15_17  and  O2_18 
ROOT
HETATM    1  C4  UNL     1      22.482   1.299  51.515  1.00  0.00     0.065 A 
HETATM    2  C5  UNL     1      23.335   0.529  52.256  1.00  0.00     0.059 A 
HETATM    3  C6  UNL     1      24.308   1.031  53.093  1.00  0.00     0.041 A 
HETATM    4  N1  UNL     1      24.419   2.381  53.180  1.00  0.00    -0.212 NA
HETATM    5  C15 UNL     1      23.580   3.146  52.452  1.00  0.00     0.268 A 
HETATM    6  N2  UNL     1      22.639   2.626  51.642  1.00  0.00    -0.207 NA
ENDROOT
BRANCH   3   7
HETATM    7  C7  UNL     1      25.223   0.173  53.888  1.00  0.00     0.064 C 
BRANCH   7   8
HETATM    8  C8  UNL     1      25.918  -0.763  52.897  1.00  0.00     0.044 C 
BRANCH   8   9
HETATM    9  C9  UNL     1      27.363  -0.684  53.137  1.00  0.00    -0.058 A 
HETATM   10  C10 UNL     1      27.948   0.540  53.369  1.00  0.00     0.007 A 
HETATM   11  C11 UNL     1      29.317   0.619  53.598  1.00  0.00     0.001 A 
HETATM   12  C12 UNL     1      30.134  -0.512  53.601  1.00  0.00     0.000 A 
HETATM   13  C13 UNL     1      29.561  -1.764  53.367  1.00  0.00     0.001 A 
HETATM   14  C14 UNL     1      28.184  -1.808  53.141  1.00  0.00     0.007 A 
ENDBRANCH   8   9
ENDBRANCH   7   8
ENDBRANCH   3   7
BRANCH   1  15
HETATM   15  C3  UNL     1      21.460   0.788  50.635  1.00  0.00     0.055 C 
HETATM   16  C2  UNL     1      20.168   0.935  50.861  1.00  0.00     0.136 C 
BRANCH  16  17
HETATM   17  O1  UNL     1      19.335   1.502  51.810  1.00  0.00    -0.368 OA
HETATM   18  C1  UNL     1      18.954   2.850  51.669  1.00  0.00     0.208 C 
ENDBRANCH  16  17
ENDBRANCH   1  15
BRANCH   5  19
HETATM   19  O2  UNL     1      23.714   4.544  52.559  1.00  0.00    -0.324 OA
HETATM   20  C16 UNL     1      23.150   5.412  51.603  1.00  0.00     0.213 C 
ENDBRANCH   5  19
TORSDOF 6
ENDMDL
