MODEL 1
REMARK VINA RESULT:      -7.6      0.000      0.000
REMARK  5 active torsions:
REMARK  status: ('A' for Active; 'I' for Inactive)
REMARK    1  A    between atoms: O1_1  and  P1_2 
REMARK    2  A    between atoms: P1_2  and  C1_3 
REMARK    3  A    between atoms: C3_5  and  O2_6 
REMARK    4  A    between atoms: C5_9  and  N2_10 
REMARK    5  A    between atoms: N2_10  and  C6_11 
ROOT
HETATM    1  C1  UNL     1      28.562  -0.385  53.677  1.00  0.00     0.053 C 
HETATM    2  C2  UNL     1      29.438   0.707  53.229  1.00  0.00     0.052 C 
HETATM    3  C3  UNL     1      29.166   2.068  53.970  1.00  0.00     0.190 C 
HETATM    4  C4  UNL     1      27.667   2.139  53.742  1.00  0.00     0.156 C 
HETATM    5  N1  UNL     1      27.075   2.599  52.636  1.00  0.00    -0.214 NA
HETATM    6  C5  UNL     1      26.757   1.539  51.589  1.00  0.00     0.127 C 
HETATM    7  C12 UNL     1      26.830   0.210  51.922  1.00  0.00     0.034 C 
HETATM    8  C13 UNL     1      27.143  -0.483  53.204  1.00  0.00     0.063 C 
HETATM    9  C14 UNL     1      26.347   0.234  54.307  1.00  0.00     0.101 C 
HETATM   10  N3  UNL     1      26.633   1.538  54.610  1.00  0.00    -0.246 NA
ENDROOT
BRANCH   6  11
HETATM   11  N2  UNL     1      26.402   1.944  50.287  1.00  0.00    -0.341 N 
HETATM   12  H8  UNL     1      26.492   1.178  49.580  1.00  0.00     0.167 HD
BRANCH  11  13
HETATM   13  C6  UNL     1      25.950   3.214  49.834  1.00  0.00     0.033 A 
HETATM   14  C7  UNL     1      24.618   3.552  49.938  1.00  0.00     0.029 A 
HETATM   15  C8  UNL     1      24.275   4.826  49.473  1.00  0.00     0.002 A 
HETATM   16  C9  UNL     1      25.271   5.653  48.947  1.00  0.00     0.000 A 
HETATM   17  C10 UNL     1      26.593   5.275  48.860  1.00  0.00     0.002 A 
HETATM   18  C11 UNL     1      26.953   4.009  49.319  1.00  0.00     0.029 A 
ENDBRANCH  11  13
ENDBRANCH   6  11
BRANCH   3  19
HETATM   19  O2  UNL     1      29.419   2.005  55.289  1.00  0.00    -0.388 OA
HETATM   20  H7  UNL     1      30.048   2.693  55.649  1.00  0.00     0.210 HD
ENDBRANCH   3  19
BRANCH   1  21
HETATM   21  P1  UNL     1      29.356  -2.058  53.318  1.00  0.00     0.013 P 
HETATM   22  H2  UNL     1      30.185  -2.479  54.431  1.00  0.00     0.087 HD
BRANCH  21  23
HETATM   23  O1  UNL     1      28.208  -3.241  52.852  1.00  0.00    -0.376 OA
HETATM   24  H1  UNL     1      27.369  -2.810  52.544  1.00  0.00     0.214 HD
ENDBRANCH  21  23
ENDBRANCH   1  21
TORSDOF 5
ENDMDL
MODEL 2
REMARK VINA RESULT:      -7.4      2.463      3.141
REMARK  5 active torsions:
REMARK  status: ('A' for Active; 'I' for Inactive)
REMARK    1  A    between atoms: O1_1  and  P1_2 
REMARK    2  A    between atoms: P1_2  and  C1_3 
REMARK    3  A    between atoms: C3_5  and  O2_6 
REMARK    4  A    between atoms: C5_9  and  N2_10 
REMARK    5  A    between atoms: N2_10  and  C6_11 
ROOT
HETATM    1  C1  UNL     1      26.916  -0.577  52.999  1.00  0.00     0.053 C 
HETATM    2  C2  UNL     1      27.096   0.426  51.940  1.00  0.00     0.052 C 
HETATM    3  C3  UNL     1      27.492   1.847  52.486  1.00  0.00     0.190 C 
HETATM    4  C4  UNL     1      26.381   1.998  53.511  1.00  0.00     0.156 C 
HETATM    5  N1  UNL     1      25.141   2.422  53.248  1.00  0.00    -0.214 NA
HETATM    6  C5  UNL     1      24.136   1.317  52.946  1.00  0.00     0.127 C 
HETATM    7  C12 UNL     1      24.458   0.010  53.215  1.00  0.00     0.034 C 
HETATM    8  C13 UNL     1      25.666  -0.615  53.825  1.00  0.00     0.063 C 
HETATM    9  C14 UNL     1      26.027   0.222  55.064  1.00  0.00     0.101 C 
HETATM   10  N3  UNL     1      26.427   1.522  54.909  1.00  0.00    -0.246 NA
ENDROOT
BRANCH   6  11
HETATM   11  N2  UNL     1      22.891   1.658  52.383  1.00  0.00    -0.341 N 
HETATM   12  H8  UNL     1      22.196   1.991  53.092  1.00  0.00     0.167 HD
BRANCH  11  13
HETATM   13  C6  UNL     1      22.477   1.610  51.022  1.00  0.00     0.033 A 
HETATM   14  C7  UNL     1      21.479   0.744  50.633  1.00  0.00     0.029 A 
HETATM   15  C8  UNL     1      21.138   0.779  49.277  1.00  0.00     0.002 A 
HETATM   16  C9  UNL     1      21.807   1.662  48.426  1.00  0.00     0.000 A 
HETATM   17  C10 UNL     1      22.802   2.511  48.857  1.00  0.00     0.002 A 
HETATM   18  C11 UNL     1      23.155   2.490  50.206  1.00  0.00     0.029 A 
ENDBRANCH  11  13
ENDBRANCH   6  11
BRANCH   3  19
HETATM   19  O2  UNL     1      28.683   1.854  53.109  1.00  0.00    -0.388 OA
HETATM   20  H7  UNL     1      29.486   1.760  52.522  1.00  0.00     0.210 HD
ENDBRANCH   3  19
BRANCH   1  21
HETATM   21  P1  UNL     1      27.148  -2.317  52.309  1.00  0.00     0.013 P 
HETATM   22  H2  UNL     1      27.307  -2.278  50.869  1.00  0.00     0.087 HD
BRANCH  21  23
HETATM   23  O1  UNL     1      28.402  -3.173  53.101  1.00  0.00    -0.376 OA
HETATM   24  H1  UNL     1      29.280  -2.970  52.684  1.00  0.00     0.214 HD
ENDBRANCH  21  23
ENDBRANCH   1  21
TORSDOF 5
ENDMDL
MODEL 3
REMARK VINA RESULT:      -7.3      2.455      2.904
REMARK  5 active torsions:
REMARK  status: ('A' for Active; 'I' for Inactive)
REMARK    1  A    between atoms: O1_1  and  P1_2 
REMARK    2  A    between atoms: P1_2  and  C1_3 
REMARK    3  A    between atoms: C3_5  and  O2_6 
REMARK    4  A    between atoms: C5_9  and  N2_10 
REMARK    5  A    between atoms: N2_10  and  C6_11 
ROOT
HETATM    1  C1  UNL     1      24.903   0.348  53.396  1.00  0.00     0.053 C 
HETATM    2  C2  UNL     1      25.946  -0.422  52.703  1.00  0.00     0.052 C 
HETATM    3  C3  UNL     1      27.401  -0.096  53.204  1.00  0.00     0.190 C 
HETATM    4  C4  UNL     1      27.340   1.415  53.068  1.00  0.00     0.156 C 
HETATM    5  N1  UNL     1      27.554   2.098  51.940  1.00  0.00    -0.214 NA
HETATM    6  C5  UNL     1      26.303   2.397  51.123  1.00  0.00     0.127 C 
HETATM    7  C12 UNL     1      25.063   2.212  51.683  1.00  0.00     0.034 C 
HETATM    8  C13 UNL     1      24.637   1.781  53.045  1.00  0.00     0.063 C 
HETATM    9  C14 UNL     1      25.495   2.564  54.052  1.00  0.00     0.101 C 
HETATM   10  N3  UNL     1      26.847   2.354  54.097  1.00  0.00    -0.246 NA
ENDROOT
BRANCH   6  11
HETATM   11  N2  UNL     1      26.440   2.850  49.797  1.00  0.00    -0.341 N 
HETATM   12  H8  UNL     1      26.575   2.073  49.108  1.00  0.00     0.167 HD
BRANCH  11  13
HETATM   13  C6  UNL     1      26.416   4.181  49.295  1.00  0.00     0.033 A 
HETATM   14  C7  UNL     1      25.245   4.907  49.316  1.00  0.00     0.029 A 
HETATM   15  C8  UNL     1      25.326   6.208  48.810  1.00  0.00     0.002 A 
HETATM   16  C9  UNL     1      26.549   6.680  48.328  1.00  0.00     0.000 A 
HETATM   17  C10 UNL     1      27.698   5.919  48.325  1.00  0.00     0.002 A 
HETATM   18  C11 UNL     1      27.636   4.619  48.826  1.00  0.00     0.029 A 
ENDBRANCH  11  13
ENDBRANCH   6  11
BRANCH   3  19
HETATM   19  O2  UNL     1      27.595  -0.425  54.494  1.00  0.00    -0.388 OA
HETATM   20  H7  UNL     1      27.795  -1.387  54.677  1.00  0.00     0.210 HD
ENDBRANCH   3  19
BRANCH   1  21
HETATM   21  P1  UNL     1      23.243  -0.540  53.291  1.00  0.00     0.013 P 
HETATM   22  H2  UNL     1      23.302  -1.618  52.322  1.00  0.00     0.087 HD
BRANCH  21  23
HETATM   23  O1  UNL     1      22.674  -1.047  54.825  1.00  0.00    -0.376 OA
HETATM   24  H1  UNL     1      22.854  -0.353  55.510  1.00  0.00     0.214 HD
ENDBRANCH  21  23
ENDBRANCH   1  21
TORSDOF 5
ENDMDL
MODEL 4
REMARK VINA RESULT:      -7.1      3.470      4.513
REMARK  5 active torsions:
REMARK  status: ('A' for Active; 'I' for Inactive)
REMARK    1  A    between atoms: O1_1  and  P1_2 
REMARK    2  A    between atoms: P1_2  and  C1_3 
REMARK    3  A    between atoms: C3_5  and  O2_6 
REMARK    4  A    between atoms: C5_9  and  N2_10 
REMARK    5  A    between atoms: N2_10  and  C6_11 
ROOT
HETATM    1  C1  UNL     1      26.967  -0.604  52.986  1.00  0.00     0.053 C 
HETATM    2  C2  UNL     1      27.132   0.427  51.951  1.00  0.00     0.052 C 
HETATM    3  C3  UNL     1      27.604   1.815  52.521  1.00  0.00     0.190 C 
HETATM    4  C4  UNL     1      26.550   1.970  53.603  1.00  0.00     0.156 C 
HETATM    5  N1  UNL     1      25.314   2.444  53.416  1.00  0.00    -0.214 NA
HETATM    6  C5  UNL     1      24.258   1.385  53.129  1.00  0.00     0.127 C 
HETATM    7  C12 UNL     1      24.545   0.060  53.340  1.00  0.00     0.034 C 
HETATM    8  C13 UNL     1      25.758  -0.626  53.871  1.00  0.00     0.063 C 
HETATM    9  C14 UNL     1      26.208   0.156  55.115  1.00  0.00     0.101 C 
HETATM   10  N3  UNL     1      26.645   1.446  54.982  1.00  0.00    -0.246 NA
ENDROOT
BRANCH   6  11
HETATM   11  N2  UNL     1      22.999   1.786  52.638  1.00  0.00    -0.341 N 
HETATM   12  H8  UNL     1      23.006   2.748  52.226  1.00  0.00     0.167 HD
BRANCH  11  13
HETATM   13  C6  UNL     1      21.769   1.072  52.630  1.00  0.00     0.033 A 
HETATM   14  C7  UNL     1      21.060   0.928  51.457  1.00  0.00     0.029 A 
HETATM   15  C8  UNL     1      19.868   0.202  51.551  1.00  0.00     0.002 A 
HETATM   16  C9  UNL     1      19.480  -0.318  52.788  1.00  0.00     0.000 A 
HETATM   17  C10 UNL     1      20.219  -0.150  53.938  1.00  0.00     0.002 A 
HETATM   18  C11 UNL     1      21.410   0.571  53.864  1.00  0.00     0.029 A 
ENDBRANCH  11  13
ENDBRANCH   6  11
BRANCH   3  19
HETATM   19  O2  UNL     1      28.823   1.761  53.085  1.00  0.00    -0.388 OA
HETATM   20  H7  UNL     1      29.067   0.897  53.524  1.00  0.00     0.210 HD
ENDBRANCH   3  19
BRANCH   1  21
HETATM   21  P1  UNL     1      27.104  -2.327  52.231  1.00  0.00     0.013 P 
HETATM   22  H2  UNL     1      27.191  -2.246  50.786  1.00  0.00     0.087 HD
BRANCH  21  23
HETATM   23  O1  UNL     1      28.367  -3.249  52.929  1.00  0.00    -0.376 OA
HETATM   24  H1  UNL     1      28.500  -2.995  53.879  1.00  0.00     0.214 HD
ENDBRANCH  21  23
ENDBRANCH   1  21
TORSDOF 5
ENDMDL
MODEL 5
REMARK VINA RESULT:      -6.7      3.963      6.623
REMARK  5 active torsions:
REMARK  status: ('A' for Active; 'I' for Inactive)
REMARK    1  A    between atoms: O1_1  and  P1_2 
REMARK    2  A    between atoms: P1_2  and  C1_3 
REMARK    3  A    between atoms: C3_5  and  O2_6 
REMARK    4  A    between atoms: C5_9  and  N2_10 
REMARK    5  A    between atoms: N2_10  and  C6_11 
ROOT
HETATM    1  C1  UNL     1      24.025   3.841  50.471  1.00  0.00     0.053 C 
HETATM    2  C2  UNL     1      23.810   2.564  49.774  1.00  0.00     0.052 C 
HETATM    3  C3  UNL     1      22.321   2.062  49.835  1.00  0.00     0.190 C 
HETATM    4  C4  UNL     1      22.124   2.163  51.337  1.00  0.00     0.156 C 
HETATM    5  N1  UNL     1      22.494   1.238  52.229  1.00  0.00    -0.214 NA
HETATM    6  C5  UNL     1      23.882   1.440  52.823  1.00  0.00     0.127 C 
HETATM    7  C12 UNL     1      24.535   2.633  52.642  1.00  0.00     0.034 C 
HETATM    8  C13 UNL     1      24.132   3.899  51.965  1.00  0.00     0.063 C 
HETATM    9  C14 UNL     1      22.696   4.212  52.417  1.00  0.00     0.101 C 
HETATM   10  N3  UNL     1      21.677   3.366  52.070  1.00  0.00    -0.246 NA
ENDROOT
BRANCH   6  11
HETATM   11  N2  UNL     1      24.480   0.386  53.543  1.00  0.00    -0.341 N 
HETATM   12  H8  UNL     1      23.784  -0.227  54.029  1.00  0.00     0.167 HD
BRANCH  11  13
HETATM   13  C6  UNL     1      25.858   0.063  53.683  1.00  0.00     0.033 A 
HETATM   14  C7  UNL     1      26.575   0.542  54.758  1.00  0.00     0.029 A 
HETATM   15  C8  UNL     1      27.920   0.161  54.811  1.00  0.00     0.002 A 
HETATM   16  C9  UNL     1      28.440  -0.656  53.804  1.00  0.00     0.000 A 
HETATM   17  C10 UNL     1      27.687  -1.112  52.745  1.00  0.00     0.002 A 
HETATM   18  C11 UNL     1      26.344  -0.743  52.675  1.00  0.00     0.029 A 
ENDBRANCH  11  13
ENDBRANCH   6  11
BRANCH   3  19
HETATM   19  O2  UNL     1      21.464   2.889  49.212  1.00  0.00    -0.388 OA
HETATM   20  H7  UNL     1      20.518   2.868  49.536  1.00  0.00     0.210 HD
ENDBRANCH   3  19
BRANCH   1  21
HETATM   21  P1  UNL     1      25.553   4.714  49.796  1.00  0.00     0.013 P 
HETATM   22  H2  UNL     1      25.484   6.139  50.057  1.00  0.00     0.087 HD
BRANCH  21  23
HETATM   23  O1  UNL     1      27.011   4.001  50.344  1.00  0.00    -0.376 OA
HETATM   24  H1  UNL     1      27.192   4.258  51.285  1.00  0.00     0.214 HD
ENDBRANCH  21  23
ENDBRANCH   1  21
TORSDOF 5
ENDMDL
MODEL 6
REMARK VINA RESULT:      -6.6      4.368      6.613
REMARK  5 active torsions:
REMARK  status: ('A' for Active; 'I' for Inactive)
REMARK    1  A    between atoms: O1_1  and  P1_2 
REMARK    2  A    between atoms: P1_2  and  C1_3 
REMARK    3  A    between atoms: C3_5  and  O2_6 
REMARK    4  A    between atoms: C5_9  and  N2_10 
REMARK    5  A    between atoms: N2_10  and  C6_11 
ROOT
HETATM    1  C1  UNL     1      22.230   2.736  49.953  1.00  0.00     0.053 C 
HETATM    2  C2  UNL     1      22.395   1.624  50.899  1.00  0.00     0.052 C 
HETATM    3  C3  UNL     1      22.116   2.029  52.393  1.00  0.00     0.190 C 
HETATM    4  C4  UNL     1      23.030   3.240  52.460  1.00  0.00     0.156 C 
HETATM    5  N1  UNL     1      24.345   3.203  52.694  1.00  0.00    -0.214 NA
HETATM    6  C5  UNL     1      25.217   3.142  51.446  1.00  0.00     0.127 C 
HETATM    7  C12 UNL     1      24.665   3.395  50.215  1.00  0.00     0.034 C 
HETATM    8  C13 UNL     1      23.288   3.787  49.800  1.00  0.00     0.063 C 
HETATM    9  C14 UNL     1      22.831   4.900  50.758  1.00  0.00     0.101 C 
HETATM   10  N3  UNL     1      22.660   4.621  52.087  1.00  0.00    -0.246 NA
ENDROOT
BRANCH   6  11
HETATM   11  N2  UNL     1      26.581   2.814  51.577  1.00  0.00    -0.341 N 
HETATM   12  H8  UNL     1      27.214   3.481  51.078  1.00  0.00     0.167 HD
BRANCH  11  13
HETATM   13  C6  UNL     1      27.181   1.732  52.280  1.00  0.00     0.033 A 
HETATM   14  C7  UNL     1      28.202   1.970  53.175  1.00  0.00     0.029 A 
HETATM   15  C8  UNL     1      28.720   0.843  53.822  1.00  0.00     0.002 A 
HETATM   16  C9  UNL     1      28.189  -0.416  53.531  1.00  0.00     0.000 A 
HETATM   17  C10 UNL     1      27.168  -0.610  52.627  1.00  0.00     0.002 A 
HETATM   18  C11 UNL     1      26.639   0.502  51.973  1.00  0.00     0.029 A 
ENDBRANCH  11  13
ENDBRANCH   6  11
BRANCH   3  19
HETATM   19  O2  UNL     1      20.845   2.412  52.603  1.00  0.00    -0.388 OA
HETATM   20  H7  UNL     1      20.618   2.689  53.536  1.00  0.00     0.210 HD
ENDBRANCH   3  19
BRANCH   1  21
HETATM   21  P1  UNL     1      21.878   2.084  48.219  1.00  0.00     0.013 P 
HETATM   22  H2  UNL     1      22.496   0.786  48.027  1.00  0.00     0.087 HD
BRANCH  21  23
HETATM   23  O1  UNL     1      20.208   2.094  47.841  1.00  0.00    -0.376 OA
HETATM   24  H1  UNL     1      19.744   1.340  48.291  1.00  0.00     0.214 HD
ENDBRANCH  21  23
ENDBRANCH   1  21
TORSDOF 5
ENDMDL
MODEL 7
REMARK VINA RESULT:      -6.6      4.461      6.875
REMARK  5 active torsions:
REMARK  status: ('A' for Active; 'I' for Inactive)
REMARK    1  A    between atoms: O1_1  and  P1_2 
REMARK    2  A    between atoms: P1_2  and  C1_3 
REMARK    3  A    between atoms: C3_5  and  O2_6 
REMARK    4  A    between atoms: C5_9  and  N2_10 
REMARK    5  A    between atoms: N2_10  and  C6_11 
ROOT
HETATM    1  C1  UNL     1      21.588   3.050  50.752  1.00  0.00     0.053 C 
HETATM    2  C2  UNL     1      21.407   3.467  52.149  1.00  0.00     0.052 C 
HETATM    3  C3  UNL     1      22.357   4.645  52.578  1.00  0.00     0.190 C 
HETATM    4  C4  UNL     1      23.670   4.037  52.119  1.00  0.00     0.156 C 
HETATM    5  N1  UNL     1      24.403   3.165  52.818  1.00  0.00    -0.214 NA
HETATM    6  C5  UNL     1      24.108   1.699  52.525  1.00  0.00     0.127 C 
HETATM    7  C12 UNL     1      23.356   1.361  51.428  1.00  0.00     0.034 C 
HETATM    8  C13 UNL     1      22.742   2.184  50.346  1.00  0.00     0.063 C 
HETATM    9  C14 UNL     1      23.808   3.194  49.892  1.00  0.00     0.101 C 
HETATM   10  N3  UNL     1      24.248   4.153  50.764  1.00  0.00    -0.246 NA
ENDROOT
BRANCH   6  11
HETATM   11  N2  UNL     1      24.607   0.711  53.396  1.00  0.00    -0.341 N 
HETATM   12  H8  UNL     1      23.875   0.314  54.030  1.00  0.00     0.167 HD
BRANCH  11  13
HETATM   13  C6  UNL     1      25.930   0.201  53.513  1.00  0.00     0.033 A 
HETATM   14  C7  UNL     1      26.401  -0.718  52.601  1.00  0.00     0.029 A 
HETATM   15  C8  UNL     1      27.716  -1.151  52.796  1.00  0.00     0.002 A 
HETATM   16  C9  UNL     1      28.452  -0.642  53.869  1.00  0.00     0.000 A 
HETATM   17  C10 UNL     1      27.942   0.277  54.760  1.00  0.00     0.002 A 
HETATM   18  C11 UNL     1      26.632   0.720  54.581  1.00  0.00     0.029 A 
ENDBRANCH  11  13
ENDBRANCH   6  11
BRANCH   3  19
HETATM   19  O2  UNL     1      22.124   5.780  51.895  1.00  0.00    -0.388 OA
HETATM   20  H7  UNL     1      21.867   6.576  52.441  1.00  0.00     0.210 HD
ENDBRANCH   3  19
BRANCH   1  21
HETATM   21  P1  UNL     1      20.034   2.196  50.109  1.00  0.00     0.013 P 
HETATM   22  H2  UNL     1      18.866   3.026  50.333  1.00  0.00     0.087 HD
BRANCH  21  23
HETATM   23  O1  UNL     1      20.193   1.687  48.481  1.00  0.00    -0.376 OA
HETATM   24  H1  UNL     1      20.423   2.456  47.896  1.00  0.00     0.214 HD
ENDBRANCH  21  23
ENDBRANCH   1  21
TORSDOF 5
ENDMDL
MODEL 8
REMARK VINA RESULT:      -6.5      4.296      6.982
REMARK  5 active torsions:
REMARK  status: ('A' for Active; 'I' for Inactive)
REMARK    1  A    between atoms: O1_1  and  P1_2 
REMARK    2  A    between atoms: P1_2  and  C1_3 
REMARK    3  A    between atoms: C3_5  and  O2_6 
REMARK    4  A    between atoms: C5_9  and  N2_10 
REMARK    5  A    between atoms: N2_10  and  C6_11 
ROOT
HETATM    1  C1  UNL     1      23.299   4.824  50.466  1.00  0.00     0.053 C 
HETATM    2  C2  UNL     1      24.118   3.862  49.715  1.00  0.00     0.052 C 
HETATM    3  C3  UNL     1      23.269   2.765  48.973  1.00  0.00     0.190 C 
HETATM    4  C4  UNL     1      22.432   2.308  50.155  1.00  0.00     0.156 C 
HETATM    5  N1  UNL     1      22.817   1.418  51.075  1.00  0.00    -0.214 NA
HETATM    6  C5  UNL     1      23.474   2.016  52.312  1.00  0.00     0.127 C 
HETATM    7  C12 UNL     1      23.393   3.367  52.540  1.00  0.00     0.034 C 
HETATM    8  C13 UNL     1      22.712   4.466  51.798  1.00  0.00     0.063 C 
HETATM    9  C14 UNL     1      21.302   3.964  51.447  1.00  0.00     0.101 C 
HETATM   10  N3  UNL     1      21.154   2.907  50.590  1.00  0.00    -0.246 NA
ENDROOT
BRANCH   6  11
HETATM   11  N2  UNL     1      24.166   1.169  53.200  1.00  0.00    -0.341 N 
HETATM   12  H8  UNL     1      23.542   0.723  53.912  1.00  0.00     0.167 HD
BRANCH  11  13
HETATM   13  C6  UNL     1      25.553   0.854  53.243  1.00  0.00     0.033 A 
HETATM   14  C7  UNL     1      26.452   1.760  53.762  1.00  0.00     0.029 A 
HETATM   15  C8  UNL     1      27.790   1.354  53.769  1.00  0.00     0.002 A 
HETATM   16  C9  UNL     1      28.125   0.094  53.266  1.00  0.00     0.000 A 
HETATM   17  C10 UNL     1      27.193  -0.782  52.755  1.00  0.00     0.002 A 
HETATM   18  C11 UNL     1      25.854  -0.394  52.740  1.00  0.00     0.029 A 
ENDBRANCH  11  13
ENDBRANCH   6  11
BRANCH   3  19
HETATM   19  O2  UNL     1      22.466   3.278  48.025  1.00  0.00    -0.388 OA
HETATM   20  H7  UNL     1      21.548   2.887  47.967  1.00  0.00     0.210 HD
ENDBRANCH   3  19
BRANCH   1  21
HETATM   21  P1  UNL     1      24.240   6.439  50.719  1.00  0.00     0.013 P 
HETATM   22  H2  UNL     1      23.629   7.510  49.957  1.00  0.00     0.087 HD
BRANCH  21  23
HETATM   23  O1  UNL     1      24.446   6.825  52.375  1.00  0.00    -0.376 OA
HETATM   24  H1  UNL     1      25.021   6.151  52.821  1.00  0.00     0.214 HD
ENDBRANCH  21  23
ENDBRANCH   1  21
TORSDOF 5
ENDMDL
MODEL 9
REMARK VINA RESULT:      -6.4      4.499      5.896
REMARK  5 active torsions:
REMARK  status: ('A' for Active; 'I' for Inactive)
REMARK    1  A    between atoms: O1_1  and  P1_2 
REMARK    2  A    between atoms: P1_2  and  C1_3 
REMARK    3  A    between atoms: C3_5  and  O2_6 
REMARK    4  A    between atoms: C5_9  and  N2_10 
REMARK    5  A    between atoms: N2_10  and  C6_11 
ROOT
HETATM    1  C1  UNL     1      26.123   2.518  52.313  1.00  0.00     0.053 C 
HETATM    2  C2  UNL     1      26.100   2.428  50.846  1.00  0.00     0.052 C 
HETATM    3  C3  UNL     1      25.417   3.665  50.155  1.00  0.00     0.190 C 
HETATM    4  C4  UNL     1      24.122   3.663  50.947  1.00  0.00     0.156 C 
HETATM    5  N1  UNL     1      23.056   2.901  50.683  1.00  0.00    -0.214 NA
HETATM    6  C5  UNL     1      23.019   1.571  51.425  1.00  0.00     0.127 C 
HETATM    7  C12 UNL     1      23.877   1.352  52.474  1.00  0.00     0.034 C 
HETATM    8  C13 UNL     1      24.900   2.218  53.126  1.00  0.00     0.063 C 
HETATM    9  C14 UNL     1      24.254   3.599  53.328  1.00  0.00     0.101 C 
HETATM   10  N3  UNL     1      23.900   4.347  52.238  1.00  0.00    -0.246 NA
ENDROOT
BRANCH   6  11
HETATM   11  N2  UNL     1      22.106   0.580  51.013  1.00  0.00    -0.341 N 
HETATM   12  H8  UNL     1      22.447   0.021  50.197  1.00  0.00     0.167 HD
BRANCH  11  13
HETATM   13  C6  UNL     1      20.830   0.255  51.551  1.00  0.00     0.033 A 
HETATM   14  C7  UNL     1      19.689   0.483  50.812  1.00  0.00     0.029 A 
HETATM   15  C8  UNL     1      18.485   0.121  51.424  1.00  0.00     0.002 A 
HETATM   16  C9  UNL     1      18.509  -0.431  52.707  1.00  0.00     0.000 A 
HETATM   17  C10 UNL     1      19.673  -0.640  53.413  1.00  0.00     0.002 A 
HETATM   18  C11 UNL     1      20.883  -0.286  52.818  1.00  0.00     0.029 A 
ENDBRANCH  11  13
ENDBRANCH   6  11
BRANCH   3  19
HETATM   19  O2  UNL     1      26.077   4.816  50.372  1.00  0.00    -0.388 OA
HETATM   20  H7  UNL     1      27.071   4.776  50.284  1.00  0.00     0.210 HD
ENDBRANCH   3  19
BRANCH   1  21
HETATM   21  P1  UNL     1      27.505   1.448  53.021  1.00  0.00     0.013 P 
HETATM   22  H2  UNL     1      27.594   0.190  52.305  1.00  0.00     0.087 HD
BRANCH  21  23
HETATM   23  O1  UNL     1      28.999   2.280  53.105  1.00  0.00    -0.376 OA
HETATM   24  H1  UNL     1      29.317   2.519  52.196  1.00  0.00     0.214 HD
ENDBRANCH  21  23
ENDBRANCH   1  21
TORSDOF 5
ENDMDL
