MODEL 1
REMARK VINA RESULT:      -8.4      0.000      0.000
REMARK  6 active torsions:
REMARK  status: ('A' for Active; 'I' for Inactive)
REMARK    1  A    between atoms: C2_2  and  C3_3 
REMARK    2  A    between atoms: C5_7  and  N3_8 
REMARK    3  A    between atoms: N3_8  and  C6_9 
REMARK    4  A    between atoms: C12_17  and  C13_18 
REMARK    5  A    between atoms: C13_18  and  C14_19 
REMARK    6  A    between atoms: C14_19  and  N4_20 
ROOT
HETATM    1  C3  UNL     1      21.773  -0.170  54.137  1.00  0.00     0.068 A 
HETATM    2  N1  UNL     1      22.206  -0.907  55.176  1.00  0.00    -0.241 NA
HETATM    3  C4  UNL     1      23.485  -1.258  55.350  1.00  0.00     0.235 A 
HETATM    4  N2  UNL     1      24.390  -0.844  54.425  1.00  0.00    -0.224 NA
HETATM    5  C5  UNL     1      23.984  -0.099  53.366  1.00  0.00     0.141 A 
HETATM    6  C12 UNL     1      22.676   0.267  53.176  1.00  0.00     0.036 A 
ENDROOT
BRANCH   6   7
HETATM    7  C13 UNL     1      22.268   0.987  52.171  1.00  0.00     0.010 C 
BRANCH   7   8
HETATM    8  C14 UNL     1      21.908   2.384  51.941  1.00  0.00     0.155 C 
BRANCH   8   9
HETATM    9  N4  UNL     1      23.067   3.088  51.408  1.00  0.00    -0.332 N 
HETATM   10  C15 UNL     1      23.109   3.051  49.928  1.00  0.00     0.174 C 
HETATM   11  S1  UNL     1      22.269   2.537  48.655  1.00  0.00    -0.041 SA
HETATM   12  N5  UNL     1      24.325   3.768  49.773  1.00  0.00    -0.353 N 
HETATM   13  C16 UNL     1      25.063   4.878  49.133  1.00  0.00     0.144 C 
HETATM   14  C19 UNL     1      25.210   3.217  50.850  1.00  0.00     0.171 C 
HETATM   15  C17 UNL     1      25.015   5.757  50.461  1.00  0.00     0.135 C 
HETATM   16  N6  UNL     1      24.131   5.210  51.430  1.00  0.00    -0.398 N 
HETATM   17  C18 UNL     1      24.245   3.880  51.904  1.00  0.00     0.200 C 
HETATM   18  H17 UNL     1      23.191   5.638  51.484  1.00  0.00     0.155 HD
ENDBRANCH   8   9
ENDBRANCH   7   8
ENDBRANCH   6   7
BRANCH   1  19
HETATM   19  C2  UNL     1      20.461   0.114  54.123  1.00  0.00     0.002 C 
HETATM   20  C1  UNL     1      19.551  -0.940  53.576  1.00  0.00     0.038 C 
ENDBRANCH   1  19
BRANCH   5  21
HETATM   21  N3  UNL     1      25.025   0.243  52.468  1.00  0.00    -0.340 N 
HETATM   22  H6  UNL     1      25.283   0.642  51.567  1.00  0.00     0.167 HD
BRANCH  21  23
HETATM   23  C6  UNL     1      26.370  -0.026  52.891  1.00  0.00     0.035 A 
HETATM   24  C7  UNL     1      26.889  -1.292  52.683  1.00  0.00     0.032 A 
HETATM   25  C8  UNL     1      28.186  -1.581  53.040  1.00  0.00     0.046 A 
HETATM   26  C9  UNL     1      29.027  -0.625  53.620  1.00  0.00     0.138 A 
HETATM   27  F1  UNL     1      30.316  -0.854  53.987  1.00  0.00    -0.204 F 
HETATM   28  C10 UNL     1      28.546   0.665  53.846  1.00  0.00     0.074 A 
HETATM   29 CL1  UNL     1      29.495   1.949  54.560  1.00  0.00    -0.081 Cl
HETATM   30  C11 UNL     1      27.247   0.902  53.474  1.00  0.00     0.056 A 
ENDBRANCH  21  23
ENDBRANCH   5  21
TORSDOF 6
ENDMDL
MODEL 2
REMARK VINA RESULT:      -8.4      2.479      5.068
REMARK  6 active torsions:
REMARK  status: ('A' for Active; 'I' for Inactive)
REMARK    1  A    between atoms: C2_2  and  C3_3 
REMARK    2  A    between atoms: C5_7  and  N3_8 
REMARK    3  A    between atoms: N3_8  and  C6_9 
REMARK    4  A    between atoms: C12_17  and  C13_18 
REMARK    5  A    between atoms: C13_18  and  C14_19 
REMARK    6  A    between atoms: C14_19  and  N4_20 
ROOT
HETATM    1  C3  UNL     1      24.312   3.274  50.046  1.00  0.00     0.068 A 
HETATM    2  N1  UNL     1      25.334   3.482  49.196  1.00  0.00    -0.241 NA
HETATM    3  C4  UNL     1      26.620   3.386  49.551  1.00  0.00     0.235 A 
HETATM    4  N2  UNL     1      26.903   3.060  50.839  1.00  0.00    -0.224 NA
HETATM    5  C5  UNL     1      25.893   2.844  51.720  1.00  0.00     0.141 A 
HETATM    6  C12 UNL     1      24.571   2.939  51.369  1.00  0.00     0.036 A 
ENDROOT
BRANCH   6   7
HETATM    7  C13 UNL     1      23.589   2.728  52.198  1.00  0.00     0.010 C 
BRANCH   7   8
HETATM    8  C14 UNL     1      23.027   1.584  52.911  1.00  0.00     0.155 C 
BRANCH   8   9
HETATM    9  N4  UNL     1      21.726   1.263  52.337  1.00  0.00    -0.332 N 
HETATM   10  C15 UNL     1      21.162   0.016  52.901  1.00  0.00     0.174 C 
HETATM   11  S1  UNL     1      21.463  -1.121  54.000  1.00  0.00    -0.041 SA
HETATM   12  N5  UNL     1      19.972   0.001  52.126  1.00  0.00    -0.353 N 
HETATM   13  C16 UNL     1      18.497  -0.105  52.078  1.00  0.00     0.144 C 
HETATM   14  C19 UNL     1      20.426   0.407  50.757  1.00  0.00     0.171 C 
HETATM   15  C17 UNL     1      18.332   1.460  51.829  1.00  0.00     0.135 C 
HETATM   16  N6  UNL     1      19.551   2.163  52.032  1.00  0.00    -0.398 N 
HETATM   17  C18 UNL     1      20.746   1.832  51.348  1.00  0.00     0.200 C 
HETATM   18  H17 UNL     1      19.659   2.635  52.945  1.00  0.00     0.155 HD
ENDBRANCH   8   9
ENDBRANCH   7   8
ENDBRANCH   6   7
BRANCH   1  19
HETATM   19  C2  UNL     1      23.080   3.388  49.525  1.00  0.00     0.002 C 
HETATM   20  C1  UNL     1      22.791   2.577  48.301  1.00  0.00     0.038 C 
ENDBRANCH   1  19
BRANCH   5  21
HETATM   21  N3  UNL     1      26.329   2.536  53.032  1.00  0.00    -0.340 N 
HETATM   22  H6  UNL     1      26.275   2.754  54.026  1.00  0.00     0.167 HD
BRANCH  21  23
HETATM   23  C6  UNL     1      27.250   1.445  53.178  1.00  0.00     0.035 A 
HETATM   24  C7  UNL     1      28.501   1.701  53.712  1.00  0.00     0.032 A 
HETATM   25  C8  UNL     1      29.401   0.677  53.903  1.00  0.00     0.046 A 
HETATM   26  C9  UNL     1      29.097  -0.648  53.573  1.00  0.00     0.138 A 
HETATM   27  F1  UNL     1      29.944  -1.698  53.745  1.00  0.00    -0.204 F 
HETATM   28  C10 UNL     1      27.847  -0.952  53.033  1.00  0.00     0.074 A 
HETATM   29 CL1  UNL     1      27.346  -2.566  52.582  1.00  0.00    -0.081 Cl
HETATM   30  C11 UNL     1      26.987   0.103  52.862  1.00  0.00     0.056 A 
ENDBRANCH  21  23
ENDBRANCH   5  21
TORSDOF 6
ENDMDL
MODEL 3
REMARK VINA RESULT:      -8.0      3.345      5.927
REMARK  6 active torsions:
REMARK  status: ('A' for Active; 'I' for Inactive)
REMARK    1  A    between atoms: C2_2  and  C3_3 
REMARK    2  A    between atoms: C5_7  and  N3_8 
REMARK    3  A    between atoms: N3_8  and  C6_9 
REMARK    4  A    between atoms: C12_17  and  C13_18 
REMARK    5  A    between atoms: C13_18  and  C14_19 
REMARK    6  A    between atoms: C14_19  and  N4_20 
ROOT
HETATM    1  C3  UNL     1      20.962   0.103  53.049  1.00  0.00     0.068 A 
HETATM    2  N1  UNL     1      19.650   0.016  52.763  1.00  0.00    -0.241 NA
HETATM    3  C4  UNL     1      19.132   0.328  51.570  1.00  0.00     0.235 A 
HETATM    4  N2  UNL     1      19.981   0.755  50.599  1.00  0.00    -0.224 NA
HETATM    5  C5  UNL     1      21.311   0.853  50.857  1.00  0.00     0.141 A 
HETATM    6  C12 UNL     1      21.854   0.536  52.076  1.00  0.00     0.036 A 
ENDROOT
BRANCH   6   7
HETATM    7  C13 UNL     1      23.126   0.616  52.340  1.00  0.00     0.010 C 
BRANCH   7   8
HETATM    8  C14 UNL     1      24.019   1.574  52.988  1.00  0.00     0.155 C 
BRANCH   8   9
HETATM    9  N4  UNL     1      25.289   0.917  53.272  1.00  0.00    -0.332 N 
HETATM   10  C15 UNL     1      26.373   1.397  52.385  1.00  0.00     0.174 C 
HETATM   11  S1  UNL     1      26.668   2.462  51.216  1.00  0.00    -0.041 SA
HETATM   12  N5  UNL     1      27.397   0.558  52.900  1.00  0.00    -0.353 N 
HETATM   13  C16 UNL     1      28.766   0.426  53.446  1.00  0.00     0.144 C 
HETATM   14  C19 UNL     1      26.721  -0.766  53.088  1.00  0.00     0.171 C 
HETATM   15  C17 UNL     1      28.221   0.234  54.930  1.00  0.00     0.135 C 
HETATM   16  N6  UNL     1      26.834   0.532  55.032  1.00  0.00    -0.398 N 
HETATM   17  C18 UNL     1      25.857  -0.099  54.224  1.00  0.00     0.200 C 
HETATM   18  H17 UNL     1      26.594   1.469  55.396  1.00  0.00     0.155 HD
ENDBRANCH   8   9
ENDBRANCH   7   8
ENDBRANCH   6   7
BRANCH   1  19
HETATM   19  C2  UNL     1      21.321  -0.270  54.287  1.00  0.00     0.002 C 
HETATM   20  C1  UNL     1      21.379  -1.740  54.556  1.00  0.00     0.038 C 
ENDBRANCH   1  19
BRANCH   5  21
HETATM   21  N3  UNL     1      22.076   1.332  49.765  1.00  0.00    -0.340 N 
HETATM   22  H6  UNL     1      22.559   1.112  48.896  1.00  0.00     0.167 HD
BRANCH  21  23
HETATM   23  C6  UNL     1      22.364   2.737  49.733  1.00  0.00     0.035 A 
HETATM   24  C7  UNL     1      21.371   3.626  50.107  1.00  0.00     0.032 A 
HETATM   25  C8  UNL     1      21.617   4.980  50.125  1.00  0.00     0.046 A 
HETATM   26  C9  UNL     1      22.862   5.513  49.773  1.00  0.00     0.138 A 
HETATM   27  F1  UNL     1      23.161   6.839  49.778  1.00  0.00    -0.204 F 
HETATM   28  C10 UNL     1      23.892   4.654  49.390  1.00  0.00     0.074 A 
HETATM   29 CL1  UNL     1      25.491   5.193  48.930  1.00  0.00    -0.081 Cl
HETATM   30  C11 UNL     1      23.597   3.314  49.387  1.00  0.00     0.056 A 
ENDBRANCH  21  23
ENDBRANCH   5  21
TORSDOF 6
ENDMDL
MODEL 4
REMARK VINA RESULT:      -7.9      3.461      5.876
REMARK  6 active torsions:
REMARK  status: ('A' for Active; 'I' for Inactive)
REMARK    1  A    between atoms: C2_2  and  C3_3 
REMARK    2  A    between atoms: C5_7  and  N3_8 
REMARK    3  A    between atoms: N3_8  and  C6_9 
REMARK    4  A    between atoms: C12_17  and  C13_18 
REMARK    5  A    between atoms: C13_18  and  C14_19 
REMARK    6  A    between atoms: C14_19  and  N4_20 
ROOT
HETATM    1  C3  UNL     1      21.196   1.743  52.008  1.00  0.00     0.068 A 
HETATM    2  N1  UNL     1      20.220   2.561  51.572  1.00  0.00    -0.241 NA
HETATM    3  C4  UNL     1      20.378   3.879  51.413  1.00  0.00     0.235 A 
HETATM    4  N2  UNL     1      21.590   4.415  51.708  1.00  0.00    -0.224 NA
HETATM    5  C5  UNL     1      22.595   3.616  52.149  1.00  0.00     0.141 A 
HETATM    6  C12 UNL     1      22.447   2.263  52.317  1.00  0.00     0.036 A 
ENDROOT
BRANCH   6   7
HETATM    7  C13 UNL     1      23.400   1.480  52.732  1.00  0.00     0.010 C 
BRANCH   7   8
HETATM    8  C14 UNL     1      24.526   0.767  52.134  1.00  0.00     0.155 C 
BRANCH   8   9
HETATM    9  N4  UNL     1      25.715   0.999  52.945  1.00  0.00    -0.332 N 
HETATM   10  C15 UNL     1      26.607  -0.181  52.973  1.00  0.00     0.174 C 
HETATM   11  S1  UNL     1      26.762  -1.661  52.360  1.00  0.00    -0.041 SA
HETATM   12  N5  UNL     1      27.590   0.369  53.838  1.00  0.00    -0.353 N 
HETATM   13  C16 UNL     1      29.016   0.660  54.107  1.00  0.00     0.144 C 
HETATM   14  C19 UNL     1      26.792   1.090  54.881  1.00  0.00     0.171 C 
HETATM   15  C17 UNL     1      28.828   2.204  53.761  1.00  0.00     0.135 C 
HETATM   16  N6  UNL     1      27.569   2.465  53.155  1.00  0.00    -0.398 N 
HETATM   17  C18 UNL     1      26.341   2.098  53.757  1.00  0.00     0.200 C 
HETATM   18  H17 UNL     1      27.568   2.554  52.126  1.00  0.00     0.155 HD
ENDBRANCH   8   9
ENDBRANCH   7   8
ENDBRANCH   6   7
BRANCH   1  19
HETATM   19  C2  UNL     1      20.881   0.441  52.090  1.00  0.00     0.002 C 
HETATM   20  C1  UNL     1      19.432   0.110  52.260  1.00  0.00     0.038 C 
ENDBRANCH   1  19
BRANCH   5  21
HETATM   21  N3  UNL     1      23.796   4.309  52.442  1.00  0.00    -0.340 N 
HETATM   22  H6  UNL     1      24.455   4.618  53.154  1.00  0.00     0.167 HD
BRANCH  21  23
HETATM   23  C6  UNL     1      24.518   4.865  51.334  1.00  0.00     0.035 A 
HETATM   24  C7  UNL     1      25.222   4.009  50.504  1.00  0.00     0.032 A 
HETATM   25  C8  UNL     1      25.897   4.497  49.409  1.00  0.00     0.046 A 
HETATM   26  C9  UNL     1      25.905   5.860  49.089  1.00  0.00     0.138 A 
HETATM   27  F1  UNL     1      26.550   6.395  48.019  1.00  0.00    -0.204 F 
HETATM   28  C10 UNL     1      25.209   6.758  49.897  1.00  0.00     0.074 A 
HETATM   29 CL1  UNL     1      25.139   8.481  49.604  1.00  0.00    -0.081 Cl
HETATM   30  C11 UNL     1      24.553   6.223  50.976  1.00  0.00     0.056 A 
ENDBRANCH  21  23
ENDBRANCH   5  21
TORSDOF 6
ENDMDL
MODEL 5
REMARK VINA RESULT:      -7.9      1.810      5.123
REMARK  6 active torsions:
REMARK  status: ('A' for Active; 'I' for Inactive)
REMARK    1  A    between atoms: C2_2  and  C3_3 
REMARK    2  A    between atoms: C5_7  and  N3_8 
REMARK    3  A    between atoms: N3_8  and  C6_9 
REMARK    4  A    between atoms: C12_17  and  C13_18 
REMARK    5  A    between atoms: C13_18  and  C14_19 
REMARK    6  A    between atoms: C14_19  and  N4_20 
ROOT
HETATM    1  C3  UNL     1      24.356   3.585  49.867  1.00  0.00     0.068 A 
HETATM    2  N1  UNL     1      25.558   3.819  49.310  1.00  0.00    -0.241 NA
HETATM    3  C4  UNL     1      26.715   3.440  49.865  1.00  0.00     0.235 A 
HETATM    4  N2  UNL     1      26.667   2.784  51.053  1.00  0.00    -0.224 NA
HETATM    5  C5  UNL     1      25.468   2.532  51.639  1.00  0.00     0.141 A 
HETATM    6  C12 UNL     1      24.275   2.915  51.081  1.00  0.00     0.036 A 
ENDROOT
BRANCH   6   7
HETATM    7  C13 UNL     1      23.117   2.677  51.625  1.00  0.00     0.010 C 
BRANCH   7   8
HETATM    8  C14 UNL     1      21.918   1.916  51.281  1.00  0.00     0.155 C 
BRANCH   8   9
HETATM    9  N4  UNL     1      21.610   1.003  52.375  1.00  0.00    -0.332 N 
HETATM   10  C15 UNL     1      20.255   0.419  52.247  1.00  0.00     0.174 C 
HETATM   11  S1  UNL     1      18.980   0.393  51.265  1.00  0.00    -0.041 SA
HETATM   12  N5  UNL     1      20.287  -0.349  53.441  1.00  0.00    -0.353 N 
HETATM   13  C16 UNL     1      20.096  -1.657  54.106  1.00  0.00     0.144 C 
HETATM   14  C19 UNL     1      20.934   0.560  54.441  1.00  0.00     0.171 C 
HETATM   15  C17 UNL     1      21.667  -1.900  54.214  1.00  0.00     0.135 C 
HETATM   16  N6  UNL     1      22.406  -0.961  53.444  1.00  0.00    -0.398 N 
HETATM   17  C18 UNL     1      22.264   0.439  53.606  1.00  0.00     0.200 C 
HETATM   18  H17 UNL     1      22.732  -1.286  52.519  1.00  0.00     0.155 HD
ENDBRANCH   8   9
ENDBRANCH   7   8
ENDBRANCH   6   7
BRANCH   1  19
HETATM   19  C2  UNL     1      23.291   4.010  49.169  1.00  0.00     0.002 C 
HETATM   20  C1  UNL     1      22.829   3.135  48.048  1.00  0.00     0.038 C 
ENDBRANCH   1  19
BRANCH   5  21
HETATM   21  N3  UNL     1      25.565   1.863  52.884  1.00  0.00    -0.340 N 
HETATM   22  H6  UNL     1      25.270   1.819  53.858  1.00  0.00     0.167 HD
BRANCH  21  23
HETATM   23  C6  UNL     1      26.412   0.706  52.943  1.00  0.00     0.035 A 
HETATM   24  C7  UNL     1      25.876  -0.525  52.605  1.00  0.00     0.032 A 
HETATM   25  C8  UNL     1      26.663  -1.654  52.612  1.00  0.00     0.046 A 
HETATM   26  C9  UNL     1      28.019  -1.611  52.955  1.00  0.00     0.138 A 
HETATM   27  F1  UNL     1      28.843  -2.692  52.974  1.00  0.00    -0.204 F 
HETATM   28  C10 UNL     1      28.600  -0.392  53.302  1.00  0.00     0.074 A 
HETATM   29 CL1  UNL     1      30.282  -0.205  53.748  1.00  0.00    -0.081 Cl
HETATM   30  C11 UNL     1      27.774   0.704  53.281  1.00  0.00     0.056 A 
ENDBRANCH  21  23
ENDBRANCH   5  21
TORSDOF 6
ENDMDL
MODEL 6
REMARK VINA RESULT:      -7.9      1.760      2.110
REMARK  6 active torsions:
REMARK  status: ('A' for Active; 'I' for Inactive)
REMARK    1  A    between atoms: C2_2  and  C3_3 
REMARK    2  A    between atoms: C5_7  and  N3_8 
REMARK    3  A    between atoms: N3_8  and  C6_9 
REMARK    4  A    between atoms: C12_17  and  C13_18 
REMARK    5  A    between atoms: C13_18  and  C14_19 
REMARK    6  A    between atoms: C14_19  and  N4_20 
ROOT
HETATM    1  C3  UNL     1      22.128   0.421  53.121  1.00  0.00     0.068 A 
HETATM    2  N1  UNL     1      22.387  -0.578  53.984  1.00  0.00    -0.241 NA
HETATM    3  C4  UNL     1      23.619  -0.898  54.394  1.00  0.00     0.235 A 
HETATM    4  N2  UNL     1      24.661  -0.173  53.910  1.00  0.00    -0.224 NA
HETATM    5  C5  UNL     1      24.431   0.842  53.038  1.00  0.00     0.141 A 
HETATM    6  C12 UNL     1      23.174   1.181  52.609  1.00  0.00     0.036 A 
ENDROOT
BRANCH   6   7
HETATM    7  C13 UNL     1      22.933   2.154  51.779  1.00  0.00     0.010 C 
BRANCH   7   8
HETATM    8  C14 UNL     1      22.642   3.582  51.872  1.00  0.00     0.155 C 
BRANCH   8   9
HETATM    9  N4  UNL     1      23.431   4.290  50.871  1.00  0.00    -0.332 N 
HETATM   10  C15 UNL     1      22.822   5.587  50.498  1.00  0.00     0.174 C 
HETATM   11  S1  UNL     1      21.584   6.550  50.859  1.00  0.00    -0.041 SA
HETATM   12  N5  UNL     1      23.793   5.960  49.531  1.00  0.00    -0.353 N 
HETATM   13  C16 UNL     1      24.736   6.976  49.014  1.00  0.00     0.144 C 
HETATM   14  C19 UNL     1      24.066   4.690  48.784  1.00  0.00     0.171 C 
HETATM   15  C17 UNL     1      25.994   6.193  49.598  1.00  0.00     0.135 C 
HETATM   16  N6  UNL     1      25.609   5.148  50.481  1.00  0.00    -0.398 N 
HETATM   17  C18 UNL     1      24.712   4.119  50.103  1.00  0.00     0.200 C 
HETATM   18  H17 UNL     1      25.665   5.360  51.491  1.00  0.00     0.155 HD
ENDBRANCH   8   9
ENDBRANCH   7   8
ENDBRANCH   6   7
BRANCH   1  19
HETATM   19  C2  UNL     1      20.835   0.627  52.829  1.00  0.00     0.002 C 
HETATM   20  C1  UNL     1      19.850  -0.321  53.436  1.00  0.00     0.038 C 
ENDBRANCH   1  19
BRANCH   5  21
HETATM   21  N3  UNL     1      25.607   1.498  52.595  1.00  0.00    -0.340 N 
HETATM   22  H6  UNL     1      26.010   2.297  52.108  1.00  0.00     0.167 HD
BRANCH  21  23
HETATM   23  C6  UNL     1      26.862   0.883  52.918  1.00  0.00     0.035 A 
HETATM   24  C7  UNL     1      27.872   1.674  53.440  1.00  0.00     0.032 A 
HETATM   25  C8  UNL     1      29.079   1.117  53.797  1.00  0.00     0.046 A 
HETATM   26  C9  UNL     1      29.337  -0.251  53.653  1.00  0.00     0.138 A 
HETATM   27  F1  UNL     1      30.507  -0.853  53.994  1.00  0.00    -0.204 F 
HETATM   28  C10 UNL     1      28.348  -1.084  53.132  1.00  0.00     0.074 A 
HETATM   29 CL1  UNL     1      28.544  -2.807  52.905  1.00  0.00    -0.081 Cl
HETATM   30  C11 UNL     1      27.163  -0.482  52.790  1.00  0.00     0.056 A 
ENDBRANCH  21  23
ENDBRANCH   5  21
TORSDOF 6
ENDMDL
MODEL 7
REMARK VINA RESULT:      -7.7      2.796      4.513
REMARK  6 active torsions:
REMARK  status: ('A' for Active; 'I' for Inactive)
REMARK    1  A    between atoms: C2_2  and  C3_3 
REMARK    2  A    between atoms: C5_7  and  N3_8 
REMARK    3  A    between atoms: N3_8  and  C6_9 
REMARK    4  A    between atoms: C12_17  and  C13_18 
REMARK    5  A    between atoms: C13_18  and  C14_19 
REMARK    6  A    between atoms: C14_19  and  N4_20 
ROOT
HETATM    1  C3  UNL     1      23.816   2.779  50.171  1.00  0.00     0.068 A 
HETATM    2  N1  UNL     1      22.849   1.937  50.579  1.00  0.00    -0.241 NA
HETATM    3  C4  UNL     1      22.855   1.328  51.770  1.00  0.00     0.235 A 
HETATM    4  N2  UNL     1      23.894   1.579  52.608  1.00  0.00    -0.224 NA
HETATM    5  C5  UNL     1      24.885   2.424  52.225  1.00  0.00     0.141 A 
HETATM    6  C12 UNL     1      24.891   3.054  51.007  1.00  0.00     0.036 A 
ENDROOT
BRANCH   6   7
HETATM    7  C13 UNL     1      25.828   3.873  50.625  1.00  0.00     0.010 C 
BRANCH   7   8
HETATM    8  C14 UNL     1      26.597   4.114  49.407  1.00  0.00     0.155 C 
BRANCH   8   9
HETATM    9  N4  UNL     1      26.485   5.523  49.050  1.00  0.00    -0.332 N 
HETATM   10  C15 UNL     1      27.755   6.064  48.516  1.00  0.00     0.174 C 
HETATM   11  S1  UNL     1      29.252   5.619  48.127  1.00  0.00    -0.041 SA
HETATM   12  N5  UNL     1      27.304   7.397  48.319  1.00  0.00    -0.353 N 
HETATM   13  C16 UNL     1      27.166   8.563  47.420  1.00  0.00     0.144 C 
HETATM   14  C19 UNL     1      26.485   7.686  49.540  1.00  0.00     0.171 C 
HETATM   15  C17 UNL     1      25.617   8.278  47.187  1.00  0.00     0.135 C 
HETATM   16  N6  UNL     1      25.227   7.006  47.688  1.00  0.00    -0.398 N 
HETATM   17  C18 UNL     1      25.449   6.614  49.031  1.00  0.00     0.200 C 
HETATM   18  H17 UNL     1      25.154   6.245  46.993  1.00  0.00     0.155 HD
ENDBRANCH   8   9
ENDBRANCH   7   8
ENDBRANCH   6   7
BRANCH   1  19
HETATM   19  C2  UNL     1      23.649   3.323  48.956  1.00  0.00     0.002 C 
HETATM   20  C1  UNL     1      22.295   3.880  48.650  1.00  0.00     0.038 C 
ENDBRANCH   1  19
BRANCH   5  21
HETATM   21  N3  UNL     1      25.916   2.575  53.185  1.00  0.00    -0.340 N 
HETATM   22  H6  UNL     1      26.306   3.134  53.942  1.00  0.00     0.167 HD
BRANCH  21  23
HETATM   23  C6  UNL     1      26.922   1.554  53.233  1.00  0.00     0.035 A 
HETATM   24  C7  UNL     1      28.190   1.892  53.675  1.00  0.00     0.032 A 
HETATM   25  C8  UNL     1      29.174   0.935  53.772  1.00  0.00     0.046 A 
HETATM   26  C9  UNL     1      28.943  -0.403  53.434  1.00  0.00     0.138 A 
HETATM   27  F1  UNL     1      29.875  -1.389  53.515  1.00  0.00    -0.204 F 
HETATM   28  C10 UNL     1      27.680  -0.789  52.985  1.00  0.00     0.074 A 
HETATM   29 CL1  UNL     1      27.263  -2.427  52.535  1.00  0.00    -0.081 Cl
HETATM   30  C11 UNL     1      26.734   0.202  52.905  1.00  0.00     0.056 A 
ENDBRANCH  21  23
ENDBRANCH   5  21
TORSDOF 6
ENDMDL
MODEL 8
REMARK VINA RESULT:      -7.6      2.125      3.360
REMARK  6 active torsions:
REMARK  status: ('A' for Active; 'I' for Inactive)
REMARK    1  A    between atoms: C2_2  and  C3_3 
REMARK    2  A    between atoms: C5_7  and  N3_8 
REMARK    3  A    between atoms: N3_8  and  C6_9 
REMARK    4  A    between atoms: C12_17  and  C13_18 
REMARK    5  A    between atoms: C13_18  and  C14_19 
REMARK    6  A    between atoms: C14_19  and  N4_20 
ROOT
HETATM    1  C3  UNL     1      22.778   1.881  51.108  1.00  0.00     0.068 A 
HETATM    2  N1  UNL     1      22.164   1.050  51.970  1.00  0.00    -0.241 NA
HETATM    3  C4  UNL     1      22.686   0.692  53.149  1.00  0.00     0.235 A 
HETATM    4  N2  UNL     1      23.900   1.198  53.487  1.00  0.00    -0.224 NA
HETATM    5  C5  UNL     1      24.544   2.039  52.638  1.00  0.00     0.141 A 
HETATM    6  C12 UNL     1      24.020   2.414  51.428  1.00  0.00     0.036 A 
ENDROOT
BRANCH   6   7
HETATM    7  C13 UNL     1      24.618   3.225  50.604  1.00  0.00     0.010 C 
BRANCH   7   8
HETATM    8  C14 UNL     1      24.398   3.713  49.245  1.00  0.00     0.155 C 
BRANCH   8   9
HETATM    9  N4  UNL     1      24.795   5.114  49.177  1.00  0.00    -0.332 N 
HETATM   10  C15 UNL     1      23.683   6.025  49.532  1.00  0.00     0.174 C 
HETATM   11  S1  UNL     1      22.155   6.013  50.037  1.00  0.00    -0.041 SA
HETATM   12  N5  UNL     1      24.388   7.241  49.333  1.00  0.00    -0.353 N 
HETATM   13  C16 UNL     1      24.796   8.565  49.855  1.00  0.00     0.144 C 
HETATM   14  C19 UNL     1      25.174   7.004  48.079  1.00  0.00     0.171 C 
HETATM   15  C17 UNL     1      26.275   8.057  50.158  1.00  0.00     0.135 C 
HETATM   16  N6  UNL     1      26.387   6.644  50.047  1.00  0.00    -0.398 N 
HETATM   17  C18 UNL     1      26.017   5.938  48.877  1.00  0.00     0.200 C 
HETATM   18  H17 UNL     1      26.357   6.113  50.933  1.00  0.00     0.155 HD
ENDBRANCH   8   9
ENDBRANCH   7   8
ENDBRANCH   6   7
BRANCH   1  19
HETATM   19  C2  UNL     1      22.108   2.157  49.978  1.00  0.00     0.002 C 
HETATM   20  C1  UNL     1      21.541   0.992  49.231  1.00  0.00     0.038 C 
ENDBRANCH   1  19
BRANCH   5  21
HETATM   21  N3  UNL     1      25.810   2.472  53.106  1.00  0.00    -0.340 N 
HETATM   22  H6  UNL     1      26.374   3.243  53.459  1.00  0.00     0.167 HD
BRANCH  21  23
HETATM   23  C6  UNL     1      26.853   1.490  53.181  1.00  0.00     0.035 A 
HETATM   24  C7  UNL     1      28.103   1.884  53.624  1.00  0.00     0.032 A 
HETATM   25  C8  UNL     1      29.121   0.966  53.746  1.00  0.00     0.046 A 
HETATM   26  C9  UNL     1      28.943  -0.386  53.431  1.00  0.00     0.138 A 
HETATM   27  F1  UNL     1      29.910  -1.335  53.538  1.00  0.00    -0.204 F 
HETATM   28  C10 UNL     1      27.698  -0.827  52.982  1.00  0.00     0.074 A 
HETATM   29 CL1  UNL     1      27.347  -2.488  52.560  1.00  0.00    -0.081 Cl
HETATM   30  C11 UNL     1      26.717   0.126  52.877  1.00  0.00     0.056 A 
ENDBRANCH  21  23
ENDBRANCH   5  21
TORSDOF 6
ENDMDL
MODEL 9
REMARK VINA RESULT:      -7.6      2.490      4.553
REMARK  6 active torsions:
REMARK  status: ('A' for Active; 'I' for Inactive)
REMARK    1  A    between atoms: C2_2  and  C3_3 
REMARK    2  A    between atoms: C5_7  and  N3_8 
REMARK    3  A    between atoms: N3_8  and  C6_9 
REMARK    4  A    between atoms: C12_17  and  C13_18 
REMARK    5  A    between atoms: C13_18  and  C14_19 
REMARK    6  A    between atoms: C14_19  and  N4_20 
ROOT
HETATM    1  C3  UNL     1      24.773   4.797  50.499  1.00  0.00     0.068 A 
HETATM    2  N1  UNL     1      25.858   4.806  49.704  1.00  0.00    -0.241 NA
HETATM    3  C4  UNL     1      26.702   3.774  49.595  1.00  0.00     0.235 A 
HETATM    4  N2  UNL     1      26.443   2.660  50.328  1.00  0.00    -0.224 NA
HETATM    5  C5  UNL     1      25.355   2.620  51.139  1.00  0.00     0.141 A 
HETATM    6  C12 UNL     1      24.482   3.671  51.259  1.00  0.00     0.036 A 
ENDROOT
BRANCH   6   7
HETATM    7  C13 UNL     1      23.430   3.649  52.026  1.00  0.00     0.010 C 
BRANCH   7   8
HETATM    8  C14 UNL     1      22.097   3.054  51.984  1.00  0.00     0.155 C 
BRANCH   8   9
HETATM    9  N4  UNL     1      21.760   2.749  50.598  1.00  0.00    -0.332 N 
HETATM   10  C15 UNL     1      20.894   3.788  49.996  1.00  0.00     0.174 C 
HETATM   11  S1  UNL     1      20.214   5.209  50.322  1.00  0.00    -0.041 SA
HETATM   12  N5  UNL     1      20.750   3.172  48.724  1.00  0.00    -0.353 N 
HETATM   13  C16 UNL     1      20.828   3.284  47.250  1.00  0.00     0.144 C 
HETATM   14  C19 UNL     1      20.560   1.720  49.043  1.00  0.00     0.171 C 
HETATM   15  C17 UNL     1      22.198   2.472  47.201  1.00  0.00     0.135 C 
HETATM   16  N6  UNL     1      22.760   2.295  48.494  1.00  0.00    -0.398 N 
HETATM   17  C18 UNL     1      22.047   1.698  49.562  1.00  0.00     0.200 C 
HETATM   18  H17 UNL     1      23.517   2.949  48.756  1.00  0.00     0.155 HD
ENDBRANCH   8   9
ENDBRANCH   7   8
ENDBRANCH   6   7
BRANCH   1  19
HETATM   19  C2  UNL     1      24.016   5.906  50.476  1.00  0.00     0.002 C 
HETATM   20  C1  UNL     1      24.636   7.154  51.020  1.00  0.00     0.038 C 
ENDBRANCH   1  19
BRANCH   5  21
HETATM   21  N3  UNL     1      25.219   1.409  51.861  1.00  0.00    -0.340 N 
HETATM   22  H6  UNL     1      24.601   0.660  52.169  1.00  0.00     0.167 HD
BRANCH  21  23
HETATM   23  C6  UNL     1      26.400   0.876  52.477  1.00  0.00     0.035 A 
HETATM   24  C7  UNL     1      26.658  -0.478  52.354  1.00  0.00     0.032 A 
HETATM   25  C8  UNL     1      27.799  -1.023  52.897  1.00  0.00     0.046 A 
HETATM   26  C9  UNL     1      28.736  -0.247  53.589  1.00  0.00     0.138 A 
HETATM   27  F1  UNL     1      29.880  -0.731  54.140  1.00  0.00    -0.204 F 
HETATM   28  C10 UNL     1      28.516   1.123  53.736  1.00  0.00     0.074 A 
HETATM   29 CL1  UNL     1      29.609   2.201  54.575  1.00  0.00    -0.081 Cl
HETATM   30  C11 UNL     1      27.365   1.618  53.178  1.00  0.00     0.056 A 
ENDBRANCH  21  23
ENDBRANCH   5  21
TORSDOF 6
ENDMDL
