MODEL 1
REMARK VINA RESULT:      -8.5      0.000      0.000
REMARK  6 active torsions:
REMARK  status: ('A' for Active; 'I' for Inactive)
REMARK    1  A    between atoms: N1_2  and  C3_4 
REMARK    2  A    between atoms: C3_4  and  C4_5 
REMARK    3  A    between atoms: C5_6  and  C6_7 
REMARK       I    between atoms: C6_7  and  N2_9 
REMARK    4  A    between atoms: N2_9  and  C7_10 
REMARK    5  A    between atoms: C10_13  and  N3_14 
REMARK    6  A    between atoms: N3_14  and  C11_15 
ROOT
HETATM    1  C7  UNL     1      24.786   3.360  51.132  1.00  0.00     0.038 A 
HETATM    2  C8  UNL     1      24.966   2.522  52.115  1.00  0.00     0.046 A 
HETATM    3  C9  UNL     1      23.782   1.691  52.308  1.00  0.00     0.028 A 
HETATM    4  C10 UNL     1      23.658   0.749  53.239  1.00  0.00     0.068 C 
HETATM    5  C17 UNL     1      22.565  -0.160  53.562  1.00  0.00     0.089 C 
HETATM    6  C18 UNL     1      22.911  -0.884  54.750  1.00  0.00     0.103 C 
HETATM    7  N4  UNL     1      23.181  -1.490  55.725  1.00  0.00    -0.191 NA
HETATM    8  C19 UNL     1      21.392  -0.535  53.139  1.00  0.00     0.143 C 
HETATM    9  N5  UNL     1      20.620  -0.120  52.012  1.00  0.00    -0.247 NA
HETATM   10  C20 UNL     1      20.713   0.835  51.118  1.00  0.00     0.258 C 
HETATM   11  O2  UNL     1      21.586   1.891  50.830  1.00  0.00    -0.303 OA
HETATM   12  C21 UNL     1      22.888   2.199  51.258  1.00  0.00     0.091 A 
HETATM   13  C22 UNL     1      23.446   3.174  50.555  1.00  0.00     0.067 A 
ENDROOT
BRANCH   4  14
HETATM   14  N3  UNL     1      24.853   0.683  54.012  1.00  0.00    -0.354 N 
HETATM   15  H13 UNL     1      24.945   1.227  54.897  1.00  0.00     0.166 HD
BRANCH  14  16
HETATM   16  C11 UNL     1      25.928  -0.161  53.522  1.00  0.00     0.033 A 
HETATM   17  C12 UNL     1      25.561  -1.260  52.773  1.00  0.00     0.029 A 
HETATM   18  C13 UNL     1      26.595  -2.046  52.322  1.00  0.00     0.004 A 
HETATM   19  C14 UNL     1      27.889  -1.706  52.631  1.00  0.00     0.019 A 
HETATM   20  C15 UNL     1      28.249  -0.611  53.377  1.00  0.00     0.013 A 
HETATM   21 BR1  UNL     1      30.066  -0.200  53.767  1.00  0.00    -0.051 Br
HETATM   22  C16 UNL     1      27.213   0.212  53.851  1.00  0.00     0.048 A 
ENDBRANCH  14  16
ENDBRANCH   4  14
BRANCH   1  23
HETATM   23  N2  UNL     1      25.846   4.269  50.787  1.00  0.00    -0.324 N 
HETATM   24  C6  UNL     1      26.413   3.928  49.534  1.00  0.00     0.245 C 
HETATM   25  O1  UNL     1      25.815   2.911  49.081  1.00  0.00    -0.268 OA
HETATM   26  H11 UNL     1      26.216   5.103  51.334  1.00  0.00     0.169 HD
BRANCH  24  27
HETATM   27  C5  UNL     1      27.502   4.663  48.922  1.00  0.00     0.072 C 
HETATM   28  C4  UNL     1      27.486   5.921  48.546  1.00  0.00     0.008 C 
BRANCH  28  29
HETATM   29  C3  UNL     1      26.421   6.929  48.621  1.00  0.00     0.299 C 
BRANCH  29  30
HETATM   30  N1  UNL     1      26.369   7.624  49.892  1.00  0.00     0.083 N 
HETATM   31  C1  UNL     1      24.973   7.722  50.282  1.00  0.00     0.309 C 
HETATM   32  C2  UNL     1      26.923   8.943  49.861  1.00  0.00     0.309 C 
ENDBRANCH  29  30
ENDBRANCH  28  29
ENDBRANCH  24  27
ENDBRANCH   1  23
TORSDOF 6
ENDMDL
MODEL 2
REMARK VINA RESULT:      -8.4      2.979      6.696
REMARK  6 active torsions:
REMARK  status: ('A' for Active; 'I' for Inactive)
REMARK    1  A    between atoms: N1_2  and  C3_4 
REMARK    2  A    between atoms: C3_4  and  C4_5 
REMARK    3  A    between atoms: C5_6  and  C6_7 
REMARK       I    between atoms: C6_7  and  N2_9 
REMARK    4  A    between atoms: N2_9  and  C7_10 
REMARK    5  A    between atoms: C10_13  and  N3_14 
REMARK    6  A    between atoms: N3_14  and  C11_15 
ROOT
HETATM    1  C7  UNL     1      24.886   2.431  53.391  1.00  0.00     0.038 A 
HETATM    2  C8  UNL     1      24.426   3.561  52.932  1.00  0.00     0.046 A 
HETATM    3  C9  UNL     1      23.140   3.363  52.270  1.00  0.00     0.028 A 
HETATM    4  C10 UNL     1      22.426   4.327  51.694  1.00  0.00     0.068 C 
HETATM    5  C17 UNL     1      21.142   4.304  51.003  1.00  0.00     0.089 C 
HETATM    6  C18 UNL     1      20.895   5.607  50.459  1.00  0.00     0.103 C 
HETATM    7  N4  UNL     1      20.675   6.673  50.006  1.00  0.00    -0.191 NA
HETATM    8  C19 UNL     1      20.151   3.509  50.720  1.00  0.00     0.143 C 
HETATM    9  N5  UNL     1      19.926   2.135  51.035  1.00  0.00    -0.247 NA
HETATM   10  C20 UNL     1      20.640   1.169  51.562  1.00  0.00     0.258 C 
HETATM   11  O2  UNL     1      21.939   1.006  52.061  1.00  0.00    -0.303 OA
HETATM   12  C21 UNL     1      22.941   1.916  52.433  1.00  0.00     0.091 A 
HETATM   13  C22 UNL     1      23.944   1.345  53.083  1.00  0.00     0.067 A 
ENDROOT
BRANCH   4  14
HETATM   14  N3  UNL     1      23.111   5.569  51.823  1.00  0.00    -0.354 N 
HETATM   15  H13 UNL     1      22.883   6.225  52.601  1.00  0.00     0.166 HD
BRANCH  14  16
HETATM   16  C11 UNL     1      24.127   5.885  50.836  1.00  0.00     0.033 A 
HETATM   17  C12 UNL     1      24.333   4.954  49.838  1.00  0.00     0.029 A 
HETATM   18  C13 UNL     1      25.301   5.272  48.916  1.00  0.00     0.004 A 
HETATM   19  C14 UNL     1      25.987   6.457  49.034  1.00  0.00     0.019 A 
HETATM   20  C15 UNL     1      25.778   7.379  50.029  1.00  0.00     0.013 A 
HETATM   21 BR1  UNL     1      26.767   9.003  50.132  1.00  0.00    -0.051 Br
HETATM   22  C16 UNL     1      24.793   7.082  50.986  1.00  0.00     0.048 A 
ENDBRANCH  14  16
ENDBRANCH   4  14
BRANCH   1  23
HETATM   23  N2  UNL     1      26.149   2.419  54.079  1.00  0.00    -0.324 N 
HETATM   24  C6  UNL     1      27.216   2.223  53.168  1.00  0.00     0.245 C 
HETATM   25  O1  UNL     1      26.741   2.113  52.003  1.00  0.00    -0.268 OA
HETATM   26  H11 UNL     1      26.345   2.533  55.118  1.00  0.00     0.169 HD
BRANCH  24  27
HETATM   27  C5  UNL     1      28.609   2.165  53.567  1.00  0.00     0.072 C 
HETATM   28  C4  UNL     1      29.240   1.125  54.061  1.00  0.00     0.008 C 
BRANCH  28  29
HETATM   29  C3  UNL     1      28.766  -0.234  54.351  1.00  0.00     0.299 C 
BRANCH  29  30
HETATM   30  N1  UNL     1      28.623  -1.062  53.169  1.00  0.00     0.083 N 
HETATM   31  C1  UNL     1      27.203  -1.282  52.956  1.00  0.00     0.309 C 
HETATM   32  C2  UNL     1      29.267  -2.336  53.266  1.00  0.00     0.309 C 
ENDBRANCH  29  30
ENDBRANCH  28  29
ENDBRANCH  24  27
ENDBRANCH   1  23
TORSDOF 6
ENDMDL
MODEL 3
REMARK VINA RESULT:      -8.2      1.791      2.320
REMARK  6 active torsions:
REMARK  status: ('A' for Active; 'I' for Inactive)
REMARK    1  A    between atoms: N1_2  and  C3_4 
REMARK    2  A    between atoms: C3_4  and  C4_5 
REMARK    3  A    between atoms: C5_6  and  C6_7 
REMARK       I    between atoms: C6_7  and  N2_9 
REMARK    4  A    between atoms: N2_9  and  C7_10 
REMARK    5  A    between atoms: C10_13  and  N3_14 
REMARK    6  A    between atoms: N3_14  and  C11_15 
ROOT
HETATM    1  C7  UNL     1      24.966   4.256  50.131  1.00  0.00     0.038 A 
HETATM    2  C8  UNL     1      24.822   3.525  51.201  1.00  0.00     0.046 A 
HETATM    3  C9  UNL     1      23.700   2.603  51.048  1.00  0.00     0.028 A 
HETATM    4  C10 UNL     1      23.299   1.735  51.973  1.00  0.00     0.068 C 
HETATM    5  C17 UNL     1      22.219   0.756  51.983  1.00  0.00     0.089 C 
HETATM    6  C18 UNL     1      22.147   0.171  53.289  1.00  0.00     0.103 C 
HETATM    7  N4  UNL     1      22.075  -0.322  54.358  1.00  0.00    -0.191 NA
HETATM    8  C19 UNL     1      21.309   0.235  51.212  1.00  0.00     0.143 C 
HETATM    9  N5  UNL     1      20.982   0.477  49.843  1.00  0.00    -0.247 NA
HETATM   10  C20 UNL     1      21.341   1.358  48.940  1.00  0.00     0.258 C 
HETATM   11  O2  UNL     1      22.194   2.466  48.867  1.00  0.00    -0.303 OA
HETATM   12  C21 UNL     1      23.227   2.933  49.696  1.00  0.00     0.091 A 
HETATM   13  C22 UNL     1      23.946   3.894  49.136  1.00  0.00     0.067 A 
ENDROOT
BRANCH   4  14
HETATM   14  N3  UNL     1      24.128   1.850  53.125  1.00  0.00    -0.354 N 
HETATM   15  H13 UNL     1      23.823   2.415  53.947  1.00  0.00     0.166 HD
BRANCH  14  16
HETATM   16  C11 UNL     1      25.405   1.159  53.111  1.00  0.00     0.033 A 
HETATM   17  C12 UNL     1      25.417  -0.108  52.562  1.00  0.00     0.029 A 
HETATM   18  C13 UNL     1      26.635  -0.745  52.562  1.00  0.00     0.004 A 
HETATM   19  C14 UNL     1      27.733  -0.109  53.088  1.00  0.00     0.019 A 
HETATM   20  C15 UNL     1      27.715   1.151  53.634  1.00  0.00     0.013 A 
HETATM   21 BR1  UNL     1      29.277   1.971  54.347  1.00  0.00    -0.051 Br
HETATM   22  C16 UNL     1      26.483   1.828  53.647  1.00  0.00     0.048 A 
ENDBRANCH  14  16
ENDBRANCH   4  14
BRANCH   1  23
HETATM   23  N2  UNL     1      26.023   5.231  50.088  1.00  0.00    -0.324 N 
HETATM   24  C6  UNL     1      25.495   6.545  50.072  1.00  0.00     0.245 C 
HETATM   25  O1  UNL     1      24.234   6.477  50.098  1.00  0.00    -0.268 OA
HETATM   26  H11 UNL     1      27.075   5.076  50.069  1.00  0.00     0.169 HD
BRANCH  24  27
HETATM   27  C5  UNL     1      26.318   7.738  50.030  1.00  0.00     0.072 C 
HETATM   28  C4  UNL     1      27.159   8.077  49.081  1.00  0.00     0.008 C 
BRANCH  28  29
HETATM   29  C3  UNL     1      27.517   7.396  47.830  1.00  0.00     0.299 C 
BRANCH  29  30
HETATM   30  N1  UNL     1      28.920   7.038  47.746  1.00  0.00     0.083 N 
HETATM   31  C1  UNL     1      29.055   5.675  48.229  1.00  0.00     0.309 C 
HETATM   32  C2  UNL     1      29.785   7.878  48.516  1.00  0.00     0.309 C 
ENDBRANCH  29  30
ENDBRANCH  28  29
ENDBRANCH  24  27
ENDBRANCH   1  23
TORSDOF 6
ENDMDL
MODEL 4
REMARK VINA RESULT:      -8.1      3.414      6.614
REMARK  6 active torsions:
REMARK  status: ('A' for Active; 'I' for Inactive)
REMARK    1  A    between atoms: N1_2  and  C3_4 
REMARK    2  A    between atoms: C3_4  and  C4_5 
REMARK    3  A    between atoms: C5_6  and  C6_7 
REMARK       I    between atoms: C6_7  and  N2_9 
REMARK    4  A    between atoms: N2_9  and  C7_10 
REMARK    5  A    between atoms: C10_13  and  N3_14 
REMARK    6  A    between atoms: N3_14  and  C11_15 
ROOT
HETATM    1  C7  UNL     1      21.359   0.085  52.245  1.00  0.00     0.038 A 
HETATM    2  C8  UNL     1      22.463   0.663  51.860  1.00  0.00     0.046 A 
HETATM    3  C9  UNL     1      23.535   0.414  52.819  1.00  0.00     0.028 A 
HETATM    4  C10 UNL     1      24.777   0.879  52.707  1.00  0.00     0.068 C 
HETATM    5  C17 UNL     1      25.952   0.726  53.557  1.00  0.00     0.089 C 
HETATM    6  C18 UNL     1      27.002   1.549  53.033  1.00  0.00     0.103 C 
HETATM    7  N4  UNL     1      27.878   2.219  52.615  1.00  0.00    -0.191 NA
HETATM    8  C19 UNL     1      26.367   0.098  54.618  1.00  0.00     0.143 C 
HETATM    9  N5  UNL     1      25.708  -0.826  55.484  1.00  0.00    -0.247 NA
HETATM   10  C20 UNL     1      24.476  -1.255  55.628  1.00  0.00     0.258 C 
HETATM   11  O2  UNL     1      23.232  -1.028  55.026  1.00  0.00    -0.303 OA
HETATM   12  C21 UNL     1      22.851  -0.412  53.823  1.00  0.00     0.091 A 
HETATM   13  C22 UNL     1      21.579  -0.621  53.516  1.00  0.00     0.067 A 
ENDROOT
BRANCH   4  14
HETATM   14  N3  UNL     1      24.891   1.652  51.516  1.00  0.00    -0.354 N 
HETATM   15  H13 UNL     1      25.339   1.253  50.663  1.00  0.00     0.166 HD
BRANCH  14  16
HETATM   16  C11 UNL     1      24.366   3.006  51.537  1.00  0.00     0.033 A 
HETATM   17  C12 UNL     1      24.033   3.522  52.773  1.00  0.00     0.029 A 
HETATM   18  C13 UNL     1      23.535   4.803  52.768  1.00  0.00     0.004 A 
HETATM   19  C14 UNL     1      23.401   5.475  51.578  1.00  0.00     0.019 A 
HETATM   20  C15 UNL     1      23.733   4.956  50.351  1.00  0.00     0.013 A 
HETATM   21 BR1  UNL     1      23.521   5.944  48.738  1.00  0.00    -0.051 Br
HETATM   22  C16 UNL     1      24.246   3.647  50.324  1.00  0.00     0.048 A 
ENDBRANCH  14  16
ENDBRANCH   4  14
BRANCH   1  23
HETATM   23  N2  UNL     1      20.182   0.216  51.429  1.00  0.00    -0.324 N 
HETATM   24  C6  UNL     1      19.430   1.355  51.807  1.00  0.00     0.245 C 
HETATM   25  O1  UNL     1      20.020   1.932  52.764  1.00  0.00    -0.268 OA
HETATM   26  H11 UNL     1      19.847  -0.408  50.634  1.00  0.00     0.169 HD
BRANCH  24  27
HETATM   27  C5  UNL     1      18.191   1.746  51.164  1.00  0.00     0.072 C 
HETATM   28  C4  UNL     1      18.058   2.585  50.163  1.00  0.00     0.008 C 
BRANCH  28  29
HETATM   29  C3  UNL     1      19.063   3.352  49.415  1.00  0.00     0.299 C 
BRANCH  29  30
HETATM   30  N1  UNL     1      19.683   2.601  48.341  1.00  0.00     0.083 N 
HETATM   31  C1  UNL     1      21.099   2.490  48.644  1.00  0.00     0.309 C 
HETATM   32  C2  UNL     1      19.542   3.201  47.050  1.00  0.00     0.309 C 
ENDBRANCH  29  30
ENDBRANCH  28  29
ENDBRANCH  24  27
ENDBRANCH   1  23
TORSDOF 6
ENDMDL
MODEL 5
REMARK VINA RESULT:      -8.0      3.311      7.709
REMARK  6 active torsions:
REMARK  status: ('A' for Active; 'I' for Inactive)
REMARK    1  A    between atoms: N1_2  and  C3_4 
REMARK    2  A    between atoms: C3_4  and  C4_5 
REMARK    3  A    between atoms: C5_6  and  C6_7 
REMARK       I    between atoms: C6_7  and  N2_9 
REMARK    4  A    between atoms: N2_9  and  C7_10 
REMARK    5  A    between atoms: C10_13  and  N3_14 
REMARK    6  A    between atoms: N3_14  and  C11_15 
ROOT
HETATM    1  C7  UNL     1      21.403   0.098  52.233  1.00  0.00     0.038 A 
HETATM    2  C8  UNL     1      22.505   0.679  51.850  1.00  0.00     0.046 A 
HETATM    3  C9  UNL     1      23.577   0.435  52.811  1.00  0.00     0.028 A 
HETATM    4  C10 UNL     1      24.817   0.903  52.700  1.00  0.00     0.068 C 
HETATM    5  C17 UNL     1      25.991   0.755  53.552  1.00  0.00     0.089 C 
HETATM    6  C18 UNL     1      27.040   1.581  53.029  1.00  0.00     0.103 C 
HETATM    7  N4  UNL     1      27.914   2.254  52.612  1.00  0.00    -0.191 NA
HETATM    8  C19 UNL     1      26.407   0.130  54.615  1.00  0.00     0.143 C 
HETATM    9  N5  UNL     1      25.749  -0.796  55.481  1.00  0.00    -0.247 NA
HETATM   10  C20 UNL     1      24.519  -1.228  55.623  1.00  0.00     0.258 C 
HETATM   11  O2  UNL     1      23.275  -1.006  55.019  1.00  0.00    -0.303 OA
HETATM   12  C21 UNL     1      22.894  -0.393  53.815  1.00  0.00     0.091 A 
HETATM   13  C22 UNL     1      21.623  -0.606  53.505  1.00  0.00     0.067 A 
ENDROOT
BRANCH   4  14
HETATM   14  N3  UNL     1      24.930   1.676  51.509  1.00  0.00    -0.354 N 
HETATM   15  H13 UNL     1      25.324   1.257  50.638  1.00  0.00     0.166 HD
BRANCH  14  16
HETATM   16  C11 UNL     1      24.483   3.056  51.553  1.00  0.00     0.033 A 
HETATM   17  C12 UNL     1      23.991   3.509  52.761  1.00  0.00     0.029 A 
HETATM   18  C13 UNL     1      23.571   4.818  52.779  1.00  0.00     0.004 A 
HETATM   19  C14 UNL     1      23.660   5.575  51.637  1.00  0.00     0.019 A 
HETATM   20  C15 UNL     1      24.150   5.119  50.438  1.00  0.00     0.013 A 
HETATM   21 BR1  UNL     1      24.245   6.225  48.893  1.00  0.00    -0.051 Br
HETATM   22  C16 UNL     1      24.588   3.784  50.389  1.00  0.00     0.048 A 
ENDBRANCH  14  16
ENDBRANCH   4  14
BRANCH   1  23
HETATM   23  N2  UNL     1      20.226   0.223  51.415  1.00  0.00    -0.324 N 
HETATM   24  C6  UNL     1      19.455   1.343  51.810  1.00  0.00     0.245 C 
HETATM   25  O1  UNL     1      20.031   1.911  52.781  1.00  0.00    -0.268 OA
HETATM   26  H11 UNL     1      19.905  -0.391  50.608  1.00  0.00     0.169 HD
BRANCH  24  27
HETATM   27  C5  UNL     1      18.211   1.725  51.170  1.00  0.00     0.072 C 
HETATM   28  C4  UNL     1      17.206   0.934  50.877  1.00  0.00     0.008 C 
BRANCH  28  29
HETATM   29  C3  UNL     1      17.027  -0.508  51.089  1.00  0.00     0.299 C 
BRANCH  29  30
HETATM   30  N1  UNL     1      16.429  -0.835  52.369  1.00  0.00     0.083 N 
HETATM   31  C1  UNL     1      17.465  -1.426  53.199  1.00  0.00     0.309 C 
HETATM   32  C2  UNL     1      15.337  -1.754  52.288  1.00  0.00     0.309 C 
ENDBRANCH  29  30
ENDBRANCH  28  29
ENDBRANCH  24  27
ENDBRANCH   1  23
TORSDOF 6
ENDMDL
MODEL 6
REMARK VINA RESULT:      -7.9      2.991      6.878
REMARK  6 active torsions:
REMARK  status: ('A' for Active; 'I' for Inactive)
REMARK    1  A    between atoms: N1_2  and  C3_4 
REMARK    2  A    between atoms: C3_4  and  C4_5 
REMARK    3  A    between atoms: C5_6  and  C6_7 
REMARK       I    between atoms: C6_7  and  N2_9 
REMARK    4  A    between atoms: N2_9  and  C7_10 
REMARK    5  A    between atoms: C10_13  and  N3_14 
REMARK    6  A    between atoms: N3_14  and  C11_15 
ROOT
HETATM    1  C7  UNL     1      24.723   2.412  52.613  1.00  0.00     0.038 A 
HETATM    2  C8  UNL     1      24.556   2.974  51.448  1.00  0.00     0.046 A 
HETATM    3  C9  UNL     1      23.354   2.463  50.796  1.00  0.00     0.028 A 
HETATM    4  C10 UNL     1      22.923   2.839  49.595  1.00  0.00     0.068 C 
HETATM    5  C17 UNL     1      21.762   2.439  48.810  1.00  0.00     0.089 C 
HETATM    6  C18 UNL     1      21.847   3.061  47.521  1.00  0.00     0.103 C 
HETATM    7  N4  UNL     1      21.900   3.566  46.457  1.00  0.00    -0.191 NA
HETATM    8  C19 UNL     1      20.681   1.717  48.884  1.00  0.00     0.143 C 
HETATM    9  N5  UNL     1      20.153   0.918  49.943  1.00  0.00    -0.247 NA
HETATM   10  C20 UNL     1      20.591   0.507  51.109  1.00  0.00     0.258 C 
HETATM   11  O2  UNL     1      21.755   0.641  51.875  1.00  0.00    -0.303 OA
HETATM   12  C21 UNL     1      22.858   1.506  51.795  1.00  0.00     0.091 A 
HETATM   13  C22 UNL     1      23.636   1.454  52.866  1.00  0.00     0.067 A 
ENDROOT
BRANCH   4  14
HETATM   14  N3  UNL     1      23.814   3.809  49.052  1.00  0.00    -0.354 N 
HETATM   15  H13 UNL     1      24.525   3.538  48.338  1.00  0.00     0.166 HD
BRANCH  14  16
HETATM   16  C11 UNL     1      23.698   5.175  49.528  1.00  0.00     0.033 A 
HETATM   17  C12 UNL     1      22.450   5.576  49.960  1.00  0.00     0.029 A 
HETATM   18  C13 UNL     1      22.362   6.874  50.404  1.00  0.00     0.004 A 
HETATM   19  C14 UNL     1      23.479   7.672  50.392  1.00  0.00     0.019 A 
HETATM   20  C15 UNL     1      24.718   7.268  49.960  1.00  0.00     0.013 A 
HETATM   21 BR1  UNL     1      26.226   8.430  49.972  1.00  0.00    -0.051 Br
HETATM   22  C16 UNL     1      24.840   5.945  49.502  1.00  0.00     0.048 A 
ENDBRANCH  14  16
ENDBRANCH   4  14
BRANCH   1  23
HETATM   23  N2  UNL     1      25.858   2.785  53.413  1.00  0.00    -0.324 N 
HETATM   24  C6  UNL     1      27.034   2.146  52.949  1.00  0.00     0.245 C 
HETATM   25  O1  UNL     1      26.738   1.423  51.955  1.00  0.00    -0.268 OA
HETATM   26  H11 UNL     1      25.899   3.441  54.250  1.00  0.00     0.169 HD
BRANCH  24  27
HETATM   27  C5  UNL     1      28.337   2.328  53.557  1.00  0.00     0.072 C 
HETATM   28  C4  UNL     1      28.954   1.487  54.354  1.00  0.00     0.008 C 
BRANCH  28  29
HETATM   29  C3  UNL     1      28.547   0.169  54.858  1.00  0.00     0.299 C 
BRANCH  29  30
HETATM   30  N1  UNL     1      29.074  -0.936  54.081  1.00  0.00     0.083 N 
HETATM   31  C1  UNL     1      30.290  -0.476  53.433  1.00  0.00     0.309 C 
HETATM   32  C2  UNL     1      28.181  -1.422  53.075  1.00  0.00     0.309 C 
ENDBRANCH  29  30
ENDBRANCH  28  29
ENDBRANCH  24  27
ENDBRANCH   1  23
TORSDOF 6
ENDMDL
MODEL 7
REMARK VINA RESULT:      -7.9      2.888      4.763
REMARK  6 active torsions:
REMARK  status: ('A' for Active; 'I' for Inactive)
REMARK    1  A    between atoms: N1_2  and  C3_4 
REMARK    2  A    between atoms: C3_4  and  C4_5 
REMARK    3  A    between atoms: C5_6  and  C6_7 
REMARK       I    between atoms: C6_7  and  N2_9 
REMARK    4  A    between atoms: N2_9  and  C7_10 
REMARK    5  A    between atoms: C10_13  and  N3_14 
REMARK    6  A    between atoms: N3_14  and  C11_15 
ROOT
HETATM    1  C7  UNL     1      25.685   2.627  51.659  1.00  0.00     0.038 A 
HETATM    2  C8  UNL     1      24.432   2.937  51.476  1.00  0.00     0.046 A 
HETATM    3  C9  UNL     1      23.560   1.949  52.104  1.00  0.00     0.028 A 
HETATM    4  C10 UNL     1      22.230   1.987  52.084  1.00  0.00     0.068 C 
HETATM    5  C17 UNL     1      21.224   1.098  52.652  1.00  0.00     0.089 C 
HETATM    6  C18 UNL     1      19.931   1.537  52.217  1.00  0.00     0.103 C 
HETATM    7  N4  UNL     1      18.859   1.886  51.870  1.00  0.00    -0.191 NA
HETATM    8  C19 UNL     1      21.103   0.052  53.418  1.00  0.00     0.143 C 
HETATM    9  N5  UNL     1      22.082  -0.740  54.092  1.00  0.00    -0.247 NA
HETATM   10  C20 UNL     1      23.391  -0.812  54.083  1.00  0.00     0.258 C 
HETATM   11  O2  UNL     1      24.451  -0.171  53.429  1.00  0.00    -0.303 OA
HETATM   12  C21 UNL     1      24.536   1.015  52.682  1.00  0.00     0.091 A 
HETATM   13  C22 UNL     1      25.785   1.384  52.438  1.00  0.00     0.067 A 
ENDROOT
BRANCH   4  14
HETATM   14  N3  UNL     1      21.798   3.133  51.357  1.00  0.00    -0.354 N 
HETATM   15  H13 UNL     1      21.399   3.959  51.853  1.00  0.00     0.166 HD
BRANCH  14  16
HETATM   16  C11 UNL     1      21.930   3.105  49.911  1.00  0.00     0.033 A 
HETATM   17  C12 UNL     1      21.916   1.862  49.312  1.00  0.00     0.029 A 
HETATM   18  C13 UNL     1      22.045   1.859  47.943  1.00  0.00     0.004 A 
HETATM   19  C14 UNL     1      22.176   3.051  47.272  1.00  0.00     0.019 A 
HETATM   20  C15 UNL     1      22.190   4.284  47.874  1.00  0.00     0.013 A 
HETATM   21 BR1  UNL     1      22.375   5.897  46.880  1.00  0.00    -0.051 Br
HETATM   22  C16 UNL     1      22.058   4.319  49.273  1.00  0.00     0.048 A 
ENDBRANCH  14  16
ENDBRANCH   4  14
BRANCH   1  23
HETATM   23  N2  UNL     1      26.703   3.483  51.112  1.00  0.00    -0.324 N 
HETATM   24  C6  UNL     1      26.507   3.674  49.722  1.00  0.00     0.245 C 
HETATM   25  O1  UNL     1      25.484   3.026  49.363  1.00  0.00    -0.268 OA
HETATM   26  H11 UNL     1      27.521   3.950  51.607  1.00  0.00     0.169 HD
BRANCH  24  27
HETATM   27  C5  UNL     1      27.376   4.489  48.895  1.00  0.00     0.072 C 
HETATM   28  C4  UNL     1      27.151   5.720  48.499  1.00  0.00     0.008 C 
BRANCH  28  29
HETATM   29  C3  UNL     1      26.014   6.615  48.750  1.00  0.00     0.299 C 
BRANCH  29  30
HETATM   30  N1  UNL     1      26.072   7.278  50.038  1.00  0.00     0.083 N 
HETATM   31  C1  UNL     1      24.836   6.982  50.741  1.00  0.00     0.309 C 
HETATM   32  C2  UNL     1      26.218   8.698  49.959  1.00  0.00     0.309 C 
ENDBRANCH  29  30
ENDBRANCH  28  29
ENDBRANCH  24  27
ENDBRANCH   1  23
TORSDOF 6
ENDMDL
MODEL 8
REMARK VINA RESULT:      -7.7      3.160      5.016
REMARK  6 active torsions:
REMARK  status: ('A' for Active; 'I' for Inactive)
REMARK    1  A    between atoms: N1_2  and  C3_4 
REMARK    2  A    between atoms: C3_4  and  C4_5 
REMARK    3  A    between atoms: C5_6  and  C6_7 
REMARK       I    between atoms: C6_7  and  N2_9 
REMARK    4  A    between atoms: N2_9  and  C7_10 
REMARK    5  A    between atoms: C10_13  and  N3_14 
REMARK    6  A    between atoms: N3_14  and  C11_15 
ROOT
HETATM    1  C7  UNL     1      25.374   3.518  51.178  1.00  0.00     0.038 A 
HETATM    2  C8  UNL     1      24.397   3.022  51.885  1.00  0.00     0.046 A 
HETATM    3  C9  UNL     1      24.756   1.708  52.409  1.00  0.00     0.028 A 
HETATM    4  C10 UNL     1      23.964   0.948  53.161  1.00  0.00     0.068 C 
HETATM    5  C17 UNL     1      24.163  -0.366  53.760  1.00  0.00     0.089 C 
HETATM    6  C18 UNL     1      22.931  -0.781  54.364  1.00  0.00     0.103 C 
HETATM    7  N4  UNL     1      21.926  -1.138  54.868  1.00  0.00    -0.191 NA
HETATM    8  C19 UNL     1      25.073  -1.280  53.935  1.00  0.00     0.143 C 
HETATM    9  N5  UNL     1      26.441  -1.336  53.530  1.00  0.00    -0.247 NA
HETATM   10  C20 UNL     1      27.215  -0.615  52.755  1.00  0.00     0.258 C 
HETATM   11  O2  UNL     1      27.093   0.532  51.960  1.00  0.00    -0.303 OA
HETATM   12  C21 UNL     1      26.116   1.537  51.878  1.00  0.00     0.091 A 
HETATM   13  C22 UNL     1      26.504   2.577  51.155  1.00  0.00     0.067 A 
ENDROOT
BRANCH   4  14
HETATM   14  N3  UNL     1      22.722   1.613  53.368  1.00  0.00    -0.354 N 
HETATM   15  H13 UNL     1      22.546   2.150  54.244  1.00  0.00     0.166 HD
BRANCH  14  16
HETATM   16  C11 UNL     1      21.720   1.513  52.323  1.00  0.00     0.033 A 
HETATM   17  C12 UNL     1      21.925   0.547  51.359  1.00  0.00     0.029 A 
HETATM   18  C13 UNL     1      20.965   0.472  50.377  1.00  0.00     0.004 A 
HETATM   19  C14 UNL     1      19.893   1.332  50.409  1.00  0.00     0.019 A 
HETATM   20  C15 UNL     1      19.695   2.291  51.371  1.00  0.00     0.013 A 
HETATM   21 BR1  UNL     1      18.185   3.450  51.353  1.00  0.00    -0.051 Br
HETATM   22  C16 UNL     1      20.660   2.391  52.388  1.00  0.00     0.048 A 
ENDBRANCH  14  16
ENDBRANCH   4  14
BRANCH   1  23
HETATM   23  N2  UNL     1      25.211   4.814  50.574  1.00  0.00    -0.324 N 
HETATM   24  C6  UNL     1      24.684   4.696  49.264  1.00  0.00     0.245 C 
HETATM   25  O1  UNL     1      24.510   3.471  49.005  1.00  0.00    -0.268 OA
HETATM   26  H11 UNL     1      25.429   5.773  50.979  1.00  0.00     0.169 HD
BRANCH  24  27
HETATM   27  C5  UNL     1      24.411   5.831  48.406  1.00  0.00     0.072 C 
HETATM   28  C4  UNL     1      23.269   6.467  48.287  1.00  0.00     0.008 C 
BRANCH  28  29
HETATM   29  C3  UNL     1      21.976   6.246  48.946  1.00  0.00     0.299 C 
BRANCH  29  30
HETATM   30  N1  UNL     1      21.872   6.880  50.245  1.00  0.00     0.083 N 
HETATM   31  C1  UNL     1      21.629   5.836  51.225  1.00  0.00     0.309 C 
HETATM   32  C2  UNL     1      20.821   7.845  50.343  1.00  0.00     0.309 C 
ENDBRANCH  29  30
ENDBRANCH  28  29
ENDBRANCH  24  27
ENDBRANCH   1  23
TORSDOF 6
ENDMDL
MODEL 9
REMARK VINA RESULT:      -7.6      2.842      4.717
REMARK  6 active torsions:
REMARK  status: ('A' for Active; 'I' for Inactive)
REMARK    1  A    between atoms: N1_2  and  C3_4 
REMARK    2  A    between atoms: C3_4  and  C4_5 
REMARK    3  A    between atoms: C5_6  and  C6_7 
REMARK       I    between atoms: C6_7  and  N2_9 
REMARK    4  A    between atoms: N2_9  and  C7_10 
REMARK    5  A    between atoms: C10_13  and  N3_14 
REMARK    6  A    between atoms: N3_14  and  C11_15 
ROOT
HETATM    1  C7  UNL     1      25.199   3.546  51.353  1.00  0.00     0.038 A 
HETATM    2  C8  UNL     1      24.229   3.002  52.035  1.00  0.00     0.046 A 
HETATM    3  C9  UNL     1      24.617   1.680  52.517  1.00  0.00     0.028 A 
HETATM    4  C10 UNL     1      23.838   0.875  53.235  1.00  0.00     0.068 C 
HETATM    5  C17 UNL     1      24.064  -0.453  53.792  1.00  0.00     0.089 C 
HETATM    6  C18 UNL     1      22.838  -0.919  54.370  1.00  0.00     0.103 C 
HETATM    7  N4  UNL     1      21.838  -1.318  54.852  1.00  0.00    -0.191 NA
HETATM    8  C19 UNL     1      24.996  -1.350  53.943  1.00  0.00     0.143 C 
HETATM    9  N5  UNL     1      26.368  -1.358  53.549  1.00  0.00    -0.247 NA
HETATM   10  C20 UNL     1      27.130  -0.592  52.806  1.00  0.00     0.258 C 
HETATM   11  O2  UNL     1      26.985   0.578  52.049  1.00  0.00    -0.303 OA
HETATM   12  C21 UNL     1      25.984   1.561  51.993  1.00  0.00     0.091 A 
HETATM   13  C22 UNL     1      26.352   2.635  51.309  1.00  0.00     0.067 A 
ENDROOT
BRANCH   4  14
HETATM   14  N3  UNL     1      22.578   1.502  53.454  1.00  0.00    -0.354 N 
HETATM   15  H13 UNL     1      22.365   1.968  54.362  1.00  0.00     0.166 HD
BRANCH  14  16
HETATM   16  C11 UNL     1      21.608   1.465  52.373  1.00  0.00     0.033 A 
HETATM   17  C12 UNL     1      21.823   0.531  51.381  1.00  0.00     0.029 A 
HETATM   18  C13 UNL     1      20.895   0.515  50.367  1.00  0.00     0.004 A 
HETATM   19  C14 UNL     1      19.843   1.399  50.396  1.00  0.00     0.019 A 
HETATM   20  C15 UNL     1      19.636   2.327  51.386  1.00  0.00     0.013 A 
HETATM   21 BR1  UNL     1      18.155   3.522  51.363  1.00  0.00    -0.051 Br
HETATM   22  C16 UNL     1      20.568   2.366  52.437  1.00  0.00     0.048 A 
ENDBRANCH  14  16
ENDBRANCH   4  14
BRANCH   1  23
HETATM   23  N2  UNL     1      25.008   4.857  50.792  1.00  0.00    -0.324 N 
HETATM   24  C6  UNL     1      24.794   4.780  49.394  1.00  0.00     0.245 C 
HETATM   25  O1  UNL     1      24.835   3.566  49.043  1.00  0.00    -0.268 OA
HETATM   26  H11 UNL     1      25.012   5.801  51.282  1.00  0.00     0.169 HD
BRANCH  24  27
HETATM   27  C5  UNL     1      24.572   5.939  48.553  1.00  0.00     0.072 C 
HETATM   28  C4  UNL     1      25.439   6.885  48.277  1.00  0.00     0.008 C 
BRANCH  28  29
HETATM   29  C3  UNL     1      26.831   7.064  48.707  1.00  0.00     0.299 C 
BRANCH  29  30
HETATM   30  N1  UNL     1      27.233   8.453  48.807  1.00  0.00     0.083 N 
HETATM   31  C1  UNL     1      28.622   8.540  48.390  1.00  0.00     0.309 C 
HETATM   32  C2  UNL     1      27.121   9.002  50.123  1.00  0.00     0.309 C 
ENDBRANCH  29  30
ENDBRANCH  28  29
ENDBRANCH  24  27
ENDBRANCH   1  23
TORSDOF 6
ENDMDL
