MODEL 1
REMARK VINA RESULT:      -8.7      0.000      0.000
REMARK  1 active torsions:
REMARK  status: ('A' for Active; 'I' for Inactive)
REMARK       I    between atoms: C2_2  and  N1_4 
REMARK    1  A    between atoms: N1_4  and  C3_5 
ROOT
HETATM    1  C3  UNL     1      22.344   5.123  48.468  1.00  0.00     0.034 C 
HETATM    2  C4  UNL     1      22.862   6.328  48.078  1.00  0.00     0.032 C 
HETATM    3  C5  UNL     1      24.157   6.681  48.294  1.00  0.00     0.034 C 
HETATM    4  C6  UNL     1      25.162   5.862  48.705  1.00  0.00     0.064 C 
HETATM    5  N2  UNL     1      24.478   4.968  49.503  1.00  0.00    -0.242 NA
HETATM    6  C7  UNL     1      24.085   5.449  50.733  1.00  0.00     0.234 C 
HETATM    7  N3  UNL     1      23.470   4.573  51.532  1.00  0.00    -0.241 NA
HETATM    8  C8  UNL     1      23.130   3.349  51.152  1.00  0.00     0.071 C 
HETATM    9  C9  UNL     1      22.224   3.250  50.139  1.00  0.00     0.035 C 
HETATM   10  C10 UNL     1      21.769   4.223  49.325  1.00  0.00     0.032 C 
HETATM   11  C11 UNL     1      23.689   2.143  51.803  1.00  0.00     0.024 A 
HETATM   12  C12 UNL     1      24.735   1.309  51.934  1.00  0.00     0.064 A 
HETATM   13  C13 UNL     1      24.441   0.229  52.909  1.00  0.00     0.116 A 
HETATM   14  C14 UNL     1      23.043   0.521  53.344  1.00  0.00     0.019 A 
HETATM   15 CL1  UNL     1      22.423  -0.625  54.506  1.00  0.00    -0.089 Cl
HETATM   16  C15 UNL     1      22.635   1.622  52.699  1.00  0.00     0.036 A 
HETATM   17  O2  UNL     1      25.891   1.498  51.220  1.00  0.00    -0.354 OA
HETATM   18  C16 UNL     1      26.557   2.753  51.038  1.00  0.00     0.179 C 
HETATM   19  C17 UNL     1      26.506   3.110  49.580  1.00  0.00     0.054 C 
HETATM   20  C18 UNL     1      27.146   4.350  49.212  1.00  0.00    -0.016 C 
HETATM   21  C19 UNL     1      26.542   5.473  48.848  1.00  0.00    -0.037 C 
HETATM   22  C20 UNL     1      27.161   6.741  48.452  1.00  0.00     0.050 C 
ENDROOT
BRANCH   1  23
HETATM   23  N1  UNL     1      22.515   4.410  47.249  1.00  0.00    -0.328 N 
HETATM   24  C2  UNL     1      21.395   4.542  46.368  1.00  0.00     0.218 C 
HETATM   25  C1  UNL     1      21.294   3.901  45.012  1.00  0.00     0.117 C 
HETATM   26  O1  UNL     1      20.470   5.276  46.859  1.00  0.00    -0.274 OA
HETATM   27  H4  UNL     1      23.313   3.825  46.917  1.00  0.00     0.169 HD
ENDBRANCH   1  23
TORSDOF 1
ENDMDL
MODEL 2
REMARK VINA RESULT:      -8.4      2.695      4.546
REMARK  1 active torsions:
REMARK  status: ('A' for Active; 'I' for Inactive)
REMARK       I    between atoms: C2_2  and  N1_4 
REMARK    1  A    between atoms: N1_4  and  C3_5 
ROOT
HETATM    1  C3  UNL     1      26.150   6.071  48.717  1.00  0.00     0.034 C 
HETATM    2  C4  UNL     1      25.244   6.821  48.019  1.00  0.00     0.032 C 
HETATM    3  C5  UNL     1      23.928   6.890  48.351  1.00  0.00     0.034 C 
HETATM    4  C6  UNL     1      23.358   6.436  49.500  1.00  0.00     0.064 C 
HETATM    5  N2  UNL     1      24.156   5.350  49.791  1.00  0.00    -0.242 NA
HETATM    6  C7  UNL     1      23.955   4.237  49.005  1.00  0.00     0.234 C 
HETATM    7  N3  UNL     1      24.686   3.163  49.317  1.00  0.00    -0.241 NA
HETATM    8  C8  UNL     1      25.644   3.171  50.234  1.00  0.00     0.071 C 
HETATM    9  C9  UNL     1      26.711   3.984  50.000  1.00  0.00     0.035 C 
HETATM   10  C10 UNL     1      26.845   4.941  49.061  1.00  0.00     0.032 C 
HETATM   11  C11 UNL     1      25.573   2.325  51.447  1.00  0.00     0.024 A 
HETATM   12  C12 UNL     1      25.046   2.142  52.670  1.00  0.00     0.064 A 
HETATM   13  C13 UNL     1      25.558   0.895  53.293  1.00  0.00     0.116 A 
HETATM   14  C14 UNL     1      26.495   0.351  52.266  1.00  0.00     0.019 A 
HETATM   15 CL1  UNL     1      27.266  -1.139  52.751  1.00  0.00    -0.089 Cl
HETATM   16  C15 UNL     1      26.486   1.185  51.219  1.00  0.00     0.036 A 
HETATM   17  O2  UNL     1      24.158   3.040  53.205  1.00  0.00    -0.354 OA
HETATM   18  C16 UNL     1      23.050   3.625  52.510  1.00  0.00     0.179 C 
HETATM   19  C17 UNL     1      23.292   5.103  52.392  1.00  0.00     0.054 C 
HETATM   20  C18 UNL     1      22.261   5.859  51.723  1.00  0.00    -0.016 C 
HETATM   21  C19 UNL     1      22.336   6.402  50.515  1.00  0.00    -0.037 C 
HETATM   22  C20 UNL     1      21.317   7.188  49.816  1.00  0.00     0.050 C 
ENDROOT
BRANCH   1  23
HETATM   23  N1  UNL     1      26.646   7.083  49.585  1.00  0.00    -0.328 N 
HETATM   24  C2  UNL     1      27.596   7.943  48.948  1.00  0.00     0.218 C 
HETATM   25  C1  UNL     1      28.286   9.099  49.617  1.00  0.00     0.117 C 
HETATM   26  O1  UNL     1      27.804   7.623  47.727  1.00  0.00    -0.274 OA
HETATM   27  H4  UNL     1      26.423   7.282  50.585  1.00  0.00     0.169 HD
ENDBRANCH   1  23
TORSDOF 1
ENDMDL
MODEL 3
REMARK VINA RESULT:      -8.3      3.141      7.174
REMARK  1 active torsions:
REMARK  status: ('A' for Active; 'I' for Inactive)
REMARK       I    between atoms: C2_2  and  N1_4 
REMARK    1  A    between atoms: N1_4  and  C3_5 
ROOT
HETATM    1  C3  UNL     1      25.097   0.705  53.186  1.00  0.00     0.034 C 
HETATM    2  C4  UNL     1      24.236   0.024  54.001  1.00  0.00     0.032 C 
HETATM    3  C5  UNL     1      22.900  -0.055  53.766  1.00  0.00     0.034 C 
HETATM    4  C6  UNL     1      22.256   0.314  52.626  1.00  0.00     0.064 C 
HETATM    5  N2  UNL     1      23.039   1.364  52.196  1.00  0.00    -0.242 NA
HETATM    6  C7  UNL     1      22.901   2.538  52.903  1.00  0.00     0.234 C 
HETATM    7  N3  UNL     1      23.617   3.575  52.457  1.00  0.00    -0.241 NA
HETATM    8  C8  UNL     1      24.509   3.482  51.480  1.00  0.00     0.071 C 
HETATM    9  C9  UNL     1      25.584   2.676  51.706  1.00  0.00     0.035 C 
HETATM   10  C10 UNL     1      25.775   1.795  52.706  1.00  0.00     0.032 C 
HETATM   11  C11 UNL     1      24.360   4.230  50.212  1.00  0.00     0.024 A 
HETATM   12  C12 UNL     1      23.752   4.322  49.017  1.00  0.00     0.064 A 
HETATM   13  C13 UNL     1      24.228   5.510  48.263  1.00  0.00     0.116 A 
HETATM   14  C14 UNL     1      25.237   6.122  49.177  1.00  0.00     0.019 A 
HETATM   15 CL1  UNL     1      25.984   7.559  48.523  1.00  0.00    -0.089 Cl
HETATM   16  C15 UNL     1      25.294   5.373  50.285  1.00  0.00     0.036 A 
HETATM   17  O2  UNL     1      22.822   3.397  48.617  1.00  0.00    -0.354 OA
HETATM   18  C16 UNL     1      21.761   2.882  49.430  1.00  0.00     0.179 C 
HETATM   19  C17 UNL     1      22.000   1.415  49.648  1.00  0.00     0.054 C 
HETATM   20  C18 UNL     1      21.012   0.728  50.445  1.00  0.00    -0.016 C 
HETATM   21  C19 UNL     1      21.166   0.281  51.684  1.00  0.00    -0.037 C 
HETATM   22  C20 UNL     1      20.192  -0.435  52.511  1.00  0.00     0.050 C 
ENDROOT
BRANCH   1  23
HETATM   23  N1  UNL     1      25.525  -0.379  52.370  1.00  0.00    -0.328 N 
HETATM   24  C2  UNL     1      26.547  -1.168  52.987  1.00  0.00     0.218 C 
HETATM   25  C1  UNL     1      27.189  -2.375  52.362  1.00  0.00     0.117 C 
HETATM   26  O1  UNL     1      26.866  -0.735  54.147  1.00  0.00    -0.274 OA
HETATM   27  H4  UNL     1      25.210  -0.672  51.418  1.00  0.00     0.169 HD
ENDBRANCH   1  23
TORSDOF 1
ENDMDL
MODEL 4
REMARK VINA RESULT:      -8.1      2.645      3.794
REMARK  1 active torsions:
REMARK  status: ('A' for Active; 'I' for Inactive)
REMARK       I    between atoms: C2_2  and  N1_4 
REMARK    1  A    between atoms: N1_4  and  C3_5 
ROOT
HETATM    1  C3  UNL     1      21.139   3.066  51.910  1.00  0.00     0.034 C 
HETATM    2  C4  UNL     1      20.519   4.211  51.490  1.00  0.00     0.032 C 
HETATM    3  C5  UNL     1      21.156   5.183  50.786  1.00  0.00     0.034 C 
HETATM    4  C6  UNL     1      22.387   5.093  50.213  1.00  0.00     0.064 C 
HETATM    5  N2  UNL     1      23.033   4.241  51.084  1.00  0.00    -0.242 NA
HETATM    6  C7  UNL     1      23.405   4.794  52.290  1.00  0.00     0.234 C 
HETATM    7  N3  UNL     1      24.080   3.990  53.116  1.00  0.00    -0.241 NA
HETATM    8  C8  UNL     1      24.285   2.702  52.879  1.00  0.00     0.071 C 
HETATM    9  C9  UNL     1      23.180   1.908  52.807  1.00  0.00     0.035 C 
HETATM   10  C10 UNL     1      21.886   2.277  52.744  1.00  0.00     0.032 C 
HETATM   11  C11 UNL     1      25.646   2.143  52.717  1.00  0.00     0.024 A 
HETATM   12  C12 UNL     1      26.716   1.982  51.919  1.00  0.00     0.064 A 
HETATM   13  C13 UNL     1      27.784   1.210  52.604  1.00  0.00     0.116 A 
HETATM   14  C14 UNL     1      27.193   0.907  53.941  1.00  0.00     0.019 A 
HETATM   15 CL1  UNL     1      28.251  -0.025  54.972  1.00  0.00    -0.089 Cl
HETATM   16  C15 UNL     1      25.970   1.452  53.983  1.00  0.00     0.036 A 
HETATM   17  O2  UNL     1      26.741   2.494  50.647  1.00  0.00    -0.354 OA
HETATM   18  C16 UNL     1      26.312   3.809  50.275  1.00  0.00     0.179 C 
HETATM   19  C17 UNL     1      25.116   3.680  49.375  1.00  0.00     0.054 C 
HETATM   20  C18 UNL     1      24.554   4.918  48.891  1.00  0.00    -0.016 C 
HETATM   21  C19 UNL     1      23.407   5.467  49.267  1.00  0.00    -0.037 C 
HETATM   22  C20 UNL     1      22.802   6.711  48.784  1.00  0.00     0.050 C 
ENDROOT
BRANCH   1  23
HETATM   23  N1  UNL     1      20.780   2.216  50.827  1.00  0.00    -0.328 N 
HETATM   24  C2  UNL     1      19.495   1.609  51.001  1.00  0.00     0.218 C 
HETATM   25  C1  UNL     1      18.856   0.666  50.021  1.00  0.00     0.117 C 
HETATM   26  O1  UNL     1      18.935   1.958  52.097  1.00  0.00    -0.274 OA
HETATM   27  H4  UNL     1      21.300   1.980  49.953  1.00  0.00     0.169 HD
ENDBRANCH   1  23
TORSDOF 1
ENDMDL
MODEL 5
REMARK VINA RESULT:      -7.6      2.438      4.771
REMARK  1 active torsions:
REMARK  status: ('A' for Active; 'I' for Inactive)
REMARK       I    between atoms: C2_2  and  N1_4 
REMARK    1  A    between atoms: N1_4  and  C3_5 
ROOT
HETATM    1  C3  UNL     1      23.907   4.149  49.351  1.00  0.00     0.034 C 
HETATM    2  C4  UNL     1      23.442   4.627  48.156  1.00  0.00     0.032 C 
HETATM    3  C5  UNL     1      22.121   4.669  47.840  1.00  0.00     0.034 C 
HETATM    4  C6  UNL     1      21.078   4.469  48.691  1.00  0.00     0.064 C 
HETATM    5  N2  UNL     1      21.616   3.557  49.575  1.00  0.00    -0.242 NA
HETATM    6  C7  UNL     1      21.746   2.271  49.097  1.00  0.00     0.234 C 
HETATM    7  N3  UNL     1      22.215   1.371  49.966  1.00  0.00    -0.241 NA
HETATM    8  C8  UNL     1      22.658   1.684  51.176  1.00  0.00     0.071 C 
HETATM    9  C9  UNL     1      23.749   2.498  51.238  1.00  0.00     0.035 C 
HETATM   10  C10 UNL     1      24.328   3.200  50.245  1.00  0.00     0.032 C 
HETATM   11  C11 UNL     1      22.016   1.163  52.403  1.00  0.00     0.024 A 
HETATM   12  C12 UNL     1      20.989   1.246  53.267  1.00  0.00     0.064 A 
HETATM   13  C13 UNL     1      21.117   0.238  54.350  1.00  0.00     0.116 A 
HETATM   14  C14 UNL     1      22.392  -0.466  54.025  1.00  0.00     0.019 A 
HETATM   15 CL1  UNL     1      22.803  -1.721  55.167  1.00  0.00    -0.089 Cl
HETATM   16  C15 UNL     1      22.888   0.080  52.906  1.00  0.00     0.036 A 
HETATM   17  O2  UNL     1      19.992   2.173  53.101  1.00  0.00    -0.354 OA
HETATM   18  C16 UNL     1      19.339   2.475  51.863  1.00  0.00     0.179 C 
HETATM   19  C17 UNL     1      19.667   3.893  51.488  1.00  0.00     0.054 C 
HETATM   20  C18 UNL     1      19.078   4.373  50.261  1.00  0.00    -0.016 C 
HETATM   21  C19 UNL     1      19.708   4.604  49.118  1.00  0.00    -0.037 C 
HETATM   22  C20 UNL     1      19.144   5.107  47.863  1.00  0.00     0.050 C 
ENDROOT
BRANCH   1  23
HETATM   23  N1  UNL     1      24.001   5.382  50.055  1.00  0.00    -0.328 N 
HETATM   24  C2  UNL     1      25.249   6.049  49.841  1.00  0.00     0.218 C 
HETATM   25  C1  UNL     1      25.629   7.368  50.454  1.00  0.00     0.117 C 
HETATM   26  O1  UNL     1      26.024   5.398  49.059  1.00  0.00    -0.274 OA
HETATM   27  H4  UNL     1      23.313   5.853  50.682  1.00  0.00     0.169 HD
ENDBRANCH   1  23
TORSDOF 1
ENDMDL
MODEL 6
REMARK VINA RESULT:      -7.4      4.255      5.695
REMARK  1 active torsions:
REMARK  status: ('A' for Active; 'I' for Inactive)
REMARK       I    between atoms: C2_2  and  N1_4 
REMARK    1  A    between atoms: N1_4  and  C3_5 
ROOT
HETATM    1  C3  UNL     1      17.250   1.149  50.605  1.00  0.00     0.034 C 
HETATM    2  C4  UNL     1      16.704   2.246  49.996  1.00  0.00     0.032 C 
HETATM    3  C5  UNL     1      17.453   3.260  49.488  1.00  0.00     0.034 C 
HETATM    4  C6  UNL     1      18.800   3.256  49.301  1.00  0.00     0.064 C 
HETATM    5  N2  UNL     1      19.219   2.454  50.342  1.00  0.00    -0.242 NA
HETATM    6  C7  UNL     1      19.183   3.035  51.592  1.00  0.00     0.234 C 
HETATM    7  N3  UNL     1      19.639   2.282  52.597  1.00  0.00    -0.241 NA
HETATM    8  C8  UNL     1      19.990   1.011  52.459  1.00  0.00     0.071 C 
HETATM    9  C9  UNL     1      19.011   0.140  52.086  1.00  0.00     0.035 C 
HETATM   10  C10 UNL     1      17.771   0.416  51.639  1.00  0.00     0.032 C 
HETATM   11  C11 UNL     1      21.373   0.549  52.714  1.00  0.00     0.024 A 
HETATM   12  C12 UNL     1      22.638   0.464  52.268  1.00  0.00     0.064 A 
HETATM   13  C13 UNL     1      23.507  -0.230  53.253  1.00  0.00     0.116 A 
HETATM   14  C14 UNL     1      22.573  -0.572  54.365  1.00  0.00     0.019 A 
HETATM   15 CL1  UNL     1      23.342  -1.424  55.681  1.00  0.00    -0.089 Cl
HETATM   16  C15 UNL     1      21.358  -0.114  54.035  1.00  0.00     0.036 A 
HETATM   17  O2  UNL     1      23.000   0.974  51.048  1.00  0.00    -0.354 OA
HETATM   18  C16 UNL     1      22.612   2.254  50.537  1.00  0.00     0.179 C 
HETATM   19  C17 UNL     1      21.744   2.039  49.330  1.00  0.00     0.054 C 
HETATM   20  C18 UNL     1      21.267   3.233  48.675  1.00  0.00    -0.016 C 
HETATM   21  C19 UNL     1      20.026   3.700  48.686  1.00  0.00    -0.037 C 
HETATM   22  C20 UNL     1      19.507   4.896  48.020  1.00  0.00     0.050 C 
ENDROOT
BRANCH   1  23
HETATM   23  N1  UNL     1      17.281   0.274  49.484  1.00  0.00    -0.328 N 
HETATM   24  C2  UNL     1      16.075  -0.482  49.337  1.00  0.00     0.218 C 
HETATM   25  C1  UNL     1      15.822  -1.484  48.245  1.00  0.00     0.117 C 
HETATM   26  O1  UNL     1      15.216  -0.214  50.246  1.00  0.00    -0.274 OA
HETATM   27  H4  UNL     1      18.032   0.111  48.777  1.00  0.00     0.169 HD
ENDBRANCH   1  23
TORSDOF 1
ENDMDL
MODEL 7
REMARK VINA RESULT:      -7.3      6.701      9.124
REMARK  1 active torsions:
REMARK  status: ('A' for Active; 'I' for Inactive)
REMARK       I    between atoms: C2_2  and  N1_4 
REMARK    1  A    between atoms: N1_4  and  C3_5 
ROOT
HETATM    1  C3  UNL     1      28.234   8.024  48.457  1.00  0.00     0.034 C 
HETATM    2  C4  UNL     1      27.909   9.096  49.243  1.00  0.00     0.032 C 
HETATM    3  C5  UNL     1      28.740  10.155  49.432  1.00  0.00     0.034 C 
HETATM    4  C6  UNL     1      29.876  10.426  48.734  1.00  0.00     0.064 C 
HETATM    5  N2  UNL     1      30.324   9.157  48.434  1.00  0.00    -0.242 NA
HETATM    6  C7  UNL     1      30.884   8.460  49.483  1.00  0.00     0.234 C 
HETATM    7  N3  UNL     1      31.369   7.252  49.186  1.00  0.00    -0.241 NA
HETATM    8  C8  UNL     1      31.224   6.674  48.001  1.00  0.00     0.071 C 
HETATM    9  C9  UNL     1      29.950   6.398  47.606  1.00  0.00     0.035 C 
HETATM   10  C10 UNL     1      28.793   6.809  48.160  1.00  0.00     0.032 C 
HETATM   11  C11 UNL     1      32.385   6.328  47.152  1.00  0.00     0.024 A 
HETATM   12  C12 UNL     1      33.337   6.758  46.306  1.00  0.00     0.064 A 
HETATM   13  C13 UNL     1      34.202   5.636  45.858  1.00  0.00     0.116 A 
HETATM   14  C14 UNL     1      33.620   4.448  46.549  1.00  0.00     0.019 A 
HETATM   15 CL1  UNL     1      34.452   2.957  46.184  1.00  0.00    -0.089 Cl
HETATM   16  C15 UNL     1      32.583   4.869  47.284  1.00  0.00     0.036 A 
HETATM   17  O2  UNL     1      33.431   8.078  45.949  1.00  0.00    -0.354 OA
HETATM   18  C16 UNL     1      33.337   9.189  46.849  1.00  0.00     0.179 C 
HETATM   19  C17 UNL     1      32.105   9.976  46.503  1.00  0.00     0.054 C 
HETATM   20  C18 UNL     1      31.858  11.147  47.309  1.00  0.00    -0.016 C 
HETATM   21  C19 UNL     1      30.911  11.292  48.226  1.00  0.00    -0.037 C 
HETATM   22  C20 UNL     1      30.623  12.470  49.047  1.00  0.00     0.050 C 
ENDROOT
BRANCH   1  23
HETATM   23  N1  UNL     1      27.615   8.447  47.248  1.00  0.00    -0.328 N 
HETATM   24  C2  UNL     1      26.266   7.985  47.125  1.00  0.00     0.218 C 
HETATM   25  C1  UNL     1      25.367   8.276  45.956  1.00  0.00     0.117 C 
HETATM   26  O1  UNL     1      25.895   7.285  48.129  1.00  0.00    -0.274 OA
HETATM   27  H4  UNL     1      27.990   9.027  46.466  1.00  0.00     0.169 HD
ENDBRANCH   1  23
TORSDOF 1
ENDMDL
MODEL 8
REMARK VINA RESULT:      -7.1      6.055      9.312
REMARK  1 active torsions:
REMARK  status: ('A' for Active; 'I' for Inactive)
REMARK       I    between atoms: C2_2  and  N1_4 
REMARK    1  A    between atoms: N1_4  and  C3_5 
ROOT
HETATM    1  C3  UNL     1      27.140   6.872  48.140  1.00  0.00     0.034 C 
HETATM    2  C4  UNL     1      27.801   5.678  48.237  1.00  0.00     0.032 C 
HETATM    3  C5  UNL     1      29.150   5.589  48.385  1.00  0.00     0.034 C 
HETATM    4  C6  UNL     1      30.001   6.609  48.675  1.00  0.00     0.064 C 
HETATM    5  N2  UNL     1      29.377   7.672  48.056  1.00  0.00    -0.242 NA
HETATM    6  C7  UNL     1      29.475   7.701  46.682  1.00  0.00     0.234 C 
HETATM    7  N3  UNL     1      28.919   8.757  46.081  1.00  0.00    -0.241 NA
HETATM    8  C8  UNL     1      28.201   9.670  46.721  1.00  0.00     0.071 C 
HETATM    9  C9  UNL     1      27.050   9.242  47.311  1.00  0.00     0.035 C 
HETATM   10  C10 UNL     1      26.631   7.978  47.511  1.00  0.00     0.032 C 
HETATM   11  C11 UNL     1      28.614  11.090  46.780  1.00  0.00     0.024 A 
HETATM   12  C12 UNL     1      29.421  12.012  47.332  1.00  0.00     0.064 A 
HETATM   13  C13 UNL     1      29.163  13.360  46.764  1.00  0.00     0.116 A 
HETATM   14  C14 UNL     1      28.059  13.122  45.788  1.00  0.00     0.019 A 
HETATM   15 CL1  UNL     1      27.536  14.571  44.966  1.00  0.00    -0.089 Cl
HETATM   16  C15 UNL     1      27.763  11.816  45.814  1.00  0.00     0.036 A 
HETATM   17  O2  UNL     1      30.338  11.673  48.294  1.00  0.00    -0.354 OA
HETATM   18  C16 UNL     1      31.208  10.536  48.246  1.00  0.00     0.179 C 
HETATM   19  C17 UNL     1      30.834   9.605  49.364  1.00  0.00     0.054 C 
HETATM   20  C18 UNL     1      31.622   8.401  49.473  1.00  0.00    -0.016 C 
HETATM   21  C19 UNL     1      31.230   7.169  49.178  1.00  0.00    -0.037 C 
HETATM   22  C20 UNL     1      31.998   5.927  49.293  1.00  0.00     0.050 C 
ENDROOT
BRANCH   1  23
HETATM   23  N1  UNL     1      26.783   7.033  49.508  1.00  0.00    -0.328 N 
HETATM   24  C2  UNL     1      25.417   6.693  49.767  1.00  0.00     0.218 C 
HETATM   25  C1  UNL     1      24.760   6.765  51.117  1.00  0.00     0.117 C 
HETATM   26  O1  UNL     1      24.798   6.315  48.713  1.00  0.00    -0.274 OA
HETATM   27  H4  UNL     1      27.354   7.351  50.321  1.00  0.00     0.169 HD
ENDBRANCH   1  23
TORSDOF 1
ENDMDL
MODEL 9
REMARK VINA RESULT:      -7.1      4.286      6.183
REMARK  1 active torsions:
REMARK  status: ('A' for Active; 'I' for Inactive)
REMARK       I    between atoms: C2_2  and  N1_4 
REMARK    1  A    between atoms: N1_4  and  C3_5 
ROOT
HETATM    1  C3  UNL     1      26.661  10.168  46.975  1.00  0.00     0.034 C 
HETATM    2  C4  UNL     1      27.527  11.222  47.084  1.00  0.00     0.032 C 
HETATM    3  C5  UNL     1      28.827  11.076  47.453  1.00  0.00     0.034 C 
HETATM    4  C6  UNL     1      29.515   9.907  47.550  1.00  0.00     0.064 C 
HETATM    5  N2  UNL     1      28.518   9.033  47.931  1.00  0.00    -0.242 NA
HETATM    6  C7  UNL     1      28.102   9.140  49.240  1.00  0.00     0.234 C 
HETATM    7  N3  UNL     1      27.175   8.261  49.631  1.00  0.00    -0.241 NA
HETATM    8  C8  UNL     1      26.579   7.410  48.806  1.00  0.00     0.071 C 
HETATM    9  C9  UNL     1      25.825   7.950  47.808  1.00  0.00     0.035 C 
HETATM   10  C10 UNL     1      25.757   9.236  47.411  1.00  0.00     0.032 C 
HETATM   11  C11 UNL     1      26.706   5.945  48.968  1.00  0.00     0.024 A 
HETATM   12  C12 UNL     1      27.467   4.849  48.800  1.00  0.00     0.064 A 
HETATM   13  C13 UNL     1      26.768   3.632  49.286  1.00  0.00     0.116 A 
HETATM   14  C14 UNL     1      25.452   4.151  49.761  1.00  0.00     0.019 A 
HETATM   15 CL1  UNL     1      24.400   2.905  50.386  1.00  0.00    -0.089 Cl
HETATM   16  C15 UNL     1      25.440   5.476  49.570  1.00  0.00     0.036 A 
HETATM   17  O2  UNL     1      28.718   4.928  48.243  1.00  0.00    -0.354 OA
HETATM   18  C16 UNL     1      29.710   5.909  48.568  1.00  0.00     0.179 C 
HETATM   19  C17 UNL     1      29.953   6.758  47.353  1.00  0.00     0.054 C 
HETATM   20  C18 UNL     1      30.941   7.800  47.499  1.00  0.00    -0.016 C 
HETATM   21  C19 UNL     1      30.711   9.104  47.571  1.00  0.00    -0.037 C 
HETATM   22  C20 UNL     1      31.690  10.185  47.702  1.00  0.00     0.050 C 
ENDROOT
BRANCH   1  23
HETATM   23  N1  UNL     1      26.801   9.917  45.582  1.00  0.00    -0.328 N 
HETATM   24  C2  UNL     1      25.833  10.616  44.792  1.00  0.00     0.218 C 
HETATM   25  C1  UNL     1      25.739  10.542  43.294  1.00  0.00     0.117 C 
HETATM   26  O1  UNL     1      25.039  11.322  45.504  1.00  0.00    -0.274 OA
HETATM   27  H4  UNL     1      27.486   9.318  45.071  1.00  0.00     0.169 HD
ENDBRANCH   1  23
TORSDOF 1
ENDMDL
