MODEL 1
REMARK VINA RESULT:      -8.8      0.000      0.000
REMARK  5 active torsions:
REMARK  status: ('A' for Active; 'I' for Inactive)
REMARK    1  A    between atoms: C2_3  and  S1_13 
REMARK    2  A    between atoms: C3_4  and  C4_5 
REMARK    3  A    between atoms: C7_8  and  O1_9 
REMARK    4  A    between atoms: C8_10  and  O2_11 
REMARK    5  A    between atoms: S1_13  and  C10_15 
ROOT
HETATM    1  N1  UNL     1      26.808   3.110  50.419  1.00  0.00    -0.191 NA
HETATM    2  C1  UNL     1      26.276   2.451  51.239  1.00  0.00     0.109 C 
HETATM    3  C2  UNL     1      25.600   1.627  52.237  1.00  0.00     0.117 C 
HETATM    4  C3  UNL     1      24.357   1.231  52.008  1.00  0.00     0.044 C 
ENDROOT
BRANCH   3   5
HETATM    5  S1  UNL     1      26.613   1.279  53.635  1.00  0.00     0.095 S 
HETATM    6  O3  UNL     1      27.242   2.473  54.253  1.00  0.00    -0.247 OA
BRANCH   5   7
HETATM    7  C10 UNL     1      27.599  -0.138  53.446  1.00  0.00     0.037 A 
HETATM    8  C11 UNL     1      26.974  -1.259  52.890  1.00  0.00     0.021 A 
HETATM    9  C12 UNL     1      27.628  -2.474  52.672  1.00  0.00     0.001 A 
HETATM   10  C13 UNL     1      28.948  -2.555  53.026  1.00  0.00     0.000 A 
HETATM   11  C14 UNL     1      29.586  -1.462  53.575  1.00  0.00     0.001 A 
HETATM   12  C15 UNL     1      28.945  -0.257  53.794  1.00  0.00     0.021 A 
ENDBRANCH   5   7
ENDBRANCH   3   5
BRANCH   4  13
HETATM   13  C4  UNL     1      23.383   0.438  52.724  1.00  0.00    -0.031 A 
HETATM   14  C5  UNL     1      22.051   0.297  52.322  1.00  0.00     0.014 A 
HETATM   15  C6  UNL     1      21.183  -0.469  53.070  1.00  0.00     0.040 A 
HETATM   16  C7  UNL     1      21.628  -1.095  54.210  1.00  0.00     0.098 A 
HETATM   17  C8  UNL     1      22.926  -0.976  54.630  1.00  0.00     0.099 A 
HETATM   18  C9  UNL     1      23.788  -0.208  53.877  1.00  0.00     0.051 A 
BRANCH  16  19
HETATM   19  O1  UNL     1      20.677  -1.845  54.896  1.00  0.00    -0.358 OA
HETATM   20  H4  UNL     1      19.820  -1.431  55.269  1.00  0.00     0.217 HD
ENDBRANCH  16  19
BRANCH  17  21
HETATM   21  O2  UNL     1      23.292  -1.632  55.778  1.00  0.00    -0.358 OA
HETATM   22  H5  UNL     1      22.662  -1.879  56.503  1.00  0.00     0.217 HD
ENDBRANCH  17  21
ENDBRANCH   4  13
TORSDOF 5
ENDMDL
MODEL 2
REMARK VINA RESULT:      -8.1      2.582      5.495
REMARK  5 active torsions:
REMARK  status: ('A' for Active; 'I' for Inactive)
REMARK    1  A    between atoms: C2_3  and  S1_13 
REMARK    2  A    between atoms: C3_4  and  C4_5 
REMARK    3  A    between atoms: C7_8  and  O1_9 
REMARK    4  A    between atoms: C8_10  and  O2_11 
REMARK    5  A    between atoms: S1_13  and  C10_15 
ROOT
HETATM    1  N1  UNL     1      23.785   3.958  48.909  1.00  0.00    -0.191 NA
HETATM    2  C1  UNL     1      24.190   3.426  49.880  1.00  0.00     0.109 C 
HETATM    3  C2  UNL     1      24.715   2.768  51.074  1.00  0.00     0.117 C 
HETATM    4  C3  UNL     1      25.898   2.175  51.012  1.00  0.00     0.044 C 
ENDROOT
BRANCH   3   5
HETATM    5  S1  UNL     1      23.631   2.895  52.456  1.00  0.00     0.095 S 
HETATM    6  O3  UNL     1      24.121   3.775  53.545  1.00  0.00    -0.247 OA
BRANCH   5   7
HETATM    7  C10 UNL     1      22.905   1.384  52.912  1.00  0.00     0.037 A 
HETATM    8  C11 UNL     1      21.524   1.277  52.724  1.00  0.00     0.021 A 
HETATM    9  C12 UNL     1      20.793   0.130  53.040  1.00  0.00     0.001 A 
HETATM   10  C13 UNL     1      21.477  -0.935  53.559  1.00  0.00     0.000 A 
HETATM   11  C14 UNL     1      22.841  -0.853  53.754  1.00  0.00     0.001 A 
HETATM   12  C15 UNL     1      23.571   0.279  53.444  1.00  0.00     0.021 A 
ENDBRANCH   5   7
ENDBRANCH   3   5
BRANCH   4  13
HETATM   13  C4  UNL     1      26.729   1.442  51.941  1.00  0.00    -0.031 A 
HETATM   14  C5  UNL     1      26.773   0.046  52.006  1.00  0.00     0.014 A 
HETATM   15  C6  UNL     1      27.583  -0.576  52.930  1.00  0.00     0.040 A 
HETATM   16  C7  UNL     1      28.350   0.178  53.787  1.00  0.00     0.098 A 
HETATM   17  C8  UNL     1      28.328   1.546  53.748  1.00  0.00     0.099 A 
HETATM   18  C9  UNL     1      27.515   2.161  52.821  1.00  0.00     0.051 A 
BRANCH  16  19
HETATM   19  O1  UNL     1      29.136  -0.541  54.684  1.00  0.00    -0.358 OA
HETATM   20  H4  UNL     1      29.442  -0.149  55.577  1.00  0.00     0.217 HD
ENDBRANCH  16  19
BRANCH  17  21
HETATM   21  O2  UNL     1      29.123   2.226  54.637  1.00  0.00    -0.358 OA
HETATM   22  H5  UNL     1      28.813   2.560  55.518  1.00  0.00     0.217 HD
ENDBRANCH  17  21
ENDBRANCH   4  13
TORSDOF 5
ENDMDL
MODEL 3
REMARK VINA RESULT:      -7.8      3.102      4.909
REMARK  5 active torsions:
REMARK  status: ('A' for Active; 'I' for Inactive)
REMARK    1  A    between atoms: C2_3  and  S1_13 
REMARK    2  A    between atoms: C3_4  and  C4_5 
REMARK    3  A    between atoms: C7_8  and  O1_9 
REMARK    4  A    between atoms: C8_10  and  O2_11 
REMARK    5  A    between atoms: S1_13  and  C10_15 
ROOT
HETATM    1  N1  UNL     1      22.472   3.041  48.464  1.00  0.00    -0.191 NA
HETATM    2  C1  UNL     1      22.809   2.673  49.531  1.00  0.00     0.109 C 
HETATM    3  C2  UNL     1      23.217   2.193  50.849  1.00  0.00     0.117 C 
HETATM    4  C3  UNL     1      22.679   1.080  51.323  1.00  0.00     0.044 C 
ENDROOT
BRANCH   3   5
HETATM    5  S1  UNL     1      24.424   3.228  51.608  1.00  0.00     0.095 S 
HETATM    6  O3  UNL     1      23.935   3.979  52.791  1.00  0.00    -0.247 OA
BRANCH   5   7
HETATM    7  C10 UNL     1      25.423   4.082  50.473  1.00  0.00     0.037 A 
HETATM    8  C11 UNL     1      25.066   5.408  50.209  1.00  0.00     0.021 A 
HETATM    9  C12 UNL     1      25.767   6.229  49.322  1.00  0.00     0.001 A 
HETATM   10  C13 UNL     1      26.855   5.693  48.687  1.00  0.00     0.000 A 
HETATM   11  C14 UNL     1      27.225   4.387  48.933  1.00  0.00     0.001 A 
HETATM   12  C15 UNL     1      26.537   3.569  49.809  1.00  0.00     0.021 A 
ENDBRANCH   5   7
ENDBRANCH   3   5
BRANCH   4  13
HETATM   13  C4  UNL     1      22.814   0.310  52.539  1.00  0.00    -0.031 A 
HETATM   14  C5  UNL     1      24.025   0.137  53.216  1.00  0.00     0.014 A 
HETATM   15  C6  UNL     1      24.071  -0.624  54.364  1.00  0.00     0.040 A 
HETATM   16  C7  UNL     1      22.924  -1.211  54.843  1.00  0.00     0.098 A 
HETATM   17  C8  UNL     1      21.723  -1.061  54.203  1.00  0.00     0.099 A 
HETATM   18  C9  UNL     1      21.686  -0.298  53.055  1.00  0.00     0.051 A 
BRANCH  16  19
HETATM   19  O1  UNL     1      23.071  -1.960  56.007  1.00  0.00    -0.358 OA
HETATM   20  H4  UNL     1      23.611  -2.827  56.034  1.00  0.00     0.217 HD
ENDBRANCH  16  19
BRANCH  17  21
HETATM   21  O2  UNL     1      20.624  -1.679  54.745  1.00  0.00    -0.358 OA
HETATM   22  H5  UNL     1      20.375  -1.632  55.703  1.00  0.00     0.217 HD
ENDBRANCH  17  21
ENDBRANCH   4  13
TORSDOF 5
ENDMDL
MODEL 4
REMARK VINA RESULT:      -7.8      2.677      5.592
REMARK  5 active torsions:
REMARK  status: ('A' for Active; 'I' for Inactive)
REMARK    1  A    between atoms: C2_3  and  S1_13 
REMARK    2  A    between atoms: C3_4  and  C4_5 
REMARK    3  A    between atoms: C7_8  and  O1_9 
REMARK    4  A    between atoms: C8_10  and  O2_11 
REMARK    5  A    between atoms: S1_13  and  C10_15 
ROOT
HETATM    1  N1  UNL     1      23.185   5.371  51.618  1.00  0.00    -0.191 NA
HETATM    2  C1  UNL     1      23.593   4.271  51.732  1.00  0.00     0.109 C 
HETATM    3  C2  UNL     1      24.114   2.916  51.888  1.00  0.00     0.117 C 
HETATM    4  C3  UNL     1      25.331   2.750  52.384  1.00  0.00     0.044 C 
ENDROOT
BRANCH   3   5
HETATM    5  S1  UNL     1      22.970   1.679  51.374  1.00  0.00     0.095 S 
HETATM    6  O3  UNL     1      22.064   2.097  50.276  1.00  0.00    -0.247 OA
BRANCH   5   7
HETATM    7  C10 UNL     1      22.276   0.783  52.689  1.00  0.00     0.037 A 
HETATM    8  C11 UNL     1      23.057  -0.250  53.217  1.00  0.00     0.021 A 
HETATM    9  C12 UNL     1      22.643  -1.062  54.275  1.00  0.00     0.001 A 
HETATM   10  C13 UNL     1      21.407  -0.822  54.812  1.00  0.00     0.000 A 
HETATM   11  C14 UNL     1      20.618   0.192  54.308  1.00  0.00     0.001 A 
HETATM   12  C15 UNL     1      21.021   1.000  53.261  1.00  0.00     0.021 A 
ENDBRANCH   5   7
ENDBRANCH   3   5
BRANCH   4  13
HETATM   13  C4  UNL     1      26.174   1.612  52.680  1.00  0.00    -0.031 A 
HETATM   14  C5  UNL     1      26.221   0.457  51.893  1.00  0.00     0.014 A 
HETATM   15  C6  UNL     1      27.043  -0.589  52.253  1.00  0.00     0.040 A 
HETATM   16  C7  UNL     1      27.817  -0.494  53.385  1.00  0.00     0.098 A 
HETATM   17  C8  UNL     1      27.792   0.623  54.176  1.00  0.00     0.099 A 
HETATM   18  C9  UNL     1      26.967   1.665  53.810  1.00  0.00     0.051 A 
BRANCH  16  19
HETATM   19  O1  UNL     1      28.614  -1.601  53.665  1.00  0.00    -0.358 OA
HETATM   20  H4  UNL     1      28.395  -2.534  53.310  1.00  0.00     0.217 HD
ENDBRANCH  16  19
BRANCH  17  21
HETATM   21  O2  UNL     1      28.594   0.640  55.290  1.00  0.00    -0.358 OA
HETATM   22  H5  UNL     1      28.912  -0.174  55.759  1.00  0.00     0.217 HD
ENDBRANCH  17  21
ENDBRANCH   4  13
TORSDOF 5
ENDMDL
MODEL 5
REMARK VINA RESULT:      -7.7      3.026      5.694
REMARK  5 active torsions:
REMARK  status: ('A' for Active; 'I' for Inactive)
REMARK    1  A    between atoms: C2_3  and  S1_13 
REMARK    2  A    between atoms: C3_4  and  C4_5 
REMARK    3  A    between atoms: C7_8  and  O1_9 
REMARK    4  A    between atoms: C8_10  and  O2_11 
REMARK    5  A    between atoms: S1_13  and  C10_15 
ROOT
HETATM    1  N1  UNL     1      21.161   2.246  49.855  1.00  0.00    -0.191 NA
HETATM    2  C1  UNL     1      22.150   2.274  50.496  1.00  0.00     0.109 C 
HETATM    3  C2  UNL     1      23.379   2.286  51.285  1.00  0.00     0.117 C 
HETATM    4  C3  UNL     1      23.904   1.133  51.672  1.00  0.00     0.044 C 
ENDROOT
BRANCH   3   5
HETATM    5  S1  UNL     1      23.981   3.913  51.588  1.00  0.00     0.095 S 
HETATM    6  O3  UNL     1      22.935   4.900  51.950  1.00  0.00    -0.247 OA
BRANCH   5   7
HETATM    7  C10 UNL     1      25.209   4.421  50.468  1.00  0.00     0.037 A 
HETATM    8  C11 UNL     1      25.178   5.765  50.082  1.00  0.00     0.021 A 
HETATM    9  C12 UNL     1      26.094   6.328  49.191  1.00  0.00     0.001 A 
HETATM   10  C13 UNL     1      27.064   5.510  48.678  1.00  0.00     0.000 A 
HETATM   11  C14 UNL     1      27.114   4.181  49.045  1.00  0.00     0.001 A 
HETATM   12  C15 UNL     1      26.211   3.616  49.926  1.00  0.00     0.021 A 
ENDBRANCH   5   7
ENDBRANCH   3   5
BRANCH   4  13
HETATM   13  C4  UNL     1      25.066   0.740  52.438  1.00  0.00    -0.031 A 
HETATM   14  C5  UNL     1      26.379   0.858  51.971  1.00  0.00     0.014 A 
HETATM   15  C6  UNL     1      27.431   0.447  52.760  1.00  0.00     0.040 A 
HETATM   16  C7  UNL     1      27.188  -0.078  54.007  1.00  0.00     0.098 A 
HETATM   17  C8  UNL     1      25.915  -0.208  54.492  1.00  0.00     0.099 A 
HETATM   18  C9  UNL     1      24.868   0.206  53.697  1.00  0.00     0.051 A 
BRANCH  16  19
HETATM   19  O1  UNL     1      28.315  -0.465  54.728  1.00  0.00    -0.358 OA
HETATM   20  H4  UNL     1      29.192   0.059  54.692  1.00  0.00     0.217 HD
ENDBRANCH  16  19
BRANCH  17  21
HETATM   21  O2  UNL     1      25.756  -0.742  55.746  1.00  0.00    -0.358 OA
HETATM   22  H5  UNL     1      26.367  -1.411  56.148  1.00  0.00     0.217 HD
ENDBRANCH  17  21
ENDBRANCH   4  13
TORSDOF 5
ENDMDL
MODEL 6
REMARK VINA RESULT:      -7.4      3.156      4.142
REMARK  5 active torsions:
REMARK  status: ('A' for Active; 'I' for Inactive)
REMARK    1  A    between atoms: C2_3  and  S1_13 
REMARK    2  A    between atoms: C3_4  and  C4_5 
REMARK    3  A    between atoms: C7_8  and  O1_9 
REMARK    4  A    between atoms: C8_10  and  O2_11 
REMARK    5  A    between atoms: S1_13  and  C10_15 
ROOT
HETATM    1  N1  UNL     1      22.221   2.898  47.408  1.00  0.00    -0.191 NA
HETATM    2  C1  UNL     1      22.262   2.615  48.551  1.00  0.00     0.109 C 
HETATM    3  C2  UNL     1      22.309   2.241  49.962  1.00  0.00     0.117 C 
HETATM    4  C3  UNL     1      21.812   1.072  50.334  1.00  0.00     0.044 C 
ENDROOT
BRANCH   3   5
HETATM    5  S1  UNL     1      23.068   3.471  50.970  1.00  0.00     0.095 S 
HETATM    6  O3  UNL     1      23.144   4.816  50.348  1.00  0.00    -0.247 OA
BRANCH   5   7
HETATM    7  C10 UNL     1      24.468   2.903  51.826  1.00  0.00     0.037 A 
HETATM    8  C11 UNL     1      25.565   2.533  51.043  1.00  0.00     0.021 A 
HETATM    9  C12 UNL     1      26.764   2.057  51.579  1.00  0.00     0.001 A 
HETATM   10  C13 UNL     1      26.853   1.954  52.941  1.00  0.00     0.000 A 
HETATM   11  C14 UNL     1      25.783   2.315  53.734  1.00  0.00     0.001 A 
HETATM   12  C15 UNL     1      24.593   2.786  53.211  1.00  0.00     0.021 A 
ENDBRANCH   5   7
ENDBRANCH   3   5
BRANCH   4  13
HETATM   13  C4  UNL     1      21.673   0.366  51.588  1.00  0.00    -0.031 A 
HETATM   14  C5  UNL     1      22.756  -0.116  52.330  1.00  0.00     0.014 A 
HETATM   15  C6  UNL     1      22.537  -0.791  53.511  1.00  0.00     0.040 A 
HETATM   16  C7  UNL     1      21.253  -0.989  53.959  1.00  0.00     0.098 A 
HETATM   17  C8  UNL     1      20.172  -0.530  53.255  1.00  0.00     0.099 A 
HETATM   18  C9  UNL     1      20.399   0.144  52.075  1.00  0.00     0.051 A 
BRANCH  16  19
HETATM   19  O1  UNL     1      21.134  -1.680  55.161  1.00  0.00    -0.358 OA
HETATM   20  H4  UNL     1      20.384  -1.489  55.829  1.00  0.00     0.217 HD
ENDBRANCH  16  19
BRANCH  17  21
HETATM   21  O2  UNL     1      18.922  -0.769  53.770  1.00  0.00    -0.358 OA
HETATM   22  H5  UNL     1      18.294  -0.058  54.058  1.00  0.00     0.217 HD
ENDBRANCH  17  21
ENDBRANCH   4  13
TORSDOF 5
ENDMDL
MODEL 7
REMARK VINA RESULT:      -7.4      2.565      3.749
REMARK  5 active torsions:
REMARK  status: ('A' for Active; 'I' for Inactive)
REMARK    1  A    between atoms: C2_3  and  S1_13 
REMARK    2  A    between atoms: C3_4  and  C4_5 
REMARK    3  A    between atoms: C7_8  and  O1_9 
REMARK    4  A    between atoms: C8_10  and  O2_11 
REMARK    5  A    between atoms: S1_13  and  C10_15 
ROOT
HETATM    1  N1  UNL     1      23.073   2.848  48.383  1.00  0.00    -0.191 NA
HETATM    2  C1  UNL     1      22.608   2.410  49.374  1.00  0.00     0.109 C 
HETATM    3  C2  UNL     1      22.018   1.852  50.587  1.00  0.00     0.117 C 
HETATM    4  C3  UNL     1      20.930   1.104  50.487  1.00  0.00     0.044 C 
ENDROOT
BRANCH   3   5
HETATM    5  S1  UNL     1      22.911   2.285  52.042  1.00  0.00     0.095 S 
HETATM    6  O3  UNL     1      23.170   3.738  52.197  1.00  0.00    -0.247 OA
BRANCH   5   7
HETATM    7  C10 UNL     1      24.212   1.195  52.412  1.00  0.00     0.037 A 
HETATM    8  C11 UNL     1      25.419   1.423  51.744  1.00  0.00     0.021 A 
HETATM    9  C12 UNL     1      26.559   0.637  51.930  1.00  0.00     0.001 A 
HETATM   10  C13 UNL     1      26.473  -0.405  52.815  1.00  0.00     0.000 A 
HETATM   11  C14 UNL     1      25.292  -0.647  53.486  1.00  0.00     0.001 A 
HETATM   12  C15 UNL     1      24.160   0.126  53.306  1.00  0.00     0.021 A 
ENDBRANCH   5   7
ENDBRANCH   3   5
BRANCH   4  13
HETATM   13  C4  UNL     1      20.078   0.399  51.419  1.00  0.00    -0.031 A 
HETATM   14  C5  UNL     1      18.696   0.262  51.256  1.00  0.00     0.014 A 
HETATM   15  C6  UNL     1      17.954  -0.415  52.198  1.00  0.00     0.040 A 
HETATM   16  C7  UNL     1      18.575  -0.959  53.298  1.00  0.00     0.098 A 
HETATM   17  C8  UNL     1      19.926  -0.842  53.486  1.00  0.00     0.099 A 
HETATM   18  C9  UNL     1      20.661  -0.163  52.539  1.00  0.00     0.051 A 
BRANCH  16  19
HETATM   19  O1  UNL     1      17.742  -1.624  54.193  1.00  0.00    -0.358 OA
HETATM   20  H4  UNL     1      17.299  -2.517  53.966  1.00  0.00     0.217 HD
ENDBRANCH  16  19
BRANCH  17  21
HETATM   21  O2  UNL     1      20.470  -1.413  54.610  1.00  0.00    -0.358 OA
HETATM   22  H5  UNL     1      21.160  -0.981  55.175  1.00  0.00     0.217 HD
ENDBRANCH  17  21
ENDBRANCH   4  13
TORSDOF 5
ENDMDL
MODEL 8
REMARK VINA RESULT:      -7.4      3.730      6.510
REMARK  5 active torsions:
REMARK  status: ('A' for Active; 'I' for Inactive)
REMARK    1  A    between atoms: C2_3  and  S1_13 
REMARK    2  A    between atoms: C3_4  and  C4_5 
REMARK    3  A    between atoms: C7_8  and  O1_9 
REMARK    4  A    between atoms: C8_10  and  O2_11 
REMARK    5  A    between atoms: S1_13  and  C10_15 
ROOT
HETATM    1  N1  UNL     1      21.192   0.914  49.419  1.00  0.00    -0.191 NA
HETATM    2  C1  UNL     1      22.025   1.673  49.762  1.00  0.00     0.109 C 
HETATM    3  C2  UNL     1      23.053   2.628  50.167  1.00  0.00     0.117 C 
HETATM    4  C3  UNL     1      23.553   3.456  49.262  1.00  0.00     0.044 C 
ENDROOT
BRANCH   3   5
HETATM    5  S1  UNL     1      23.459   2.510  51.877  1.00  0.00     0.095 S 
HETATM    6  O3  UNL     1      23.569   3.815  52.576  1.00  0.00    -0.247 OA
BRANCH   5   7
HETATM    7  C10 UNL     1      24.667   1.311  52.224  1.00  0.00     0.037 A 
HETATM    8  C11 UNL     1      24.289   0.286  53.097  1.00  0.00     0.021 A 
HETATM    9  C12 UNL     1      25.142  -0.753  53.476  1.00  0.00     0.001 A 
HETATM   10  C13 UNL     1      26.409  -0.753  52.958  1.00  0.00     0.000 A 
HETATM   11  C14 UNL     1      26.804   0.248  52.095  1.00  0.00     0.001 A 
HETATM   12  C15 UNL     1      25.965   1.280  51.715  1.00  0.00     0.021 A 
ENDBRANCH   5   7
ENDBRANCH   3   5
BRANCH   4  13
HETATM   13  C4  UNL     1      24.548   4.505  49.267  1.00  0.00    -0.031 A 
HETATM   14  C5  UNL     1      24.238   5.868  49.269  1.00  0.00     0.014 A 
HETATM   15  C6  UNL     1      25.247   6.805  49.262  1.00  0.00     0.040 A 
HETATM   16  C7  UNL     1      26.560   6.398  49.254  1.00  0.00     0.098 A 
HETATM   17  C8  UNL     1      26.897   5.071  49.251  1.00  0.00     0.099 A 
HETATM   18  C9  UNL     1      25.881   4.140  49.259  1.00  0.00     0.051 A 
BRANCH  16  19
HETATM   19  O1  UNL     1      27.508   7.418  49.247  1.00  0.00    -0.358 OA
HETATM   20  H4  UNL     1      27.411   8.257  49.823  1.00  0.00     0.217 HD
ENDBRANCH  16  19
BRANCH  17  21
HETATM   21  O2  UNL     1      28.230   4.746  49.243  1.00  0.00    -0.358 OA
HETATM   22  H5  UNL     1      28.626   4.034  48.679  1.00  0.00     0.217 HD
ENDBRANCH  17  21
ENDBRANCH   4  13
TORSDOF 5
ENDMDL
MODEL 9
REMARK VINA RESULT:      -7.3      3.190      4.341
REMARK  5 active torsions:
REMARK  status: ('A' for Active; 'I' for Inactive)
REMARK    1  A    between atoms: C2_3  and  S1_13 
REMARK    2  A    between atoms: C3_4  and  C4_5 
REMARK    3  A    between atoms: C7_8  and  O1_9 
REMARK    4  A    between atoms: C8_10  and  O2_11 
REMARK    5  A    between atoms: S1_13  and  C10_15 
ROOT
HETATM    1  N1  UNL     1      24.997  -1.247  55.369  1.00  0.00    -0.191 NA
HETATM    2  C1  UNL     1      24.974  -0.454  54.497  1.00  0.00     0.109 C 
HETATM    3  C2  UNL     1      24.922   0.536  53.424  1.00  0.00     0.117 C 
HETATM    4  C3  UNL     1      23.755   1.071  53.099  1.00  0.00     0.044 C 
ENDROOT
BRANCH   3   5
HETATM    5  S1  UNL     1      26.504   0.867  52.724  1.00  0.00     0.095 S 
HETATM    6  O3  UNL     1      26.465   1.512  51.388  1.00  0.00    -0.247 OA
BRANCH   5   7
HETATM    7  C10 UNL     1      27.653  -0.414  52.961  1.00  0.00     0.037 A 
HETATM    8  C11 UNL     1      28.892  -0.045  53.494  1.00  0.00     0.021 A 
HETATM    9  C12 UNL     1      29.922  -0.955  53.744  1.00  0.00     0.001 A 
HETATM   10  C13 UNL     1      29.690  -2.271  53.449  1.00  0.00     0.000 A 
HETATM   11  C14 UNL     1      28.474  -2.659  52.923  1.00  0.00     0.001 A 
HETATM   12  C15 UNL     1      27.451  -1.764  52.672  1.00  0.00     0.021 A 
ENDBRANCH   5   7
ENDBRANCH   3   5
BRANCH   4  13
HETATM   13  C4  UNL     1      23.306   2.045  52.130  1.00  0.00    -0.031 A 
HETATM   14  C5  UNL     1      22.940   1.722  50.819  1.00  0.00     0.014 A 
HETATM   15  C6  UNL     1      22.534   2.714  49.953  1.00  0.00     0.040 A 
HETATM   16  C7  UNL     1      22.487   4.020  50.380  1.00  0.00     0.098 A 
HETATM   17  C8  UNL     1      22.840   4.367  51.656  1.00  0.00     0.099 A 
HETATM   18  C9  UNL     1      23.245   3.370  52.516  1.00  0.00     0.051 A 
BRANCH  16  19
HETATM   19  O1  UNL     1      22.065   4.948  49.433  1.00  0.00    -0.358 OA
HETATM   20  H4  UNL     1      22.142   4.778  48.428  1.00  0.00     0.217 HD
ENDBRANCH  16  19
BRANCH  17  21
HETATM   21  O2  UNL     1      22.766   5.693  52.004  1.00  0.00    -0.358 OA
HETATM   22  H5  UNL     1      22.125   6.060  52.665  1.00  0.00     0.217 HD
ENDBRANCH  17  21
ENDBRANCH   4  13
TORSDOF 5
ENDMDL
