MODEL 1
REMARK VINA RESULT:      -8.8      0.000      0.000
REMARK  4 active torsions:
REMARK  status: ('A' for Active; 'I' for Inactive)
REMARK    1  A    between atoms: C3_3  and  C4_4 
REMARK       I    between atoms: C4_4  and  N1_6 
REMARK    2  A    between atoms: N1_6  and  C5_7 
REMARK    3  A    between atoms: C8_10  and  N2_11 
REMARK    4  A    between atoms: N2_11  and  C9_12 
ROOT
HETATM    1  C5  UNL     1      25.299  -0.826  54.205  1.00  0.00     0.131 A 
HETATM    2  C6  UNL     1      24.465  -0.228  53.283  1.00  0.00     0.068 A 
HETATM    3  C7  UNL     1      23.087  -0.140  53.425  1.00  0.00     0.047 A 
HETATM    4  C8  UNL     1      22.273   0.464  52.489  1.00  0.00     0.165 A 
HETATM    5  N3  UNL     1      20.932   0.497  52.729  1.00  0.00    -0.111 NA
HETATM    6  N4  UNL     1      20.457  -0.047  53.843  1.00  0.00    -0.041 NA
HETATM    7  N5  UNL     1      21.239  -0.621  54.734  1.00  0.00    -0.128 NA
HETATM    8  C15 UNL     1      22.568  -0.705  54.591  1.00  0.00     0.112 A 
HETATM    9  C16 UNL     1      23.404  -1.312  55.531  1.00  0.00     0.153 A 
HETATM   10  N6  UNL     1      24.750  -1.361  55.319  1.00  0.00    -0.241 NA
ENDROOT
BRANCH   4  11
HETATM   11  N2  UNL     1      22.879   1.023  51.314  1.00  0.00    -0.339 N 
HETATM   12  H8  UNL     1      23.088   0.481  50.435  1.00  0.00     0.167 HD
BRANCH  11  13
HETATM   13  C9  UNL     1      23.218   2.415  51.352  1.00  0.00     0.035 A 
HETATM   14  C10 UNL     1      22.526   3.239  52.218  1.00  0.00     0.029 A 
HETATM   15  C11 UNL     1      22.873   4.570  52.235  1.00  0.00     0.004 A 
HETATM   16  C12 UNL     1      23.848   5.160  51.466  1.00  0.00     0.019 A 
HETATM   17  C13 UNL     1      24.504   4.266  50.617  1.00  0.00     0.013 A 
HETATM   18 BR1  UNL     1      25.893   4.963  49.483  1.00  0.00    -0.051 Br
HETATM   19  C14 UNL     1      24.195   2.926  50.561  1.00  0.00     0.048 A 
ENDBRANCH  11  13
ENDBRANCH   4  11
BRANCH   1  20
HETATM   20  N1  UNL     1      26.722  -0.867  53.966  1.00  0.00    -0.308 N 
HETATM   21  C4  UNL     1      27.358   0.144  54.724  1.00  0.00     0.246 C 
HETATM   22  O1  UNL     1      26.534   0.803  55.397  1.00  0.00    -0.268 OA
HETATM   23  H6  UNL     1      27.290  -1.515  53.340  1.00  0.00     0.170 HD
BRANCH  21  24
HETATM   24  C3  UNL     1      28.799   0.356  54.694  1.00  0.00     0.070 C 
HETATM   25  C2  UNL     1      29.318   1.420  54.109  1.00  0.00    -0.026 C 
HETATM   26  C1  UNL     1      28.464   2.444  53.458  1.00  0.00     0.036 C 
ENDBRANCH  21  24
ENDBRANCH   1  20
TORSDOF 4
ENDMDL
MODEL 2
REMARK VINA RESULT:      -8.8      2.674      5.662
REMARK  4 active torsions:
REMARK  status: ('A' for Active; 'I' for Inactive)
REMARK    1  A    between atoms: C3_3  and  C4_4 
REMARK       I    between atoms: C4_4  and  N1_6 
REMARK    2  A    between atoms: N1_6  and  C5_7 
REMARK    3  A    between atoms: C8_10  and  N2_11 
REMARK    4  A    between atoms: N2_11  and  C9_12 
ROOT
HETATM    1  C5  UNL     1      26.601   2.260  51.279  1.00  0.00     0.131 A 
HETATM    2  C6  UNL     1      25.911   1.220  51.867  1.00  0.00     0.068 A 
HETATM    3  C7  UNL     1      26.264   0.640  53.077  1.00  0.00     0.047 A 
HETATM    4  C8  UNL     1      25.558  -0.400  53.646  1.00  0.00     0.165 A 
HETATM    5  N3  UNL     1      25.992  -0.895  54.840  1.00  0.00    -0.111 NA
HETATM    6  N4  UNL     1      27.069  -0.368  55.410  1.00  0.00    -0.041 NA
HETATM    7  N5  UNL     1      27.740   0.625  54.862  1.00  0.00    -0.128 NA
HETATM    8  C15 UNL     1      27.395   1.180  53.693  1.00  0.00     0.112 A 
HETATM    9  C16 UNL     1      28.100   2.233  53.107  1.00  0.00     0.153 A 
HETATM   10  N6  UNL     1      27.690   2.751  51.914  1.00  0.00    -0.241 NA
ENDROOT
BRANCH   4  11
HETATM   11  N2  UNL     1      24.407  -0.905  52.954  1.00  0.00    -0.339 N 
HETATM   12  H8  UNL     1      24.444  -1.590  52.154  1.00  0.00     0.167 HD
BRANCH  11  13
HETATM   13  C9  UNL     1      23.124  -0.437  53.390  1.00  0.00     0.035 A 
HETATM   14  C10 UNL     1      22.525  -1.061  54.467  1.00  0.00     0.029 A 
HETATM   15  C11 UNL     1      21.295  -0.591  54.865  1.00  0.00     0.004 A 
HETATM   16  C12 UNL     1      20.603   0.446  54.289  1.00  0.00     0.019 A 
HETATM   17  C13 UNL     1      21.269   1.028  53.208  1.00  0.00     0.013 A 
HETATM   18 BR1  UNL     1      20.407   2.494  52.308  1.00  0.00    -0.051 Br
HETATM   19  C14 UNL     1      22.499   0.595  52.769  1.00  0.00     0.048 A 
ENDBRANCH  11  13
ENDBRANCH   4  11
BRANCH   1  20
HETATM   20  N1  UNL     1      26.153   2.796  50.017  1.00  0.00    -0.308 N 
HETATM   21  C4  UNL     1      25.067   3.676  50.236  1.00  0.00     0.246 C 
HETATM   22  O1  UNL     1      24.780   3.761  51.451  1.00  0.00    -0.268 OA
HETATM   23  H6  UNL     1      26.517   2.618  49.032  1.00  0.00     0.170 HD
BRANCH  21  24
HETATM   24  C3  UNL     1      24.394   4.376  49.150  1.00  0.00     0.070 C 
HETATM   25  C2  UNL     1      23.313   3.873  48.582  1.00  0.00    -0.026 C 
HETATM   26  C1  UNL     1      22.736   2.579  49.020  1.00  0.00     0.036 C 
ENDBRANCH  21  24
ENDBRANCH   1  20
TORSDOF 4
ENDMDL
MODEL 3
REMARK VINA RESULT:      -8.4      2.482      5.177
REMARK  4 active torsions:
REMARK  status: ('A' for Active; 'I' for Inactive)
REMARK    1  A    between atoms: C3_3  and  C4_4 
REMARK       I    between atoms: C4_4  and  N1_6 
REMARK    2  A    between atoms: N1_6  and  C5_7 
REMARK    3  A    between atoms: C8_10  and  N2_11 
REMARK    4  A    between atoms: N2_11  and  C9_12 
ROOT
HETATM    1  C5  UNL     1      24.368  -0.275  53.477  1.00  0.00     0.131 A 
HETATM    2  C6  UNL     1      25.082   0.511  52.596  1.00  0.00     0.068 A 
HETATM    3  C7  UNL     1      26.279   1.140  52.911  1.00  0.00     0.047 A 
HETATM    4  C8  UNL     1      26.975   1.921  52.012  1.00  0.00     0.165 A 
HETATM    5  N3  UNL     1      28.142   2.493  52.425  1.00  0.00    -0.111 NA
HETATM    6  N4  UNL     1      28.566   2.282  53.666  1.00  0.00    -0.041 NA
HETATM    7  N5  UNL     1      27.896   1.536  54.520  1.00  0.00    -0.128 NA
HETATM    8  C15 UNL     1      26.741   0.931  54.211  1.00  0.00     0.112 A 
HETATM    9  C16 UNL     1      26.027   0.138  55.111  1.00  0.00     0.153 A 
HETATM   10  N6  UNL     1      24.857  -0.448  54.727  1.00  0.00    -0.241 NA
ENDROOT
BRANCH   4  11
HETATM   11  N2  UNL     1      26.437   2.092  50.692  1.00  0.00    -0.339 N 
HETATM   12  H8  UNL     1      26.197   1.300  50.039  1.00  0.00     0.167 HD
BRANCH  11  13
HETATM   13  C9  UNL     1      26.216   3.435  50.244  1.00  0.00     0.035 A 
HETATM   14  C10 UNL     1      27.067   3.962  49.293  1.00  0.00     0.029 A 
HETATM   15  C11 UNL     1      26.831   5.252  48.880  1.00  0.00     0.004 A 
HETATM   16  C12 UNL     1      25.822   6.071  49.328  1.00  0.00     0.019 A 
HETATM   17  C13 UNL     1      25.003   5.471  50.287  1.00  0.00     0.013 A 
HETATM   18 BR1  UNL     1      23.549   6.510  51.000  1.00  0.00    -0.051 Br
HETATM   19  C14 UNL     1      25.196   4.184  50.734  1.00  0.00     0.048 A 
ENDBRANCH  11  13
ENDBRANCH   4  11
BRANCH   1  20
HETATM   20  N1  UNL     1      23.133  -0.887  53.054  1.00  0.00    -0.308 N 
HETATM   21  C4  UNL     1      22.091   0.071  53.097  1.00  0.00     0.246 C 
HETATM   22  O1  UNL     1      22.506   1.186  53.485  1.00  0.00    -0.268 OA
HETATM   23  H6  UNL     1      22.938  -1.887  52.743  1.00  0.00     0.170 HD
BRANCH  21  24
HETATM   24  C3  UNL     1      20.719  -0.247  52.726  1.00  0.00     0.070 C 
HETATM   25  C2  UNL     1      20.252   0.051  51.527  1.00  0.00    -0.026 C 
HETATM   26  C1  UNL     1      21.096   0.720  50.508  1.00  0.00     0.036 C 
ENDBRANCH  21  24
ENDBRANCH   1  20
TORSDOF 4
ENDMDL
MODEL 4
REMARK VINA RESULT:      -8.2      3.114      5.599
REMARK  4 active torsions:
REMARK  status: ('A' for Active; 'I' for Inactive)
REMARK    1  A    between atoms: C3_3  and  C4_4 
REMARK       I    between atoms: C4_4  and  N1_6 
REMARK    2  A    between atoms: N1_6  and  C5_7 
REMARK    3  A    between atoms: C8_10  and  N2_11 
REMARK    4  A    between atoms: N2_11  and  C9_12 
ROOT
HETATM    1  C5  UNL     1      24.269   4.077  51.448  1.00  0.00     0.131 A 
HETATM    2  C6  UNL     1      23.660   2.857  51.654  1.00  0.00     0.068 A 
HETATM    3  C7  UNL     1      22.323   2.704  51.992  1.00  0.00     0.047 A 
HETATM    4  C8  UNL     1      21.735   1.472  52.192  1.00  0.00     0.165 A 
HETATM    5  N3  UNL     1      20.412   1.436  52.520  1.00  0.00    -0.111 NA
HETATM    6  N4  UNL     1      19.739   2.574  52.634  1.00  0.00    -0.041 NA
HETATM    7  N5  UNL     1      20.305   3.748  52.441  1.00  0.00    -0.128 NA
HETATM    8  C15 UNL     1      21.597   3.890  52.116  1.00  0.00     0.112 A 
HETATM    9  C16 UNL     1      22.204   5.130  51.909  1.00  0.00     0.153 A 
HETATM   10  N6  UNL     1      23.525   5.200  51.580  1.00  0.00    -0.241 NA
ENDROOT
BRANCH   4  11
HETATM   11  N2  UNL     1      22.544   0.296  52.047  1.00  0.00    -0.339 N 
HETATM   12  H8  UNL     1      22.670  -0.235  51.145  1.00  0.00     0.167 HD
BRANCH  11  13
HETATM   13  C9  UNL     1      23.224  -0.179  53.217  1.00  0.00     0.035 A 
HETATM   14  C10 UNL     1      22.500  -0.881  54.161  1.00  0.00     0.029 A 
HETATM   15  C11 UNL     1      23.178  -1.326  55.271  1.00  0.00     0.004 A 
HETATM   16  C12 UNL     1      24.514  -1.137  55.532  1.00  0.00     0.019 A 
HETATM   17  C13 UNL     1      25.179  -0.421  54.535  1.00  0.00     0.013 A 
HETATM   18 BR1  UNL     1      27.058  -0.084  54.775  1.00  0.00    -0.051 Br
HETATM   19  C14 UNL     1      24.549   0.047  53.405  1.00  0.00     0.048 A 
ENDBRANCH  11  13
ENDBRANCH   4  11
BRANCH   1  20
HETATM   20  N1  UNL     1      25.668   4.132  51.100  1.00  0.00    -0.308 N 
HETATM   21  C4  UNL     1      25.804   4.161  49.691  1.00  0.00     0.246 C 
HETATM   22  O1  UNL     1      24.690   4.132  49.120  1.00  0.00    -0.268 OA
HETATM   23  H6  UNL     1      26.528   4.151  51.728  1.00  0.00     0.170 HD
BRANCH  21  24
HETATM   24  C3  UNL     1      27.100   4.216  49.029  1.00  0.00     0.070 C 
HETATM   25  C2  UNL     1      27.566   5.352  48.541  1.00  0.00    -0.026 C 
HETATM   26  C1  UNL     1      26.798   6.615  48.642  1.00  0.00     0.036 C 
ENDBRANCH  21  24
ENDBRANCH   1  20
TORSDOF 4
ENDMDL
MODEL 5
REMARK VINA RESULT:      -8.0      2.438      3.464
REMARK  4 active torsions:
REMARK  status: ('A' for Active; 'I' for Inactive)
REMARK    1  A    between atoms: C3_3  and  C4_4 
REMARK       I    between atoms: C4_4  and  N1_6 
REMARK    2  A    between atoms: N1_6  and  C5_7 
REMARK    3  A    between atoms: C8_10  and  N2_11 
REMARK    4  A    between atoms: N2_11  and  C9_12 
ROOT
HETATM    1  C5  UNL     1      25.224   1.809  53.518  1.00  0.00     0.131 A 
HETATM    2  C6  UNL     1      24.686   3.023  53.142  1.00  0.00     0.068 A 
HETATM    3  C7  UNL     1      23.459   3.165  52.509  1.00  0.00     0.047 A 
HETATM    4  C8  UNL     1      22.942   4.391  52.143  1.00  0.00     0.165 A 
HETATM    5  N3  UNL     1      21.726   4.417  51.526  1.00  0.00    -0.111 NA
HETATM    6  N4  UNL     1      21.086   3.276  51.300  1.00  0.00    -0.041 NA
HETATM    7  N5  UNL     1      21.586   2.109  51.652  1.00  0.00    -0.128 NA
HETATM    8  C15 UNL     1      22.771   1.976  52.262  1.00  0.00     0.112 A 
HETATM    9  C16 UNL     1      23.306   0.743  52.638  1.00  0.00     0.153 A 
HETATM   10  N6  UNL     1      24.520   0.684  53.257  1.00  0.00    -0.241 NA
ENDROOT
BRANCH   4  11
HETATM   11  N2  UNL     1      23.707   5.570  52.429  1.00  0.00    -0.339 N 
HETATM   12  H8  UNL     1      23.964   5.895  53.398  1.00  0.00     0.167 HD
BRANCH  11  13
HETATM   13  C9  UNL     1      24.146   6.353  51.311  1.00  0.00     0.035 A 
HETATM   14  C10 UNL     1      23.460   7.513  51.007  1.00  0.00     0.029 A 
HETATM   15  C11 UNL     1      23.904   8.244  49.931  1.00  0.00     0.004 A 
HETATM   16  C12 UNL     1      24.971   7.928  49.124  1.00  0.00     0.019 A 
HETATM   17  C13 UNL     1      25.614   6.744  49.491  1.00  0.00     0.013 A 
HETATM   18 BR1  UNL     1      27.127   6.183  48.443  1.00  0.00    -0.051 Br
HETATM   19  C14 UNL     1      25.210   5.975  50.558  1.00  0.00     0.048 A 
ENDBRANCH  11  13
ENDBRANCH   4  11
BRANCH   1  20
HETATM   20  N1  UNL     1      26.509   1.765  54.172  1.00  0.00    -0.308 N 
HETATM   21  C4  UNL     1      27.526   1.578  53.205  1.00  0.00     0.246 C 
HETATM   22  O1  UNL     1      27.054   1.501  52.049  1.00  0.00    -0.268 OA
HETATM   23  H6  UNL     1      26.752   1.850  55.205  1.00  0.00     0.170 HD
BRANCH  21  24
HETATM   24  C3  UNL     1      28.937   1.492  53.558  1.00  0.00     0.070 C 
HETATM   25  C2  UNL     1      29.534   0.321  53.688  1.00  0.00    -0.026 C 
HETATM   26  C1  UNL     1      28.803  -0.952  53.482  1.00  0.00     0.036 C 
ENDBRANCH  21  24
ENDBRANCH   1  20
TORSDOF 4
ENDMDL
MODEL 6
REMARK VINA RESULT:      -8.0      2.057      3.055
REMARK  4 active torsions:
REMARK  status: ('A' for Active; 'I' for Inactive)
REMARK    1  A    between atoms: C3_3  and  C4_4 
REMARK       I    between atoms: C4_4  and  N1_6 
REMARK    2  A    between atoms: N1_6  and  C5_7 
REMARK    3  A    between atoms: C8_10  and  N2_11 
REMARK    4  A    between atoms: N2_11  and  C9_12 
ROOT
HETATM    1  C5  UNL     1      24.622   0.469  53.463  1.00  0.00     0.131 A 
HETATM    2  C6  UNL     1      24.455   1.722  52.909  1.00  0.00     0.068 A 
HETATM    3  C7  UNL     1      23.356   2.093  52.147  1.00  0.00     0.047 A 
HETATM    4  C8  UNL     1      23.211   3.354  51.604  1.00  0.00     0.165 A 
HETATM    5  N3  UNL     1      22.091   3.613  50.872  1.00  0.00    -0.111 NA
HETATM    6  N4  UNL     1      21.185   2.656  50.707  1.00  0.00    -0.041 NA
HETATM    7  N5  UNL     1      21.329   1.455  51.228  1.00  0.00    -0.128 NA
HETATM    8  C15 UNL     1      22.392   1.101  51.962  1.00  0.00     0.112 A 
HETATM    9  C16 UNL     1      22.552  -0.170  52.518  1.00  0.00     0.153 A 
HETATM   10  N6  UNL     1      23.661  -0.460  53.255  1.00  0.00    -0.241 NA
ENDROOT
BRANCH   4  11
HETATM   11  N2  UNL     1      24.244   4.322  51.837  1.00  0.00    -0.339 N 
HETATM   12  H8  UNL     1      24.381   4.843  52.743  1.00  0.00     0.167 HD
BRANCH  11  13
HETATM   13  C9  UNL     1      25.144   4.592  50.754  1.00  0.00     0.035 A 
HETATM   14  C10 UNL     1      26.064   3.623  50.405  1.00  0.00     0.029 A 
HETATM   15  C11 UNL     1      26.915   3.907  49.362  1.00  0.00     0.004 A 
HETATM   16  C12 UNL     1      26.935   5.071  48.632  1.00  0.00     0.019 A 
HETATM   17  C13 UNL     1      25.978   6.002  49.042  1.00  0.00     0.013 A 
HETATM   18 BR1  UNL     1      25.899   7.679  48.102  1.00  0.00    -0.051 Br
HETATM   19  C14 UNL     1      25.105   5.768  50.079  1.00  0.00     0.048 A 
ENDBRANCH  11  13
ENDBRANCH   4  11
BRANCH   1  20
HETATM   20  N1  UNL     1      25.802   0.179  54.241  1.00  0.00    -0.308 N 
HETATM   21  C4  UNL     1      26.895  -0.056  53.373  1.00  0.00     0.246 C 
HETATM   22  O1  UNL     1      26.559   0.047  52.171  1.00  0.00    -0.268 OA
HETATM   23  H6  UNL     1      25.927   0.128  55.297  1.00  0.00     0.170 HD
BRANCH  21  24
HETATM   24  C3  UNL     1      28.229  -0.376  53.862  1.00  0.00     0.070 C 
HETATM   25  C2  UNL     1      29.129   0.571  54.053  1.00  0.00    -0.026 C 
HETATM   26  C1  UNL     1      28.827   1.997  53.780  1.00  0.00     0.036 C 
ENDBRANCH  21  24
ENDBRANCH   1  20
TORSDOF 4
ENDMDL
MODEL 7
REMARK VINA RESULT:      -7.9      2.205      2.694
REMARK  4 active torsions:
REMARK  status: ('A' for Active; 'I' for Inactive)
REMARK    1  A    between atoms: C3_3  and  C4_4 
REMARK       I    between atoms: C4_4  and  N1_6 
REMARK    2  A    between atoms: N1_6  and  C5_7 
REMARK    3  A    between atoms: C8_10  and  N2_11 
REMARK    4  A    between atoms: N2_11  and  C9_12 
ROOT
HETATM    1  C5  UNL     1      25.564   0.328  52.797  1.00  0.00     0.131 A 
HETATM    2  C6  UNL     1      24.727   1.296  52.282  1.00  0.00     0.068 A 
HETATM    3  C7  UNL     1      23.365   1.363  52.541  1.00  0.00     0.047 A 
HETATM    4  C8  UNL     1      22.549   2.343  52.015  1.00  0.00     0.165 A 
HETATM    5  N3  UNL     1      21.224   2.316  52.335  1.00  0.00    -0.111 NA
HETATM    6  N4  UNL     1      20.767   1.359  53.134  1.00  0.00    -0.041 NA
HETATM    7  N5  UNL     1      21.551   0.426  53.634  1.00  0.00    -0.128 NA
HETATM    8  C15 UNL     1      22.865   0.366  53.380  1.00  0.00     0.112 A 
HETATM    9  C16 UNL     1      23.703  -0.619  53.906  1.00  0.00     0.153 A 
HETATM   10  N6  UNL     1      25.033  -0.619  53.605  1.00  0.00    -0.241 NA
ENDROOT
BRANCH   4  11
HETATM   11  N2  UNL     1      23.134   3.336  51.160  1.00  0.00    -0.339 N 
HETATM   12  H8  UNL     1      23.794   4.090  51.486  1.00  0.00     0.167 HD
BRANCH  11  13
HETATM   13  C9  UNL     1      22.789   3.288  49.770  1.00  0.00     0.035 A 
HETATM   14  C10 UNL     1      22.540   2.057  49.194  1.00  0.00     0.029 A 
HETATM   15  C11 UNL     1      22.210   2.041  47.859  1.00  0.00     0.004 A 
HETATM   16  C12 UNL     1      22.104   3.140  47.040  1.00  0.00     0.019 A 
HETATM   17  C13 UNL     1      22.369   4.347  47.691  1.00  0.00     0.013 A 
HETATM   18 BR1  UNL     1      22.257   5.966  46.657  1.00  0.00    -0.051 Br
HETATM   19  C14 UNL     1      22.704   4.418  49.023  1.00  0.00     0.048 A 
ENDBRANCH  11  13
ENDBRANCH   4  11
BRANCH   1  20
HETATM   20  N1  UNL     1      26.968   0.343  52.468  1.00  0.00    -0.308 N 
HETATM   21  C4  UNL     1      27.712   0.777  53.592  1.00  0.00     0.246 C 
HETATM   22  O1  UNL     1      26.969   1.030  54.566  1.00  0.00    -0.268 OA
HETATM   23  H6  UNL     1      27.459   0.088  51.559  1.00  0.00     0.170 HD
BRANCH  21  24
HETATM   24  C3  UNL     1      29.163   0.899  53.572  1.00  0.00     0.070 C 
HETATM   25  C2  UNL     1      29.935  -0.172  53.520  1.00  0.00    -0.026 C 
HETATM   26  C1  UNL     1      29.365  -1.540  53.481  1.00  0.00     0.036 C 
ENDBRANCH  21  24
ENDBRANCH   1  20
TORSDOF 4
ENDMDL
MODEL 8
REMARK VINA RESULT:      -7.8      2.999      6.022
REMARK  4 active torsions:
REMARK  status: ('A' for Active; 'I' for Inactive)
REMARK    1  A    between atoms: C3_3  and  C4_4 
REMARK       I    between atoms: C4_4  and  N1_6 
REMARK    2  A    between atoms: N1_6  and  C5_7 
REMARK    3  A    between atoms: C8_10  and  N2_11 
REMARK    4  A    between atoms: N2_11  and  C9_12 
ROOT
HETATM    1  C5  UNL     1      20.433   1.029  51.783  1.00  0.00     0.131 A 
HETATM    2  C6  UNL     1      21.689   0.906  52.340  1.00  0.00     0.068 A 
HETATM    3  C7  UNL     1      22.003   0.018  53.360  1.00  0.00     0.047 A 
HETATM    4  C8  UNL     1      23.268  -0.087  53.900  1.00  0.00     0.165 A 
HETATM    5  N3  UNL     1      23.466  -0.994  54.899  1.00  0.00    -0.111 NA
HETATM    6  N4  UNL     1      22.448  -1.737  55.315  1.00  0.00    -0.041 NA
HETATM    7  N5  UNL     1      21.242  -1.632  54.795  1.00  0.00    -0.128 NA
HETATM    8  C15 UNL     1      20.945  -0.773  53.811  1.00  0.00     0.112 A 
HETATM    9  C16 UNL     1      19.670  -0.656  53.254  1.00  0.00     0.153 A 
HETATM   10  N6  UNL     1      19.439   0.241  52.253  1.00  0.00    -0.241 NA
ENDROOT
BRANCH   4  11
HETATM   11  N2  UNL     1      24.305   0.760  53.386  1.00  0.00    -0.339 N 
HETATM   12  H8  UNL     1      24.156   1.747  53.046  1.00  0.00     0.167 HD
BRANCH  11  13
HETATM   13  C9  UNL     1      25.630   0.214  53.334  1.00  0.00     0.035 A 
HETATM   14  C10 UNL     1      25.812  -1.021  52.744  1.00  0.00     0.029 A 
HETATM   15  C11 UNL     1      27.094  -1.519  52.708  1.00  0.00     0.004 A 
HETATM   16  C12 UNL     1      28.215  -0.900  53.205  1.00  0.00     0.019 A 
HETATM   17  C13 UNL     1      27.953   0.343  53.786  1.00  0.00     0.013 A 
HETATM   18 BR1  UNL     1      29.438   1.318  54.524  1.00  0.00    -0.051 Br
HETATM   19  C14 UNL     1      26.691   0.886  53.849  1.00  0.00     0.048 A 
ENDBRANCH  11  13
ENDBRANCH   4  11
BRANCH   1  20
HETATM   20  N1  UNL     1      20.207   1.983  50.724  1.00  0.00    -0.308 N 
HETATM   21  C4  UNL     1      20.711   1.466  49.507  1.00  0.00     0.246 C 
HETATM   22  O1  UNL     1      21.215   0.331  49.662  1.00  0.00    -0.268 OA
HETATM   23  H6  UNL     1      19.747   2.942  50.757  1.00  0.00     0.170 HD
BRANCH  21  24
HETATM   24  C3  UNL     1      20.632   2.200  48.251  1.00  0.00     0.070 C 
HETATM   25  C2  UNL     1      21.646   2.932  47.827  1.00  0.00    -0.026 C 
HETATM   26  C1  UNL     1      22.905   3.041  48.602  1.00  0.00     0.036 C 
ENDBRANCH  21  24
ENDBRANCH   1  20
TORSDOF 4
ENDMDL
MODEL 9
REMARK VINA RESULT:      -7.8      7.328      9.601
REMARK  4 active torsions:
REMARK  status: ('A' for Active; 'I' for Inactive)
REMARK    1  A    between atoms: C3_3  and  C4_4 
REMARK       I    between atoms: C4_4  and  N1_6 
REMARK    2  A    between atoms: N1_6  and  C5_7 
REMARK    3  A    between atoms: C8_10  and  N2_11 
REMARK    4  A    between atoms: N2_11  and  C9_12 
ROOT
HETATM    1  C5  UNL     1      31.251   6.628  47.557  1.00  0.00     0.131 A 
HETATM    2  C6  UNL     1      29.883   6.692  47.719  1.00  0.00     0.068 A 
HETATM    3  C7  UNL     1      29.231   7.688  48.434  1.00  0.00     0.047 A 
HETATM    4  C8  UNL     1      27.860   7.731  48.582  1.00  0.00     0.165 A 
HETATM    5  N3  UNL     1      27.323   8.754  49.304  1.00  0.00    -0.111 NA
HETATM    6  N4  UNL     1      28.127   9.667  49.837  1.00  0.00    -0.041 NA
HETATM    7  N5  UNL     1      29.436   9.621  49.692  1.00  0.00    -0.128 NA
HETATM    8  C15 UNL     1      30.060   8.657  49.002  1.00  0.00     0.112 A 
HETATM    9  C16 UNL     1      31.446   8.602  48.843  1.00  0.00     0.153 A 
HETATM   10  N6  UNL     1      32.013   7.591  48.126  1.00  0.00    -0.241 NA
ENDROOT
BRANCH   4  11
HETATM   11  N2  UNL     1      27.073   6.699  47.970  1.00  0.00    -0.339 N 
HETATM   12  H8  UNL     1      26.860   6.642  46.939  1.00  0.00     0.167 HD
BRANCH  11  13
HETATM   13  C9  UNL     1      26.546   5.681  48.830  1.00  0.00     0.035 A 
HETATM   14  C10 UNL     1      27.208   4.471  48.903  1.00  0.00     0.029 A 
HETATM   15  C11 UNL     1      26.681   3.513  49.738  1.00  0.00     0.004 A 
HETATM   16  C12 UNL     1      25.552   3.647  50.509  1.00  0.00     0.019 A 
HETATM   17  C13 UNL     1      24.937   4.895  50.384  1.00  0.00     0.013 A 
HETATM   18 BR1  UNL     1      23.343   5.216  51.412  1.00  0.00    -0.051 Br
HETATM   19  C14 UNL     1      25.423   5.887  49.564  1.00  0.00     0.048 A 
ENDBRANCH  11  13
ENDBRANCH   4  11
BRANCH   1  20
HETATM   20  N1  UNL     1      31.835   5.552  46.794  1.00  0.00    -0.308 N 
HETATM   21  C4  UNL     1      32.068   4.443  47.643  1.00  0.00     0.246 C 
HETATM   22  O1  UNL     1      31.713   4.681  48.819  1.00  0.00    -0.268 OA
HETATM   23  H6  UNL     1      32.085   5.505  45.760  1.00  0.00     0.170 HD
BRANCH  21  24
HETATM   24  C3  UNL     1      32.653   3.198  47.163  1.00  0.00     0.070 C 
HETATM   25  C2  UNL     1      33.941   2.949  47.317  1.00  0.00    -0.026 C 
HETATM   26  C1  UNL     1      34.847   3.916  47.981  1.00  0.00     0.036 C 
ENDBRANCH  21  24
ENDBRANCH   1  20
TORSDOF 4
ENDMDL
