MODEL 1
REMARK VINA RESULT:      -8.6      0.000      0.000
REMARK  5 active torsions:
REMARK  status: ('A' for Active; 'I' for Inactive)
REMARK    1  A    between atoms: C7_9  and  N3_10 
REMARK    2  A    between atoms: N3_10  and  C8_11 
REMARK    3  A    between atoms: C8_11  and  C9_12 
REMARK    4  A    between atoms: C13_18  and  N4_19 
REMARK    5  A    between atoms: C21_29  and  C22_31 
ROOT
HETATM    1  C1  UNL     1      20.117   5.398  50.165  1.00  0.00     0.071 C 
HETATM    2  C2  UNL     1      19.936   4.036  50.764  1.00  0.00     0.044 C 
HETATM    3  N1  UNL     1      18.800   3.825  51.410  1.00  0.00    -0.246 NA
HETATM    4  C3  UNL     1      18.274   2.496  51.719  1.00  0.00     0.235 C 
HETATM    5  N2  UNL     1      18.869   1.292  51.709  1.00  0.00    -0.230 NA
HETATM    6  C4  UNL     1      20.256   1.064  51.489  1.00  0.00     0.111 C 
HETATM    7  C5  UNL     1      20.737   1.658  50.320  1.00  0.00     0.060 C 
HETATM    8  C6  UNL     1      21.079   3.117  50.518  1.00  0.00     0.016 C 
HETATM    9  C7  UNL     1      22.268   3.773  50.628  1.00  0.00     0.041 C 
HETATM   10  C10 UNL     1      23.530   3.089  50.250  1.00  0.00     0.225 C 
HETATM   11  O2  UNL     1      24.409   2.945  51.303  1.00  0.00    -0.385 OA
HETATM   12  C11 UNL     1      25.420   2.096  50.806  1.00  0.00     0.173 C 
HETATM   13  C12 UNL     1      26.217   1.389  51.838  1.00  0.00     0.080 C 
HETATM   14  C13 UNL     1      25.505   0.487  52.785  1.00  0.00     0.012 C 
HETATM   15  C18 UNL     1      24.580  -0.225  53.460  1.00  0.00     0.093 A 
HETATM   16  C19 UNL     1      23.513   0.324  52.593  1.00  0.00     0.068 A 
HETATM   17  C20 UNL     1      22.245   0.508  52.307  1.00  0.00     0.140 A 
HETATM   18  N5  UNL     1      20.883   0.325  52.571  1.00  0.00    -0.218 NA
HETATM   19  C21 UNL     1      21.828  -0.259  53.453  1.00  0.00     0.205 A 
HETATM   20  F1  UNL     1      20.999  -0.852  54.311  1.00  0.00    -0.221 F 
HETATM   21  C22 UNL     1      23.130  -0.319  53.574  1.00  0.00     0.103 A 
HETATM   22 CL1  UNL     1      23.623  -1.258  55.006  1.00  0.00    -0.187 Cl
ENDROOT
BRANCH  14  23
HETATM   23  N4  UNL     1      26.532  -0.074  53.642  1.00  0.00    -0.382 N 
HETATM   24  C14 UNL     1      27.109  -1.376  53.285  1.00  0.00     0.148 C 
HETATM   25  C15 UNL     1      28.611  -1.237  53.119  1.00  0.00     0.187 C 
HETATM   26  O3  UNL     1      29.060  -0.029  53.692  1.00  0.00    -0.388 OA
HETATM   27  C16 UNL     1      28.561   0.126  54.973  1.00  0.00     0.187 C 
HETATM   28  C17 UNL     1      27.102   0.509  54.867  1.00  0.00     0.148 C 
ENDBRANCH  14  23
BRANCH   9  29
HETATM   29  N3  UNL     1      22.592   5.077  50.929  1.00  0.00    -0.384 N 
HETATM   30  H6  UNL     1      22.101   5.049  51.856  1.00  0.00     0.159 HD
BRANCH  29  31
HETATM   31  C8  UNL     1      23.359   6.020  50.167  1.00  0.00     0.189 C 
BRANCH  31  32
HETATM   32  C9  UNL     1      24.195   6.760  51.164  1.00  0.00     0.250 C 
HETATM   33  O1  UNL     1      25.326   6.827  50.664  1.00  0.00    -0.305 OA
ENDBRANCH  31  32
ENDBRANCH  29  31
ENDBRANCH   9  29
TORSDOF 5
ENDMDL
MODEL 2
REMARK VINA RESULT:      -8.4      1.451      1.762
REMARK  5 active torsions:
REMARK  status: ('A' for Active; 'I' for Inactive)
REMARK    1  A    between atoms: C7_9  and  N3_10 
REMARK    2  A    between atoms: N3_10  and  C8_11 
REMARK    3  A    between atoms: C8_11  and  C9_12 
REMARK    4  A    between atoms: C13_18  and  N4_19 
REMARK    5  A    between atoms: C21_29  and  C22_31 
ROOT
HETATM    1  C1  UNL     1      17.823   4.341  50.230  1.00  0.00     0.071 C 
HETATM    2  C2  UNL     1      17.973   2.989  50.858  1.00  0.00     0.044 C 
HETATM    3  N1  UNL     1      16.949   2.560  51.580  1.00  0.00    -0.246 NA
HETATM    4  C3  UNL     1      16.738   1.159  51.940  1.00  0.00     0.235 C 
HETATM    5  N2  UNL     1      17.574   0.108  51.908  1.00  0.00    -0.230 NA
HETATM    6  C4  UNL     1      18.961   0.173  51.601  1.00  0.00     0.111 C 
HETATM    7  C5  UNL     1      19.233   0.823  50.395  1.00  0.00     0.060 C 
HETATM    8  C6  UNL     1      19.269   2.326  50.551  1.00  0.00     0.016 C 
HETATM    9  C7  UNL     1      20.295   3.222  50.574  1.00  0.00     0.041 C 
HETATM   10  C10 UNL     1      21.648   2.811  50.124  1.00  0.00     0.225 C 
HETATM   11  O2  UNL     1      22.600   2.884  51.119  1.00  0.00    -0.385 OA
HETATM   12  C11 UNL     1      23.737   2.255  50.570  1.00  0.00     0.173 C 
HETATM   13  C12 UNL     1      24.726   1.762  51.557  1.00  0.00     0.080 C 
HETATM   14  C13 UNL     1      24.282   0.755  52.560  1.00  0.00     0.012 C 
HETATM   15  C18 UNL     1      23.572  -0.117  53.304  1.00  0.00     0.093 A 
HETATM   16  C19 UNL     1      22.362   0.170  52.501  1.00  0.00     0.068 A 
HETATM   17  C20 UNL     1      21.069   0.073  52.295  1.00  0.00     0.140 A 
HETATM   18  N5  UNL     1      19.796  -0.387  52.650  1.00  0.00    -0.218 NA
HETATM   19  C21 UNL     1      20.895  -0.733  53.477  1.00  0.00     0.205 A 
HETATM   20  F1  UNL     1      20.266  -1.464  54.395  1.00  0.00    -0.221 F 
HETATM   21  C22 UNL     1      22.185  -0.513  53.513  1.00  0.00     0.103 A 
HETATM   22 CL1  UNL     1      22.954  -1.287  54.923  1.00  0.00    -0.187 Cl
ENDROOT
BRANCH  14  23
HETATM   23  N4  UNL     1      25.455   0.448  53.356  1.00  0.00    -0.382 N 
HETATM   24  C14 UNL     1      25.973  -0.926  53.340  1.00  0.00     0.148 C 
HETATM   25  C15 UNL     1      27.418  -0.918  52.875  1.00  0.00     0.187 C 
HETATM   26  O3  UNL     1      27.949   0.387  52.942  1.00  0.00    -0.388 OA
HETATM   27  C16 UNL     1      27.690   0.964  54.172  1.00  0.00     0.187 C 
HETATM   28  C17 UNL     1      26.231   1.362  54.208  1.00  0.00     0.148 C 
ENDBRANCH  14  23
BRANCH   9  29
HETATM   29  N3  UNL     1      20.351   4.573  50.835  1.00  0.00    -0.384 N 
HETATM   30  H6  UNL     1      19.724   4.499  51.673  1.00  0.00     0.159 HD
BRANCH  29  31
HETATM   31  C8  UNL     1      21.074   5.601  50.144  1.00  0.00     0.189 C 
BRANCH  31  32
HETATM   32  C9  UNL     1      21.788   6.378  51.206  1.00  0.00     0.250 C 
HETATM   33  O1  UNL     1      21.948   7.512  50.735  1.00  0.00    -0.305 OA
ENDBRANCH  31  32
ENDBRANCH  29  31
ENDBRANCH   9  29
TORSDOF 5
ENDMDL
MODEL 3
REMARK VINA RESULT:      -8.0      3.500      7.957
REMARK  5 active torsions:
REMARK  status: ('A' for Active; 'I' for Inactive)
REMARK    1  A    between atoms: C7_9  and  N3_10 
REMARK    2  A    between atoms: N3_10  and  C8_11 
REMARK    3  A    between atoms: C8_11  and  C9_12 
REMARK    4  A    between atoms: C13_18  and  N4_19 
REMARK    5  A    between atoms: C21_29  and  C22_31 
ROOT
HETATM    1  C1  UNL     1      25.626  -0.330  55.269  1.00  0.00     0.071 C 
HETATM    2  C2  UNL     1      26.153   0.601  54.220  1.00  0.00     0.044 C 
HETATM    3  N1  UNL     1      27.159   1.383  54.580  1.00  0.00    -0.246 NA
HETATM    4  C3  UNL     1      28.043   2.059  53.633  1.00  0.00     0.235 C 
HETATM    5  N2  UNL     1      27.908   2.291  52.316  1.00  0.00    -0.230 NA
HETATM    6  C4  UNL     1      26.746   2.005  51.549  1.00  0.00     0.111 C 
HETATM    7  C5  UNL     1      26.306   0.686  51.677  1.00  0.00     0.060 C 
HETATM    8  C6  UNL     1      25.456   0.484  52.911  1.00  0.00     0.016 C 
HETATM    9  C7  UNL     1      24.115   0.316  53.083  1.00  0.00     0.041 C 
HETATM   10  C10 UNL     1      23.252   0.003  51.917  1.00  0.00     0.225 C 
HETATM   11  O2  UNL     1      22.303   0.971  51.663  1.00  0.00    -0.385 OA
HETATM   12  C11 UNL     1      21.749   0.607  50.418  1.00  0.00     0.173 C 
HETATM   13  C12 UNL     1      21.073   1.702  49.682  1.00  0.00     0.080 C 
HETATM   14  C13 UNL     1      21.870   2.905  49.316  1.00  0.00     0.012 C 
HETATM   15  C18 UNL     1      22.848   3.819  49.150  1.00  0.00     0.093 A 
HETATM   16  C19 UNL     1      23.798   2.948  49.876  1.00  0.00     0.068 A 
HETATM   17  C20 UNL     1      24.956   2.745  50.461  1.00  0.00     0.140 A 
HETATM   18  N5  UNL     1      26.228   3.172  50.856  1.00  0.00    -0.218 NA
HETATM   19  C21 UNL     1      25.400   4.079  50.146  1.00  0.00     0.205 A 
HETATM   20  F1  UNL     1      26.215   5.131  50.087  1.00  0.00    -0.221 F 
HETATM   21  C22 UNL     1      24.198   4.088  49.629  1.00  0.00     0.103 A 
HETATM   22 CL1  UNL     1      23.809   5.656  48.873  1.00  0.00    -0.187 Cl
ENDROOT
BRANCH  14  23
HETATM   23  N4  UNL     1      20.962   3.774  48.592  1.00  0.00    -0.382 N 
HETATM   24  C14 UNL     1      20.864   3.626  47.134  1.00  0.00     0.148 C 
HETATM   25  C15 UNL     1      19.427   3.326  46.751  1.00  0.00     0.187 C 
HETATM   26  O3  UNL     1      18.558   3.628  47.821  1.00  0.00    -0.388 OA
HETATM   27  C16 UNL     1      18.815   4.890  48.325  1.00  0.00     0.187 C 
HETATM   28  C17 UNL     1      20.088   4.822  49.140  1.00  0.00     0.148 C 
ENDBRANCH  14  23
BRANCH   9  29
HETATM   29  N3  UNL     1      23.316   0.254  54.202  1.00  0.00    -0.384 N 
HETATM   30  H6  UNL     1      24.062   0.641  54.831  1.00  0.00     0.159 HD
BRANCH  29  31
HETATM   31  C8  UNL     1      21.955  -0.182  54.322  1.00  0.00     0.189 C 
BRANCH  31  32
HETATM   32  C9  UNL     1      22.025  -1.641  54.651  1.00  0.00     0.250 C 
HETATM   33  O1  UNL     1      22.668  -1.712  55.707  1.00  0.00    -0.305 OA
ENDBRANCH  31  32
ENDBRANCH  29  31
ENDBRANCH   9  29
TORSDOF 5
ENDMDL
MODEL 4
REMARK VINA RESULT:      -7.6      9.783     12.429
REMARK  5 active torsions:
REMARK  status: ('A' for Active; 'I' for Inactive)
REMARK    1  A    between atoms: C7_9  and  N3_10 
REMARK    2  A    between atoms: N3_10  and  C8_11 
REMARK    3  A    between atoms: C8_11  and  C9_12 
REMARK    4  A    between atoms: C13_18  and  N4_19 
REMARK    5  A    between atoms: C21_29  and  C22_31 
ROOT
HETATM    1  C1  UNL     1      28.556  12.468  49.063  1.00  0.00     0.071 C 
HETATM    2  C2  UNL     1      29.468  12.228  47.898  1.00  0.00     0.044 C 
HETATM    3  N1  UNL     1      29.189  12.891  46.787  1.00  0.00    -0.246 NA
HETATM    4  C3  UNL     1      30.143  13.094  45.698  1.00  0.00     0.235 C 
HETATM    5  N2  UNL     1      31.309  12.484  45.426  1.00  0.00    -0.230 NA
HETATM    6  C4  UNL     1      31.830  11.362  46.128  1.00  0.00     0.111 C 
HETATM    7  C5  UNL     1      31.895  11.553  47.510  1.00  0.00     0.060 C 
HETATM    8  C6  UNL     1      30.573  11.275  48.189  1.00  0.00     0.016 C 
HETATM    9  C7  UNL     1      30.137  10.238  48.956  1.00  0.00     0.041 C 
HETATM   10  C10 UNL     1      31.111   9.264  49.510  1.00  0.00     0.225 C 
HETATM   11  O2  UNL     1      30.919   7.978  49.051  1.00  0.00    -0.385 OA
HETATM   12  C11 UNL     1      32.050   7.268  49.503  1.00  0.00     0.173 C 
HETATM   13  C12 UNL     1      32.351   6.019  48.763  1.00  0.00     0.080 C 
HETATM   14  C13 UNL     1      32.619   6.111  47.301  1.00  0.00     0.012 C 
HETATM   15  C18 UNL     1      32.803   6.536  46.034  1.00  0.00     0.093 A 
HETATM   16  C19 UNL     1      32.525   7.929  46.452  1.00  0.00     0.068 A 
HETATM   17  C20 UNL     1      32.284   9.188  46.169  1.00  0.00     0.140 A 
HETATM   18  N5  UNL     1      32.110  10.234  45.257  1.00  0.00    -0.218 NA
HETATM   19  C21 UNL     1      32.392   8.938  44.754  1.00  0.00     0.205 A 
HETATM   20  F1  UNL     1      32.407   9.199  43.449  1.00  0.00    -0.221 F 
HETATM   21  C22 UNL     1      32.603   7.739  45.236  1.00  0.00     0.103 A 
HETATM   22 CL1  UNL     1      32.885   6.543  43.945  1.00  0.00    -0.187 Cl
ENDROOT
BRANCH  14  23
HETATM   23  N4  UNL     1      32.905   4.757  46.867  1.00  0.00    -0.382 N 
HETATM   24  C14 UNL     1      34.298   4.393  46.578  1.00  0.00     0.148 C 
HETATM   25  C15 UNL     1      34.708   3.223  47.452  1.00  0.00     0.187 C 
HETATM   26  O3  UNL     1      33.570   2.601  48.008  1.00  0.00    -0.388 OA
HETATM   27  C16 UNL     1      32.622   2.345  47.034  1.00  0.00     0.187 C 
HETATM   28  C17 UNL     1      31.953   3.653  46.672  1.00  0.00     0.148 C 
ENDBRANCH  14  23
BRANCH   9  29
HETATM   29  N3  UNL     1      28.904   9.914  49.477  1.00  0.00    -0.384 N 
HETATM   30  H6  UNL     1      28.963  10.644  50.229  1.00  0.00     0.159 HD
BRANCH  29  31
HETATM   31  C8  UNL     1      27.964   8.925  49.035  1.00  0.00     0.189 C 
BRANCH  31  32
HETATM   32  C9  UNL     1      26.976   8.781  50.150  1.00  0.00     0.250 C 
HETATM   33  O1  UNL     1      26.496   9.910  50.316  1.00  0.00    -0.305 OA
ENDBRANCH  31  32
ENDBRANCH  29  31
ENDBRANCH   9  29
TORSDOF 5
ENDMDL
MODEL 5
REMARK VINA RESULT:      -7.6      2.482      6.904
REMARK  5 active torsions:
REMARK  status: ('A' for Active; 'I' for Inactive)
REMARK    1  A    between atoms: C7_9  and  N3_10 
REMARK    2  A    between atoms: N3_10  and  C8_11 
REMARK    3  A    between atoms: C8_11  and  C9_12 
REMARK    4  A    between atoms: C13_18  and  N4_19 
REMARK    5  A    between atoms: C21_29  and  C22_31 
ROOT
HETATM    1  C1  UNL     1      26.793   2.786  50.760  1.00  0.00     0.071 C 
HETATM    2  C2  UNL     1      25.931   1.882  51.588  1.00  0.00     0.044 C 
HETATM    3  N1  UNL     1      26.400   0.664  51.809  1.00  0.00    -0.246 NA
HETATM    4  C3  UNL     1      25.920  -0.211  52.877  1.00  0.00     0.235 C 
HETATM    5  N2  UNL     1      24.810  -0.150  53.632  1.00  0.00    -0.230 NA
HETATM    6  C4  UNL     1      23.749   0.780  53.454  1.00  0.00     0.111 C 
HETATM    7  C5  UNL     1      24.175   2.109  53.422  1.00  0.00     0.060 C 
HETATM    8  C6  UNL     1      24.669   2.518  52.053  1.00  0.00     0.016 C 
HETATM    9  C7  UNL     1      24.124   3.296  51.076  1.00  0.00     0.041 C 
HETATM   10  C10 UNL     1      22.957   4.161  51.382  1.00  0.00     0.225 C 
HETATM   11  O2  UNL     1      21.830   3.833  50.659  1.00  0.00    -0.385 OA
HETATM   12  C11 UNL     1      20.800   4.601  51.241  1.00  0.00     0.173 C 
HETATM   13  C12 UNL     1      19.425   4.102  51.000  1.00  0.00     0.080 C 
HETATM   14  C13 UNL     1      19.078   2.732  51.468  1.00  0.00     0.012 C 
HETATM   15  C18 UNL     1      19.100   1.491  51.998  1.00  0.00     0.093 A 
HETATM   16  C19 UNL     1      20.522   1.666  52.369  1.00  0.00     0.068 A 
HETATM   17  C20 UNL     1      21.665   1.185  52.801  1.00  0.00     0.140 A 
HETATM   18  N5  UNL     1      22.461   0.134  53.271  1.00  0.00    -0.218 NA
HETATM   19  C21 UNL     1      21.103  -0.133  52.960  1.00  0.00     0.205 A 
HETATM   20  F1  UNL     1      21.050  -1.427  53.269  1.00  0.00    -0.221 F 
HETATM   21  C22 UNL     1      20.067   0.526  52.505  1.00  0.00     0.103 A 
HETATM   22 CL1  UNL     1      18.631  -0.517  52.345  1.00  0.00    -0.187 Cl
ENDROOT
BRANCH  14  23
HETATM   23  N4  UNL     1      17.683   2.539  51.124  1.00  0.00    -0.382 N 
HETATM   24  C14 UNL     1      16.660   3.182  51.957  1.00  0.00     0.148 C 
HETATM   25  C15 UNL     1      15.800   4.088  51.096  1.00  0.00     0.187 C 
HETATM   26  O3  UNL     1      15.981   3.786  49.730  1.00  0.00    -0.388 OA
HETATM   27  C16 UNL     1      15.868   2.426  49.505  1.00  0.00     0.187 C 
HETATM   28  C17 UNL     1      17.129   1.759  50.006  1.00  0.00     0.148 C 
ENDBRANCH  14  23
BRANCH   9  29
HETATM   29  N3  UNL     1      24.505   3.577  49.783  1.00  0.00    -0.384 N 
HETATM   30  H6  UNL     1      24.961   2.642  49.649  1.00  0.00     0.159 HD
BRANCH  29  31
HETATM   31  C8  UNL     1      24.271   4.759  49.005  1.00  0.00     0.189 C 
BRANCH  31  32
HETATM   32  C9  UNL     1      25.583   5.478  48.958  1.00  0.00     0.250 C 
HETATM   33  O1  UNL     1      25.627   6.156  49.994  1.00  0.00    -0.305 OA
ENDBRANCH  31  32
ENDBRANCH  29  31
ENDBRANCH   9  29
TORSDOF 5
ENDMDL
MODEL 6
REMARK VINA RESULT:      -7.5      4.056      8.182
REMARK  5 active torsions:
REMARK  status: ('A' for Active; 'I' for Inactive)
REMARK    1  A    between atoms: C7_9  and  N3_10 
REMARK    2  A    between atoms: N3_10  and  C8_11 
REMARK    3  A    between atoms: C8_11  and  C9_12 
REMARK    4  A    between atoms: C13_18  and  N4_19 
REMARK    5  A    between atoms: C21_29  and  C22_31 
ROOT
HETATM    1  C1  UNL     1      24.153   1.214  52.011  1.00  0.00     0.071 C 
HETATM    2  C2  UNL     1      23.121   0.458  52.791  1.00  0.00     0.044 C 
HETATM    3  N1  UNL     1      23.549  -0.602  53.459  1.00  0.00    -0.246 NA
HETATM    4  C3  UNL     1      22.811  -1.225  54.555  1.00  0.00     0.235 C 
HETATM    5  N2  UNL     1      21.527  -1.102  54.933  1.00  0.00    -0.230 NA
HETATM    6  C4  UNL     1      20.531  -0.375  54.224  1.00  0.00     0.111 C 
HETATM    7  C5  UNL     1      20.899   0.942  53.942  1.00  0.00     0.060 C 
HETATM    8  C6  UNL     1      21.756   1.042  52.701  1.00  0.00     0.016 C 
HETATM    9  C7  UNL     1      21.492   1.478  51.438  1.00  0.00     0.041 C 
HETATM   10  C10 UNL     1      20.256   2.253  51.163  1.00  0.00     0.225 C 
HETATM   11  O2  UNL     1      19.402   1.625  50.282  1.00  0.00    -0.385 OA
HETATM   12  C11 UNL     1      18.219   2.393  50.326  1.00  0.00     0.173 C 
HETATM   13  C12 UNL     1      16.994   1.695  49.869  1.00  0.00     0.080 C 
HETATM   14  C13 UNL     1      16.576   0.458  50.586  1.00  0.00     0.012 C 
HETATM   15  C18 UNL     1      16.487  -0.596  51.423  1.00  0.00     0.093 A 
HETATM   16  C19 UNL     1      17.731  -0.171  52.104  1.00  0.00     0.068 A 
HETATM   17  C20 UNL     1      18.715  -0.392  52.945  1.00  0.00     0.140 A 
HETATM   18  N5  UNL     1      19.377  -1.190  53.885  1.00  0.00    -0.218 NA
HETATM   19  C21 UNL     1      18.180  -1.681  53.303  1.00  0.00     0.205 A 
HETATM   20  F1  UNL     1      18.086  -2.851  53.932  1.00  0.00    -0.221 F 
HETATM   21  C22 UNL     1      17.299  -1.282  52.420  1.00  0.00     0.103 A 
HETATM   22 CL1  UNL     1      16.011  -2.489  52.172  1.00  0.00    -0.187 Cl
ENDROOT
BRANCH  14  23
HETATM   23  N4  UNL     1      15.350   0.025  49.944  1.00  0.00    -0.382 N 
HETATM   24  C14 UNL     1      14.077   0.245  50.642  1.00  0.00     0.148 C 
HETATM   25  C15 UNL     1      13.159   1.083  49.772  1.00  0.00     0.187 C 
HETATM   26  O3  UNL     1      13.626   1.103  48.440  1.00  0.00    -0.388 OA
HETATM   27  C16 UNL     1      13.904  -0.177  47.996  1.00  0.00     0.187 C 
HETATM   28  C17 UNL     1      15.200  -0.626  48.633  1.00  0.00     0.148 C 
ENDBRANCH  14  23
BRANCH   9  29
HETATM   29  N3  UNL     1      22.223   1.462  50.271  1.00  0.00    -0.384 N 
HETATM   30  H6  UNL     1      22.472   0.448  50.369  1.00  0.00     0.159 HD
BRANCH  29  31
HETATM   31  C8  UNL     1      22.458   2.522  49.333  1.00  0.00     0.189 C 
BRANCH  31  32
HETATM   32  C9  UNL     1      22.384   1.888  47.979  1.00  0.00     0.250 C 
HETATM   33  O1  UNL     1      21.701   0.866  48.129  1.00  0.00    -0.305 OA
ENDBRANCH  31  32
ENDBRANCH  29  31
ENDBRANCH   9  29
TORSDOF 5
ENDMDL
MODEL 7
REMARK VINA RESULT:      -7.4      3.940      6.616
REMARK  5 active torsions:
REMARK  status: ('A' for Active; 'I' for Inactive)
REMARK    1  A    between atoms: C7_9  and  N3_10 
REMARK    2  A    between atoms: N3_10  and  C8_11 
REMARK    3  A    between atoms: C8_11  and  C9_12 
REMARK    4  A    between atoms: C13_18  and  N4_19 
REMARK    5  A    between atoms: C21_29  and  C22_31 
ROOT
HETATM    1  C1  UNL     1      18.221  -0.517  51.717  1.00  0.00     0.071 C 
HETATM    2  C2  UNL     1      19.511   0.025  52.253  1.00  0.00     0.044 C 
HETATM    3  N1  UNL     1      19.658  -0.001  53.568  1.00  0.00    -0.246 NA
HETATM    4  C3  UNL     1      20.949   0.112  54.245  1.00  0.00     0.235 C 
HETATM    5  N2  UNL     1      22.144   0.527  53.794  1.00  0.00    -0.230 NA
HETATM    6  C4  UNL     1      22.386   1.086  52.509  1.00  0.00     0.111 C 
HETATM    7  C5  UNL     1      21.919   0.290  51.460  1.00  0.00     0.060 C 
HETATM    8  C6  UNL     1      20.445   0.500  51.197  1.00  0.00     0.016 C 
HETATM    9  C7  UNL     1      19.775   1.151  50.206  1.00  0.00     0.041 C 
HETATM   10  C10 UNL     1      20.488   1.554  48.969  1.00  0.00     0.225 C 
HETATM   11  O2  UNL     1      20.514   2.919  48.773  1.00  0.00    -0.385 OA
HETATM   12  C11 UNL     1      21.406   3.106  47.696  1.00  0.00     0.173 C 
HETATM   13  C12 UNL     1      21.993   4.463  47.589  1.00  0.00     0.080 C 
HETATM   14  C13 UNL     1      22.793   4.979  48.734  1.00  0.00     0.012 C 
HETATM   15  C18 UNL     1      23.433   5.135  49.911  1.00  0.00     0.093 A 
HETATM   16  C19 UNL     1      22.986   3.792  50.342  1.00  0.00     0.068 A 
HETATM   17  C20 UNL     1      22.841   2.870  51.265  1.00  0.00     0.140 A 
HETATM   18  N5  UNL     1      23.002   2.400  52.574  1.00  0.00    -0.218 NA
HETATM   19  C21 UNL     1      23.483   3.696  52.256  1.00  0.00     0.205 A 
HETATM   20  F1  UNL     1      23.985   4.047  53.439  1.00  0.00    -0.221 F 
HETATM   21  C22 UNL     1      23.523   4.484  51.212  1.00  0.00     0.103 A 
HETATM   22 CL1  UNL     1      24.301   6.044  51.583  1.00  0.00    -0.187 Cl
ENDROOT
BRANCH  14  23
HETATM   23  N4  UNL     1      23.253   6.294  48.332  1.00  0.00    -0.382 N 
HETATM   24  C14 UNL     1      22.252   7.315  47.999  1.00  0.00     0.148 C 
HETATM   25  C15 UNL     1      22.445   8.526  48.893  1.00  0.00     0.187 C 
HETATM   26  O3  UNL     1      23.711   8.482  49.514  1.00  0.00    -0.388 OA
HETATM   27  C16 UNL     1      24.707   8.230  48.588  1.00  0.00     0.187 C 
HETATM   28  C17 UNL     1      24.641   6.767  48.212  1.00  0.00     0.148 C 
ENDBRANCH  14  23
BRANCH   9  29
HETATM   29  N3  UNL     1      18.444   1.453  50.019  1.00  0.00    -0.384 N 
HETATM   30  H6  UNL     1      18.173   0.449  49.882  1.00  0.00     0.159 HD
BRANCH  29  31
HETATM   31  C8  UNL     1      17.790   2.729  50.052  1.00  0.00     0.189 C 
BRANCH  31  32
HETATM   32  C9  UNL     1      17.434   2.964  51.487  1.00  0.00     0.250 C 
HETATM   33  O1  UNL     1      18.371   3.623  51.958  1.00  0.00    -0.305 OA
ENDBRANCH  31  32
ENDBRANCH  29  31
ENDBRANCH   9  29
TORSDOF 5
ENDMDL
MODEL 8
REMARK VINA RESULT:      -7.2      9.751     12.861
REMARK  5 active torsions:
REMARK  status: ('A' for Active; 'I' for Inactive)
REMARK    1  A    between atoms: C7_9  and  N3_10 
REMARK    2  A    between atoms: N3_10  and  C8_11 
REMARK    3  A    between atoms: C8_11  and  C9_12 
REMARK    4  A    between atoms: C13_18  and  N4_19 
REMARK    5  A    between atoms: C21_29  and  C22_31 
ROOT
HETATM    1  C1  UNL     1      35.411   4.594  45.045  1.00  0.00     0.071 C 
HETATM    2  C2  UNL     1      34.231   4.354  45.937  1.00  0.00     0.044 C 
HETATM    3  N1  UNL     1      33.677   3.154  45.868  1.00  0.00    -0.246 NA
HETATM    4  C3  UNL     1      32.796   2.603  46.896  1.00  0.00     0.235 C 
HETATM    5  N2  UNL     1      32.147   3.201  47.908  1.00  0.00    -0.230 NA
HETATM    6  C4  UNL     1      32.091   4.605  48.131  1.00  0.00     0.111 C 
HETATM    7  C5  UNL     1      33.349   5.211  48.169  1.00  0.00     0.060 C 
HETATM    8  C6  UNL     1      33.875   5.522  46.787  1.00  0.00     0.016 C 
HETATM    9  C7  UNL     1      33.997   6.688  46.093  1.00  0.00     0.041 C 
HETATM   10  C10 UNL     1      33.860   7.988  46.797  1.00  0.00     0.225 C 
HETATM   11  O2  UNL     1      32.799   8.744  46.346  1.00  0.00    -0.385 OA
HETATM   12  C11 UNL     1      32.706   9.808  47.267  1.00  0.00     0.173 C 
HETATM   13  C12 UNL     1      31.389  10.488  47.319  1.00  0.00     0.080 C 
HETATM   14  C13 UNL     1      30.190   9.679  47.673  1.00  0.00     0.012 C 
HETATM   15  C18 UNL     1      29.341   8.687  48.009  1.00  0.00     0.093 A 
HETATM   16  C19 UNL     1      30.462   7.721  48.028  1.00  0.00     0.068 A 
HETATM   17  C20 UNL     1      30.921   6.492  48.088  1.00  0.00     0.140 A 
HETATM   18  N5  UNL     1      30.731   5.110  48.197  1.00  0.00    -0.218 NA
HETATM   19  C21 UNL     1      29.590   5.953  48.207  1.00  0.00     0.205 A 
HETATM   20  F1  UNL     1      28.633   5.037  48.344  1.00  0.00    -0.221 F 
HETATM   21  C22 UNL     1      29.332   7.234  48.121  1.00  0.00     0.103 A 
HETATM   22 CL1  UNL     1      27.583   7.568  48.194  1.00  0.00    -0.187 Cl
ENDROOT
BRANCH  14  23
HETATM   23  N4  UNL     1      29.075  10.606  47.671  1.00  0.00    -0.382 N 
HETATM   24  C14 UNL     1      28.590  11.121  48.958  1.00  0.00     0.148 C 
HETATM   25  C15 UNL     1      28.664  12.637  48.957  1.00  0.00     0.187 C 
HETATM   26  O3  UNL     1      28.823  13.122  47.642  1.00  0.00    -0.388 OA
HETATM   27  C16 UNL     1      27.899  12.547  46.789  1.00  0.00     0.187 C 
HETATM   28  C17 UNL     1      28.336  11.126  46.510  1.00  0.00     0.148 C 
ENDBRANCH  14  23
BRANCH   9  29
HETATM   29  N3  UNL     1      34.359   6.970  44.795  1.00  0.00    -0.384 N 
HETATM   30  H6  UNL     1      35.340   6.625  44.929  1.00  0.00     0.159 HD
BRANCH  29  31
HETATM   31  C8  UNL     1      33.568   7.517  43.731  1.00  0.00     0.189 C 
BRANCH  31  32
HETATM   32  C9  UNL     1      32.417   6.575  43.557  1.00  0.00     0.250 C 
HETATM   33  O1  UNL     1      32.826   5.690  42.793  1.00  0.00    -0.305 OA
ENDBRANCH  31  32
ENDBRANCH  29  31
ENDBRANCH   9  29
TORSDOF 5
ENDMDL
MODEL 9
REMARK VINA RESULT:      -7.1      4.143      6.422
REMARK  5 active torsions:
REMARK  status: ('A' for Active; 'I' for Inactive)
REMARK    1  A    between atoms: C7_9  and  N3_10 
REMARK    2  A    between atoms: N3_10  and  C8_11 
REMARK    3  A    between atoms: C8_11  and  C9_12 
REMARK    4  A    between atoms: C13_18  and  N4_19 
REMARK    5  A    between atoms: C21_29  and  C22_31 
ROOT
HETATM    1  C1  UNL     1      17.931  -0.995  52.981  1.00  0.00     0.071 C 
HETATM    2  C2  UNL     1      17.797  -0.179  51.732  1.00  0.00     0.044 C 
HETATM    3  N1  UNL     1      17.053  -0.699  50.767  1.00  0.00    -0.246 NA
HETATM    4  C3  UNL     1      16.493   0.078  49.663  1.00  0.00     0.235 C 
HETATM    5  N2  UNL     1      16.793   1.308  49.213  1.00  0.00    -0.230 NA
HETATM    6  C4  UNL     1      17.868   2.112  49.681  1.00  0.00     0.111 C 
HETATM    7  C5  UNL     1      17.873   2.281  51.067  1.00  0.00     0.060 C 
HETATM    8  C6  UNL     1      18.524   1.118  51.782  1.00  0.00     0.016 C 
HETATM    9  C7  UNL     1      19.731   0.980  52.396  1.00  0.00     0.041 C 
HETATM   10  C10 UNL     1      20.545   2.180  52.712  1.00  0.00     0.225 C 
HETATM   11  O2  UNL     1      21.761   2.203  52.061  1.00  0.00    -0.385 OA
HETATM   12  C11 UNL     1      22.271   3.494  52.309  1.00  0.00     0.173 C 
HETATM   13  C12 UNL     1      23.305   3.960  51.353  1.00  0.00     0.080 C 
HETATM   14  C13 UNL     1      22.944   4.052  49.911  1.00  0.00     0.012 C 
HETATM   15  C18 UNL     1      22.307   4.015  48.723  1.00  0.00     0.093 A 
HETATM   16  C19 UNL     1      21.083   3.509  49.384  1.00  0.00     0.068 A 
HETATM   17  C20 UNL     1      19.877   2.994  49.330  1.00  0.00     0.140 A 
HETATM   18  N5  UNL     1      18.770   2.521  48.617  1.00  0.00    -0.218 NA
HETATM   19  C21 UNL     1      19.888   3.003  47.889  1.00  0.00     0.205 A 
HETATM   20  F1  UNL     1      19.440   2.829  46.647  1.00  0.00    -0.221 F 
HETATM   21  C22 UNL     1      21.071   3.497  48.150  1.00  0.00     0.103 A 
HETATM   22 CL1  UNL     1      21.977   3.878  46.662  1.00  0.00    -0.187 Cl
ENDROOT
BRANCH  14  23
HETATM   23  N4  UNL     1      24.126   4.556  49.240  1.00  0.00    -0.382 N 
HETATM   24  C14 UNL     1      24.034   5.834  48.524  1.00  0.00     0.148 C 
HETATM   25  C15 UNL     1      25.057   6.805  49.085  1.00  0.00     0.187 C 
HETATM   26  O3  UNL     1      26.019   6.117  49.854  1.00  0.00    -0.388 OA
HETATM   27  C16 UNL     1      26.514   5.025  49.163  1.00  0.00     0.187 C 
HETATM   28  C17 UNL     1      25.460   3.940  49.180  1.00  0.00     0.148 C 
ENDBRANCH  14  23
BRANCH   9  29
HETATM   29  N3  UNL     1      20.384  -0.103  52.943  1.00  0.00    -0.384 N 
HETATM   30  H6  UNL     1      20.237  -0.698  52.092  1.00  0.00     0.159 HD
BRANCH  29  31
HETATM   31  C8  UNL     1      21.019  -0.228  54.223  1.00  0.00     0.189 C 
BRANCH  31  32
HETATM   32  C9  UNL     1      21.807  -1.499  54.161  1.00  0.00     0.250 C 
HETATM   33  O1  UNL     1      22.061  -1.789  55.338  1.00  0.00    -0.305 OA
ENDBRANCH  31  32
ENDBRANCH  29  31
ENDBRANCH   9  29
TORSDOF 5
ENDMDL
