MODEL 1
REMARK VINA RESULT:      -7.5      0.000      0.000
REMARK  7 active torsions:
REMARK  status: ('A' for Active; 'I' for Inactive)
REMARK    1  A    between atoms: C2_2  and  N1_3 
REMARK    2  A    between atoms: C5_7  and  N3_8 
REMARK    3  A    between atoms: N3_8  and  C6_9 
REMARK    4  A    between atoms: C12_17  and  N6_18 
REMARK    5  A    between atoms: N6_18  and  C13_19 
REMARK    6  A    between atoms: C13_19  and  C14_20 
REMARK    7  A    between atoms: C14_20  and  N7_21 
ROOT
HETATM    1  C6  UNL     1      25.246   4.001  49.588  1.00  0.00     0.046 A 
HETATM    2  C7  UNL     1      25.080   5.302  49.473  1.00  0.00     0.005 A 
HETATM    3  C8  UNL     1      26.117   5.954  49.017  1.00  0.00     0.037 A 
HETATM    4  C9  UNL     1      27.174   4.933  48.878  1.00  0.00     0.047 A 
HETATM    5  C10 UNL     1      28.529   5.126  48.453  1.00  0.00     0.099 C 
HETATM    6  N4  UNL     1      29.633   5.269  48.100  1.00  0.00    -0.191 NA
HETATM    7  C11 UNL     1      26.659   3.776  49.215  1.00  0.00     0.053 A 
ENDROOT
BRANCH   1   8
HETATM    8  N3  UNL     1      24.276   3.042  49.983  1.00  0.00    -0.338 N 
HETATM    9  H7  UNL     1      23.416   2.768  49.439  1.00  0.00     0.167 HD
BRANCH   8  10
HETATM   10  C5  UNL     1      24.485   2.391  51.238  1.00  0.00     0.180 A 
HETATM   11  C4  UNL     1      23.600   1.463  51.757  1.00  0.00     0.151 A 
HETATM   12  N2  UNL     1      22.435   0.997  51.245  1.00  0.00    -0.236 NA
HETATM   13  C15 UNL     1      23.758   0.816  52.948  1.00  0.00     0.182 A 
HETATM   14  C3  UNL     1      21.911   0.093  52.112  1.00  0.00     0.212 A 
HETATM   15  N1  UNL     1      22.731  -0.028  53.183  1.00  0.00    -0.324 N 
HETATM   16  N8  UNL     1      24.886   1.162  53.613  1.00  0.00    -0.042 NA
HETATM   17  C12 UNL     1      25.770   2.046  53.162  1.00  0.00     0.726 A 
HETATM   18  N5  UNL     1      25.584   2.673  51.972  1.00  0.00    -0.043 NA
BRANCH  15  19
HETATM   19  C2  UNL     1      22.600  -0.865  54.369  1.00  0.00     0.127 C 
HETATM   20  C1  UNL     1      21.248  -1.542  54.436  1.00  0.00     0.027 C 
ENDBRANCH  15  19
BRANCH  17  21
HETATM   21  N6  UNL     1      26.952   2.375  53.910  1.00  0.00    -0.221 N 
HETATM   22  H10 UNL     1      26.836   2.930  54.800  1.00  0.00     0.177 HD
BRANCH  21  23
HETATM   23  C13 UNL     1      28.215   1.932  53.410  1.00  0.00     0.168 C 
BRANCH  23  24
HETATM   24  C14 UNL     1      28.255   0.417  53.500  1.00  0.00     0.286 C 
BRANCH  24  25
HETATM   25  N7  UNL     1      27.862   0.060  54.850  1.00  0.00     0.079 N 
HETATM   26  H15 UNL     1      27.394  -0.889  54.778  1.00  0.00     0.312 HD
HETATM   27  H16 UNL     1      28.752  -0.079  55.387  1.00  0.00     0.312 HD
ENDBRANCH  24  25
ENDBRANCH  23  24
ENDBRANCH  21  23
ENDBRANCH  17  21
ENDBRANCH   8  10
ENDBRANCH   1   8
TORSDOF 7
ENDMDL
MODEL 2
REMARK VINA RESULT:      -7.3      2.233      5.076
REMARK  7 active torsions:
REMARK  status: ('A' for Active; 'I' for Inactive)
REMARK    1  A    between atoms: C2_2  and  N1_3 
REMARK    2  A    between atoms: C5_7  and  N3_8 
REMARK    3  A    between atoms: N3_8  and  C6_9 
REMARK    4  A    between atoms: C12_17  and  N6_18 
REMARK    5  A    between atoms: N6_18  and  C13_19 
REMARK    6  A    between atoms: C13_19  and  C14_20 
REMARK    7  A    between atoms: C14_20  and  N7_21 
ROOT
HETATM    1  C6  UNL     1      26.073  -0.467  54.009  1.00  0.00     0.046 A 
HETATM    2  C7  UNL     1      26.920  -0.933  53.116  1.00  0.00     0.005 A 
HETATM    3  C8  UNL     1      28.114  -0.403  53.155  1.00  0.00     0.037 A 
HETATM    4  C9  UNL     1      28.029   0.642  54.195  1.00  0.00     0.047 A 
HETATM    5  C10 UNL     1      29.055   1.553  54.609  1.00  0.00     0.099 C 
HETATM    6  N4  UNL     1      29.885   2.293  54.962  1.00  0.00    -0.191 NA
HETATM    7  C11 UNL     1      26.821   0.604  54.702  1.00  0.00     0.053 A 
ENDROOT
BRANCH   1   8
HETATM    8  N3  UNL     1      24.743  -0.907  54.243  1.00  0.00    -0.338 N 
HETATM    9  H7  UNL     1      24.443  -1.636  54.943  1.00  0.00     0.167 HD
BRANCH   8  10
HETATM   10  C5  UNL     1      23.716  -0.305  53.453  1.00  0.00     0.180 A 
HETATM   11  C4  UNL     1      22.381  -0.648  53.572  1.00  0.00     0.151 A 
HETATM   12  N2  UNL     1      21.789  -1.554  54.389  1.00  0.00    -0.236 NA
HETATM   13  C15 UNL     1      21.367  -0.101  52.842  1.00  0.00     0.182 A 
HETATM   14  C3  UNL     1      20.453  -1.545  54.150  1.00  0.00     0.212 A 
HETATM   15  N1  UNL     1      20.177  -0.640  53.182  1.00  0.00    -0.324 N 
HETATM   16  N8  UNL     1      21.776   0.839  51.956  1.00  0.00    -0.042 NA
HETATM   17  C12 UNL     1      23.043   1.208  51.801  1.00  0.00     0.726 A 
HETATM   18  N5  UNL     1      24.030   0.644  52.544  1.00  0.00    -0.043 NA
BRANCH  15  19
HETATM   19  C2  UNL     1      18.899  -0.271  52.586  1.00  0.00     0.127 C 
HETATM   20  C1  UNL     1      17.790  -1.214  53.000  1.00  0.00     0.027 C 
ENDBRANCH  15  19
BRANCH  17  21
HETATM   21  N6  UNL     1      23.421   2.212  50.845  1.00  0.00    -0.221 N 
HETATM   22  H10 UNL     1      23.053   2.123  49.861  1.00  0.00     0.177 HD
BRANCH  21  23
HETATM   23  C13 UNL     1      24.271   3.276  51.280  1.00  0.00     0.168 C 
BRANCH  23  24
HETATM   24  C14 UNL     1      25.632   3.088  50.634  1.00  0.00     0.286 C 
BRANCH  24  25
HETATM   25  N7  UNL     1      26.566   2.764  51.697  1.00  0.00     0.079 N 
HETATM   26  H15 UNL     1      26.563   3.597  52.353  1.00  0.00     0.312 HD
HETATM   27  H16 UNL     1      26.145   1.961  52.222  1.00  0.00     0.312 HD
ENDBRANCH  24  25
ENDBRANCH  23  24
ENDBRANCH  21  23
ENDBRANCH  17  21
ENDBRANCH   8  10
ENDBRANCH   1   8
TORSDOF 7
ENDMDL
MODEL 3
REMARK VINA RESULT:      -7.3      2.012      5.285
REMARK  7 active torsions:
REMARK  status: ('A' for Active; 'I' for Inactive)
REMARK    1  A    between atoms: C2_2  and  N1_3 
REMARK    2  A    between atoms: C5_7  and  N3_8 
REMARK    3  A    between atoms: N3_8  and  C6_9 
REMARK    4  A    between atoms: C12_17  and  N6_18 
REMARK    5  A    between atoms: N6_18  and  C13_19 
REMARK    6  A    between atoms: C13_19  and  C14_20 
REMARK    7  A    between atoms: C14_20  and  N7_21 
ROOT
HETATM    1  C6  UNL     1      26.923   1.741  53.638  1.00  0.00     0.046 A 
HETATM    2  C7  UNL     1      28.176   2.142  53.596  1.00  0.00     0.005 A 
HETATM    3  C8  UNL     1      29.058   1.188  53.454  1.00  0.00     0.037 A 
HETATM    4  C9  UNL     1      28.271  -0.061  53.482  1.00  0.00     0.047 A 
HETATM    5  C10 UNL     1      28.759  -1.407  53.406  1.00  0.00     0.099 C 
HETATM    6  N4  UNL     1      29.142  -2.507  53.335  1.00  0.00    -0.191 NA
HETATM    7  C11 UNL     1      27.007   0.266  53.591  1.00  0.00     0.053 A 
ENDROOT
BRANCH   1   8
HETATM    8  N3  UNL     1      25.762   2.556  53.712  1.00  0.00    -0.338 N 
HETATM    9  H7  UNL     1      25.461   3.134  54.541  1.00  0.00     0.167 HD
BRANCH   8  10
HETATM   10  C5  UNL     1      24.924   2.593  52.556  1.00  0.00     0.180 A 
HETATM   11  C4  UNL     1      23.860   1.728  52.374  1.00  0.00     0.151 A 
HETATM   12  N2  UNL     1      23.405   0.733  53.176  1.00  0.00    -0.236 NA
HETATM   13  C15 UNL     1      23.032   1.726  51.289  1.00  0.00     0.182 A 
HETATM   14  C3  UNL     1      22.332   0.153  52.580  1.00  0.00     0.212 A 
HETATM   15  N1  UNL     1      22.089   0.766  51.398  1.00  0.00    -0.324 N 
HETATM   16  N8  UNL     1      23.340   2.668  50.365  1.00  0.00    -0.042 NA
HETATM   17  C12 UNL     1      24.349   3.524  50.488  1.00  0.00     0.726 A 
HETATM   18  N5  UNL     1      25.154   3.500  51.582  1.00  0.00    -0.043 NA
BRANCH  15  19
HETATM   19  C2  UNL     1      21.055   0.504  50.405  1.00  0.00     0.127 C 
HETATM   20  C1  UNL     1      19.666   0.709  50.969  1.00  0.00     0.027 C 
ENDBRANCH  15  19
BRANCH  17  21
HETATM   21  N6  UNL     1      24.630   4.504  49.476  1.00  0.00    -0.221 N 
HETATM   22  H10 UNL     1      24.430   4.250  48.472  1.00  0.00     0.177 HD
BRANCH  21  23
HETATM   23  C13 UNL     1      25.161   5.767  49.884  1.00  0.00     0.168 C 
BRANCH  23  24
HETATM   24  C14 UNL     1      24.041   6.566  50.526  1.00  0.00     0.286 C 
BRANCH  24  25
HETATM   25  N7  UNL     1      24.441   6.836  51.895  1.00  0.00     0.079 N 
HETATM   26  H15 UNL     1      24.784   7.839  51.907  1.00  0.00     0.312 HD
HETATM   27  H16 UNL     1      23.563   6.808  52.467  1.00  0.00     0.312 HD
ENDBRANCH  24  25
ENDBRANCH  23  24
ENDBRANCH  21  23
ENDBRANCH  17  21
ENDBRANCH   8  10
ENDBRANCH   1   8
TORSDOF 7
ENDMDL
MODEL 4
REMARK VINA RESULT:      -7.2      2.010      5.764
REMARK  7 active torsions:
REMARK  status: ('A' for Active; 'I' for Inactive)
REMARK    1  A    between atoms: C2_2  and  N1_3 
REMARK    2  A    between atoms: C5_7  and  N3_8 
REMARK    3  A    between atoms: N3_8  and  C6_9 
REMARK    4  A    between atoms: C12_17  and  N6_18 
REMARK    5  A    between atoms: N6_18  and  C13_19 
REMARK    6  A    between atoms: C13_19  and  C14_20 
REMARK    7  A    between atoms: C14_20  and  N7_21 
ROOT
HETATM    1  C6  UNL     1      26.909   1.854  53.460  1.00  0.00     0.046 A 
HETATM    2  C7  UNL     1      28.173   2.214  53.540  1.00  0.00     0.005 A 
HETATM    3  C8  UNL     1      29.034   1.234  53.464  1.00  0.00     0.037 A 
HETATM    4  C9  UNL     1      28.209   0.011  53.400  1.00  0.00     0.047 A 
HETATM    5  C10 UNL     1      28.659  -1.349  53.347  1.00  0.00     0.099 C 
HETATM    6  N4  UNL     1      29.012  -2.460  53.294  1.00  0.00    -0.191 NA
HETATM    7  C11 UNL     1      26.951   0.378  53.397  1.00  0.00     0.053 A 
ENDROOT
BRANCH   1   8
HETATM    8  N3  UNL     1      25.773   2.706  53.440  1.00  0.00    -0.338 N 
HETATM    9  H7  UNL     1      25.645   3.586  54.007  1.00  0.00     0.167 HD
BRANCH   8  10
HETATM   10  C5  UNL     1      24.701   2.333  52.572  1.00  0.00     0.180 A 
HETATM   11  C4  UNL     1      24.462   2.961  51.363  1.00  0.00     0.151 A 
HETATM   12  N2  UNL     1      25.127   3.985  50.773  1.00  0.00    -0.236 NA
HETATM   13  C15 UNL     1      23.454   2.640  50.502  1.00  0.00     0.182 A 
HETATM   14  C3  UNL     1      24.526   4.266  49.589  1.00  0.00     0.212 A 
HETATM   15  N1  UNL     1      23.477   3.430  49.408  1.00  0.00    -0.324 N 
HETATM   16  N8  UNL     1      22.671   1.620  50.933  1.00  0.00    -0.042 NA
HETATM   17  C12 UNL     1      22.855   0.981  52.083  1.00  0.00     0.726 A 
HETATM   18  N5  UNL     1      23.869   1.326  52.918  1.00  0.00    -0.043 NA
BRANCH  15  19
HETATM   19  C2  UNL     1      22.533   3.341  48.301  1.00  0.00     0.127 C 
HETATM   20  C1  UNL     1      22.640   2.019  47.573  1.00  0.00     0.027 C 
ENDBRANCH  15  19
BRANCH  17  21
HETATM   21  N6  UNL     1      21.994  -0.094  52.490  1.00  0.00    -0.221 N 
HETATM   22  H10 UNL     1      21.104  -0.250  51.945  1.00  0.00     0.177 HD
BRANCH  21  23
HETATM   23  C13 UNL     1      22.389  -0.894  53.607  1.00  0.00     0.168 C 
BRANCH  23  24
HETATM   24  C14 UNL     1      21.156  -1.176  54.447  1.00  0.00     0.286 C 
BRANCH  24  25
HETATM   25  N7  UNL     1      20.673   0.101  54.937  1.00  0.00     0.079 N 
HETATM   26  H15 UNL     1      21.184   0.277  55.850  1.00  0.00     0.312 HD
HETATM   27  H16 UNL     1      21.010   0.823  54.255  1.00  0.00     0.312 HD
ENDBRANCH  24  25
ENDBRANCH  23  24
ENDBRANCH  21  23
ENDBRANCH  17  21
ENDBRANCH   8  10
ENDBRANCH   1   8
TORSDOF 7
ENDMDL
MODEL 5
REMARK VINA RESULT:      -7.0      1.793      6.317
REMARK  7 active torsions:
REMARK  status: ('A' for Active; 'I' for Inactive)
REMARK    1  A    between atoms: C2_2  and  N1_3 
REMARK    2  A    between atoms: C5_7  and  N3_8 
REMARK    3  A    between atoms: N3_8  and  C6_9 
REMARK    4  A    between atoms: C12_17  and  N6_18 
REMARK    5  A    between atoms: N6_18  and  C13_19 
REMARK    6  A    between atoms: C13_19  and  C14_20 
REMARK    7  A    between atoms: C14_20  and  N7_21 
ROOT
HETATM    1  C6  UNL     1      22.541   1.651  52.260  1.00  0.00     0.046 A 
HETATM    2  C7  UNL     1      22.681   1.274  51.007  1.00  0.00     0.005 A 
HETATM    3  C8  UNL     1      21.625   0.718  50.474  1.00  0.00     0.037 A 
HETATM    4  C9  UNL     1      20.643   0.642  51.573  1.00  0.00     0.047 A 
HETATM    5  C10 UNL     1      19.326   0.077  51.536  1.00  0.00     0.099 C 
HETATM    6  N4  UNL     1      18.249  -0.371  51.515  1.00  0.00    -0.191 NA
HETATM    7  C11 UNL     1      21.184   1.194  52.631  1.00  0.00     0.053 A 
ENDROOT
BRANCH   1   8
HETATM    8  N3  UNL     1      23.489   2.340  53.062  1.00  0.00    -0.338 N 
HETATM    9  H7  UNL     1      23.285   2.860  53.957  1.00  0.00     0.167 HD
BRANCH   8  10
HETATM   10  C5  UNL     1      24.845   2.331  52.611  1.00  0.00     0.180 A 
HETATM   11  C4  UNL     1      25.839   1.605  53.241  1.00  0.00     0.151 A 
HETATM   12  N2  UNL     1      25.767   0.806  54.334  1.00  0.00    -0.236 NA
HETATM   13  C15 UNL     1      27.144   1.564  52.847  1.00  0.00     0.182 A 
HETATM   14  C3  UNL     1      27.003   0.302  54.585  1.00  0.00     0.212 A 
HETATM   15  N1  UNL     1      27.874   0.770  53.660  1.00  0.00    -0.324 N 
HETATM   16  N8  UNL     1      27.408   2.316  51.751  1.00  0.00    -0.042 NA
HETATM   17  C12 UNL     1      26.493   3.032  51.107  1.00  0.00     0.726 A 
HETATM   18  N5  UNL     1      25.201   3.051  51.524  1.00  0.00    -0.043 NA
BRANCH  15  19
HETATM   19  C2  UNL     1      29.301   0.518  53.509  1.00  0.00     0.127 C 
HETATM   20  C1  UNL     1      29.625  -0.958  53.595  1.00  0.00     0.027 C 
ENDBRANCH  15  19
BRANCH  17  21
HETATM   21  N6  UNL     1      26.830   3.812  49.948  1.00  0.00    -0.221 N 
HETATM   22  H10 UNL     1      27.683   3.534  49.394  1.00  0.00     0.177 HD
BRANCH  21  23
HETATM   23  C13 UNL     1      25.991   4.918  49.609  1.00  0.00     0.168 C 
BRANCH  23  24
HETATM   24  C14 UNL     1      26.781   5.852  48.709  1.00  0.00     0.286 C 
BRANCH  24  25
HETATM   25  N7  UNL     1      28.187   5.580  48.943  1.00  0.00     0.079 N 
HETATM   26  H15 UNL     1      28.234   5.054  49.862  1.00  0.00     0.312 HD
HETATM   27  H16 UNL     1      28.484   4.910  48.193  1.00  0.00     0.312 HD
ENDBRANCH  24  25
ENDBRANCH  23  24
ENDBRANCH  21  23
ENDBRANCH  17  21
ENDBRANCH   8  10
ENDBRANCH   1   8
TORSDOF 7
ENDMDL
MODEL 6
REMARK VINA RESULT:      -6.9      1.901      2.255
REMARK  7 active torsions:
REMARK  status: ('A' for Active; 'I' for Inactive)
REMARK    1  A    between atoms: C2_2  and  N1_3 
REMARK    2  A    between atoms: C5_7  and  N3_8 
REMARK    3  A    between atoms: N3_8  and  C6_9 
REMARK    4  A    between atoms: C12_17  and  N6_18 
REMARK    5  A    between atoms: N6_18  and  C13_19 
REMARK    6  A    between atoms: C13_19  and  C14_20 
REMARK    7  A    between atoms: C14_20  and  N7_21 
ROOT
HETATM    1  C6  UNL     1      25.280   5.256  50.007  1.00  0.00     0.046 A 
HETATM    2  C7  UNL     1      24.349   5.762  50.789  1.00  0.00     0.005 A 
HETATM    3  C8  UNL     1      24.385   7.062  50.922  1.00  0.00     0.037 A 
HETATM    4  C9  UNL     1      25.581   7.486  50.168  1.00  0.00     0.047 A 
HETATM    5  C10 UNL     1      26.103   8.813  50.026  1.00  0.00     0.099 C 
HETATM    6  N4  UNL     1      26.533   9.890  49.894  1.00  0.00    -0.191 NA
HETATM    7  C11 UNL     1      26.111   6.417  49.625  1.00  0.00     0.053 A 
ENDROOT
BRANCH   1   8
HETATM    8  N3  UNL     1      25.436   3.897  49.627  1.00  0.00    -0.338 N 
HETATM    9  H7  UNL     1      25.411   3.520  48.642  1.00  0.00     0.167 HD
BRANCH   8  10
HETATM   10  C5  UNL     1      25.643   2.951  50.678  1.00  0.00     0.180 A 
HETATM   11  C4  UNL     1      24.627   2.164  51.189  1.00  0.00     0.151 A 
HETATM   12  N2  UNL     1      23.316   2.111  50.845  1.00  0.00    -0.236 NA
HETATM   13  C15 UNL     1      24.777   1.249  52.189  1.00  0.00     0.182 A 
HETATM   14  C3  UNL     1      22.702   1.185  51.625  1.00  0.00     0.212 A 
HETATM   15  N1  UNL     1      23.606   0.638  52.471  1.00  0.00    -0.324 N 
HETATM   16  N8  UNL     1      26.043   1.162  52.666  1.00  0.00    -0.042 NA
HETATM   17  C12 UNL     1      27.056   1.892  52.212  1.00  0.00     0.726 A 
HETATM   18  N5  UNL     1      26.873   2.795  51.214  1.00  0.00    -0.043 NA
BRANCH  15  19
HETATM   19  C2  UNL     1      23.431  -0.389  53.490  1.00  0.00     0.127 C 
HETATM   20  C1  UNL     1      22.000  -0.879  53.556  1.00  0.00     0.027 C 
ENDBRANCH  15  19
BRANCH  17  21
HETATM   21  N6  UNL     1      28.380   1.759  52.755  1.00  0.00    -0.221 N 
HETATM   22  H10 UNL     1      29.187   1.686  52.080  1.00  0.00     0.177 HD
BRANCH  21  23
HETATM   23  C13 UNL     1      28.530   1.733  54.177  1.00  0.00     0.168 C 
BRANCH  23  24
HETATM   24  C14 UNL     1      28.886   0.315  54.589  1.00  0.00     0.286 C 
BRANCH  24  25
HETATM   25  N7  UNL     1      27.646  -0.348  54.946  1.00  0.00     0.079 N 
HETATM   26  H15 UNL     1      27.110  -0.475  54.040  1.00  0.00     0.312 HD
HETATM   27  H16 UNL     1      27.912  -1.306  55.279  1.00  0.00     0.312 HD
ENDBRANCH  24  25
ENDBRANCH  23  24
ENDBRANCH  21  23
ENDBRANCH  17  21
ENDBRANCH   8  10
ENDBRANCH   1   8
TORSDOF 7
ENDMDL
MODEL 7
REMARK VINA RESULT:      -6.8      2.105      4.938
REMARK  7 active torsions:
REMARK  status: ('A' for Active; 'I' for Inactive)
REMARK    1  A    between atoms: C2_2  and  N1_3 
REMARK    2  A    between atoms: C5_7  and  N3_8 
REMARK    3  A    between atoms: N3_8  and  C6_9 
REMARK    4  A    between atoms: C12_17  and  N6_18 
REMARK    5  A    between atoms: N6_18  and  C13_19 
REMARK    6  A    between atoms: C13_19  and  C14_20 
REMARK    7  A    between atoms: C14_20  and  N7_21 
ROOT
HETATM    1  C6  UNL     1      24.725   3.836  51.365  1.00  0.00     0.046 A 
HETATM    2  C7  UNL     1      25.695   3.727  50.481  1.00  0.00     0.005 A 
HETATM    3  C8  UNL     1      25.388   4.115  49.272  1.00  0.00     0.037 A 
HETATM    4  C9  UNL     1      23.956   4.470  49.341  1.00  0.00     0.047 A 
HETATM    5  C10 UNL     1      23.111   4.918  48.274  1.00  0.00     0.099 C 
HETATM    6  N4  UNL     1      22.415   5.293  47.415  1.00  0.00    -0.191 NA
HETATM    7  C11 UNL     1      23.563   4.305  50.580  1.00  0.00     0.053 A 
ENDROOT
BRANCH   1   8
HETATM    8  N3  UNL     1      24.796   3.561  52.757  1.00  0.00    -0.338 N 
HETATM    9  H7  UNL     1      24.580   4.238  53.536  1.00  0.00     0.167 HD
BRANCH   8  10
HETATM   10  C5  UNL     1      25.201   2.244  53.135  1.00  0.00     0.180 A 
HETATM   11  C4  UNL     1      26.506   1.928  53.467  1.00  0.00     0.151 A 
HETATM   12  N2  UNL     1      27.605   2.720  53.508  1.00  0.00    -0.236 NA
HETATM   13  C15 UNL     1      26.938   0.687  53.835  1.00  0.00     0.182 A 
HETATM   14  C3  UNL     1      28.668   1.966  53.891  1.00  0.00     0.212 A 
HETATM   15  N1  UNL     1      28.262   0.692  54.098  1.00  0.00    -0.324 N 
HETATM   16  N8  UNL     1      25.960  -0.251  53.851  1.00  0.00    -0.042 NA
HETATM   17  C12 UNL     1      24.692  -0.003  53.541  1.00  0.00     0.726 A 
HETATM   18  N5  UNL     1      24.293   1.244  53.180  1.00  0.00    -0.043 NA
BRANCH  15  19
HETATM   19  C2  UNL     1      29.029  -0.476  54.515  1.00  0.00     0.127 C 
HETATM   20  C1  UNL     1      29.482  -1.305  53.333  1.00  0.00     0.027 C 
ENDBRANCH  15  19
BRANCH  17  21
HETATM   21  N6  UNL     1      23.695  -1.037  53.576  1.00  0.00    -0.221 N 
HETATM   22  H10 UNL     1      23.749  -1.801  52.851  1.00  0.00     0.177 HD
BRANCH  21  23
HETATM   23  C13 UNL     1      22.689  -0.974  54.589  1.00  0.00     0.168 C 
BRANCH  23  24
HETATM   24  C14 UNL     1      21.339  -0.834  53.906  1.00  0.00     0.286 C 
BRANCH  24  25
HETATM   25  N7  UNL     1      20.502  -0.034  54.780  1.00  0.00     0.079 N 
HETATM   26  H15 UNL     1      19.507  -0.359  54.612  1.00  0.00     0.312 HD
HETATM   27  H16 UNL     1      20.751  -0.312  55.760  1.00  0.00     0.312 HD
ENDBRANCH  24  25
ENDBRANCH  23  24
ENDBRANCH  21  23
ENDBRANCH  17  21
ENDBRANCH   8  10
ENDBRANCH   1   8
TORSDOF 7
ENDMDL
MODEL 8
REMARK VINA RESULT:      -6.8      2.950      6.077
REMARK  7 active torsions:
REMARK  status: ('A' for Active; 'I' for Inactive)
REMARK    1  A    between atoms: C2_2  and  N1_3 
REMARK    2  A    between atoms: C5_7  and  N3_8 
REMARK    3  A    between atoms: N3_8  and  C6_9 
REMARK    4  A    between atoms: C12_17  and  N6_18 
REMARK    5  A    between atoms: N6_18  and  C13_19 
REMARK    6  A    between atoms: C13_19  and  C14_20 
REMARK    7  A    between atoms: C14_20  and  N7_21 
ROOT
HETATM    1  C6  UNL     1      24.971   1.261  52.652  1.00  0.00     0.046 A 
HETATM    2  C7  UNL     1      26.011   1.641  51.940  1.00  0.00     0.005 A 
HETATM    3  C8  UNL     1      26.911   0.716  51.736  1.00  0.00     0.037 A 
HETATM    4  C9  UNL     1      26.432  -0.452  52.501  1.00  0.00     0.047 A 
HETATM    5  C10 UNL     1      27.072  -1.726  52.651  1.00  0.00     0.099 C 
HETATM    6  N4  UNL     1      27.578  -2.770  52.772  1.00  0.00    -0.191 NA
HETATM    7  C11 UNL     1      25.283  -0.130  53.043  1.00  0.00     0.053 A 
ENDROOT
BRANCH   1   8
HETATM    8  N3  UNL     1      23.817   2.027  52.965  1.00  0.00    -0.338 N 
HETATM    9  H7  UNL     1      23.170   1.871  53.783  1.00  0.00     0.167 HD
BRANCH   8  10
HETATM   10  C5  UNL     1      23.503   3.110  52.086  1.00  0.00     0.180 A 
HETATM   11  C4  UNL     1      22.718   2.955  50.958  1.00  0.00     0.151 A 
HETATM   12  N2  UNL     1      22.118   1.843  50.466  1.00  0.00    -0.236 NA
HETATM   13  C15 UNL     1      22.391   3.957  50.092  1.00  0.00     0.182 A 
HETATM   14  C3  UNL     1      21.450   2.177  49.332  1.00  0.00     0.212 A 
HETATM   15  N1  UNL     1      21.614   3.498  49.088  1.00  0.00    -0.324 N 
HETATM   16  N8  UNL     1      22.911   5.162  50.428  1.00  0.00    -0.042 NA
HETATM   17  C12 UNL     1      23.670   5.368  51.499  1.00  0.00     0.726 A 
HETATM   18  N5  UNL     1      23.977   4.348  52.343  1.00  0.00    -0.043 NA
BRANCH  15  19
HETATM   19  C2  UNL     1      21.095   4.318  48.000  1.00  0.00     0.127 C 
HETATM   20  C1  UNL     1      22.155   4.611  46.960  1.00  0.00     0.027 C 
ENDBRANCH  15  19
BRANCH  17  21
HETATM   21  N6  UNL     1      24.196   6.669  51.808  1.00  0.00    -0.221 N 
HETATM   22  H10 UNL     1      24.821   6.763  52.652  1.00  0.00     0.177 HD
BRANCH  21  23
HETATM   23  C13 UNL     1      23.844   7.762  50.956  1.00  0.00     0.168 C 
BRANCH  23  24
HETATM   24  C14 UNL     1      25.053   8.104  50.103  1.00  0.00     0.286 C 
BRANCH  24  25
HETATM   25  N7  UNL     1      26.225   7.634  50.818  1.00  0.00     0.079 N 
HETATM   26  H15 UNL     1      26.036   6.618  51.054  1.00  0.00     0.312 HD
HETATM   27  H16 UNL     1      27.013   7.645  50.127  1.00  0.00     0.312 HD
ENDBRANCH  24  25
ENDBRANCH  23  24
ENDBRANCH  21  23
ENDBRANCH  17  21
ENDBRANCH   8  10
ENDBRANCH   1   8
TORSDOF 7
ENDMDL
MODEL 9
REMARK VINA RESULT:      -6.6      2.951      6.814
REMARK  7 active torsions:
REMARK  status: ('A' for Active; 'I' for Inactive)
REMARK    1  A    between atoms: C2_2  and  N1_3 
REMARK    2  A    between atoms: C5_7  and  N3_8 
REMARK    3  A    between atoms: N3_8  and  C6_9 
REMARK    4  A    between atoms: C12_17  and  N6_18 
REMARK    5  A    between atoms: N6_18  and  C13_19 
REMARK    6  A    between atoms: C13_19  and  C14_20 
REMARK    7  A    between atoms: C14_20  and  N7_21 
ROOT
HETATM    1  C6  UNL     1      21.291   0.083  52.166  1.00  0.00     0.046 A 
HETATM    2  C7  UNL     1      21.263   0.388  50.885  1.00  0.00     0.005 A 
HETATM    3  C8  UNL     1      20.093   0.749  50.427  1.00  0.00     0.037 A 
HETATM    4  C9  UNL     1      19.173   0.585  51.570  1.00  0.00     0.047 A 
HETATM    5  C10 UNL     1      17.757   0.807  51.595  1.00  0.00     0.099 C 
HETATM    6  N4  UNL     1      16.606   0.993  51.631  1.00  0.00    -0.191 NA
HETATM    7  C11 UNL     1      19.881   0.192  52.600  1.00  0.00     0.053 A 
ENDROOT
BRANCH   1   8
HETATM    8  N3  UNL     1      22.427  -0.269  52.941  1.00  0.00    -0.338 N 
HETATM    9  H7  UNL     1      22.559  -1.166  53.479  1.00  0.00     0.167 HD
BRANCH   8  10
HETATM   10  C5  UNL     1      23.490   0.684  52.998  1.00  0.00     0.180 A 
HETATM   11  C4  UNL     1      24.821   0.318  53.085  1.00  0.00     0.151 A 
HETATM   12  N2  UNL     1      25.378  -0.917  53.133  1.00  0.00    -0.236 NA
HETATM   13  C15 UNL     1      25.869   1.190  53.141  1.00  0.00     0.182 A 
HETATM   14  C3  UNL     1      26.726  -0.782  53.216  1.00  0.00     0.212 A 
HETATM   15  N1  UNL     1      27.045   0.534  53.222  1.00  0.00    -0.324 N 
HETATM   16  N8  UNL     1      25.497   2.493  53.105  1.00  0.00    -0.042 NA
HETATM   17  C12 UNL     1      24.236   2.901  53.021  1.00  0.00     0.726 A 
HETATM   18  N5  UNL     1      23.215   2.007  52.966  1.00  0.00    -0.043 NA
BRANCH  15  19
HETATM   19  C2  UNL     1      28.351   1.178  53.297  1.00  0.00     0.127 C 
HETATM   20  C1  UNL     1      29.141   0.712  54.500  1.00  0.00     0.027 C 
ENDBRANCH  15  19
BRANCH  17  21
HETATM   21  N6  UNL     1      23.899   4.298  52.985  1.00  0.00    -0.221 N 
HETATM   22  H10 UNL     1      23.907   4.832  53.895  1.00  0.00     0.177 HD
BRANCH  21  23
HETATM   23  C13 UNL     1      23.575   4.885  51.723  1.00  0.00     0.168 C 
BRANCH  23  24
HETATM   24  C14 UNL     1      22.113   5.295  51.754  1.00  0.00     0.286 C 
BRANCH  24  25
HETATM   25  N7  UNL     1      22.061   6.709  51.433  1.00  0.00     0.079 N 
HETATM   26  H15 UNL     1      21.279   7.115  52.024  1.00  0.00     0.312 HD
HETATM   27  H16 UNL     1      22.957   7.123  51.788  1.00  0.00     0.312 HD
ENDBRANCH  24  25
ENDBRANCH  23  24
ENDBRANCH  21  23
ENDBRANCH  17  21
ENDBRANCH   8  10
ENDBRANCH   1   8
TORSDOF 7
ENDMDL
