MODEL 1
REMARK VINA RESULT:      -7.4      0.000      0.000
REMARK  6 active torsions:
REMARK  status: ('A' for Active; 'I' for Inactive)
REMARK    1  A    between atoms: C2_2  and  O1_3 
REMARK    2  A    between atoms: C3_4  and  C4_5 
REMARK    3  A    between atoms: C3_4  and  C15_20 
REMARK    4  A    between atoms: C8_11  and  N3_12 
REMARK    5  A    between atoms: N3_12  and  C9_13 
REMARK    6  A    between atoms: C15_20  and  O3_21 
ROOT
HETATM    1  C4  UNL     1      27.110   0.508  54.065  1.00  0.00     0.016 C 
HETATM    2  C5  UNL     1      26.136   0.582  53.176  1.00  0.00    -0.052 C 
HETATM    3  C6  UNL     1      26.446   1.011  51.791  1.00  0.00     0.184 C 
HETATM    4  N1  UNL     1      25.773   2.272  51.542  1.00  0.00    -0.279 NA
HETATM    5  C7  UNL     1      24.490   2.416  51.538  1.00  0.00     0.229 C 
HETATM    6  N2  UNL     1      23.561   1.339  51.782  1.00  0.00    -0.229 NA
HETATM    7  C8  UNL     1      23.745   0.439  52.713  1.00  0.00     0.109 C 
HETATM    8  C14 UNL     1      24.808   0.205  53.724  1.00  0.00     0.114 C 
ENDROOT
BRANCH   1   9
HETATM    9  C3  UNL     1      28.529   0.791  53.921  1.00  0.00    -0.006 C 
HETATM   10  C2  UNL     1      29.470  -0.073  53.603  1.00  0.00     0.047 C 
HETATM   11  C1  UNL     1      29.319  -1.519  53.320  1.00  0.00     0.076 C 
BRANCH  10  12
HETATM   12  O1  UNL     1      30.787   0.303  53.495  1.00  0.00    -0.365 OA
HETATM   13  H4  UNL     1      31.428  -0.085  54.188  1.00  0.00     0.217 HD
ENDBRANCH  10  12
BRANCH   9  14
HETATM   14  C15 UNL     1      28.933   2.203  54.163  1.00  0.00     0.205 C 
BRANCH  14  15
HETATM   15  O3  UNL     1      29.134   2.870  52.958  1.00  0.00    -0.396 OA
HETATM   16  H21 UNL     1      29.449   2.199  52.273  1.00  0.00     0.209 HD
ENDBRANCH  14  15
ENDBRANCH   9  14
ENDBRANCH   1   9
BRANCH   7  17
HETATM   17  N3  UNL     1      22.673  -0.526  52.750  1.00  0.00    -0.346 N 
HETATM   18  H9  UNL     1      22.915  -1.548  52.844  1.00  0.00     0.167 HD
BRANCH  17  19
HETATM   19  C9  UNL     1      21.306  -0.085  52.659  1.00  0.00     0.030 C 
HETATM   20  C10 UNL     1      20.856   0.082  51.412  1.00  0.00     0.003 C 
HETATM   21  C11 UNL     1      19.431   0.541  51.315  1.00  0.00     0.055 C 
HETATM   22  C12 UNL     1      18.632  -0.282  52.271  1.00  0.00     0.172 C 
HETATM   23  O2  UNL     1      19.189  -0.495  53.503  1.00  0.00    -0.385 OA
HETATM   24  C13 UNL     1      20.341   0.204  53.773  1.00  0.00     0.224 C 
ENDBRANCH  17  19
ENDBRANCH   7  17
TORSDOF 6
ENDMDL
MODEL 2
REMARK VINA RESULT:      -7.3      1.720      2.442
REMARK  6 active torsions:
REMARK  status: ('A' for Active; 'I' for Inactive)
REMARK    1  A    between atoms: C2_2  and  O1_3 
REMARK    2  A    between atoms: C3_4  and  C4_5 
REMARK    3  A    between atoms: C3_4  and  C15_20 
REMARK    4  A    between atoms: C8_11  and  N3_12 
REMARK    5  A    between atoms: N3_12  and  C9_13 
REMARK    6  A    between atoms: C15_20  and  O3_21 
ROOT
HETATM    1  C4  UNL     1      26.337  -0.945  53.672  1.00  0.00     0.016 C 
HETATM    2  C5  UNL     1      25.507  -0.100  53.087  1.00  0.00    -0.052 C 
HETATM    3  C6  UNL     1      25.994   0.738  51.964  1.00  0.00     0.184 C 
HETATM    4  N1  UNL     1      25.948   2.128  52.377  1.00  0.00    -0.279 NA
HETATM    5  C7  UNL     1      24.859   2.757  52.670  1.00  0.00     0.229 C 
HETATM    6  N2  UNL     1      23.548   2.156  52.623  1.00  0.00    -0.229 NA
HETATM    7  C8  UNL     1      23.304   0.947  53.056  1.00  0.00     0.109 C 
HETATM    8  C14 UNL     1      24.142  -0.116  53.670  1.00  0.00     0.114 C 
ENDROOT
BRANCH   1   9
HETATM    9  C3  UNL     1      27.737  -1.220  53.395  1.00  0.00    -0.006 C 
HETATM   10  C2  UNL     1      28.766  -0.488  53.769  1.00  0.00     0.047 C 
HETATM   11  C1  UNL     1      28.751   0.772  54.549  1.00  0.00     0.076 C 
BRANCH  10  12
HETATM   12  O1  UNL     1      30.055  -0.840  53.450  1.00  0.00    -0.365 OA
HETATM   13  H4  UNL     1      30.167  -1.494  52.674  1.00  0.00     0.217 HD
ENDBRANCH  10  12
BRANCH   9  14
HETATM   14  C15 UNL     1      28.010  -2.454  52.609  1.00  0.00     0.205 C 
BRANCH  14  15
HETATM   15  O3  UNL     1      28.591  -3.429  53.411  1.00  0.00    -0.396 OA
HETATM   16  H21 UNL     1      28.562  -4.309  52.915  1.00  0.00     0.209 HD
ENDBRANCH  14  15
ENDBRANCH   9  14
ENDBRANCH   1   9
BRANCH   7  17
HETATM   17  N3  UNL     1      21.917   0.586  52.896  1.00  0.00    -0.346 N 
HETATM   18  H9  UNL     1      21.485  -0.086  53.585  1.00  0.00     0.167 HD
BRANCH  17  19
HETATM   19  C9  UNL     1      21.150   1.140  51.811  1.00  0.00     0.030 C 
HETATM   20  C10 UNL     1      21.402   0.598  50.617  1.00  0.00     0.003 C 
HETATM   21  C11 UNL     1      20.603   1.174  49.485  1.00  0.00     0.055 C 
HETATM   22  C12 UNL     1      19.188   1.285  49.948  1.00  0.00     0.172 C 
HETATM   23  O2  UNL     1      19.000   1.761  51.218  1.00  0.00    -0.385 OA
HETATM   24  C13 UNL     1      20.121   2.233  51.857  1.00  0.00     0.224 C 
ENDBRANCH  17  19
ENDBRANCH   7  17
TORSDOF 6
ENDMDL
MODEL 3
REMARK VINA RESULT:      -7.2      2.298      3.627
REMARK  6 active torsions:
REMARK  status: ('A' for Active; 'I' for Inactive)
REMARK    1  A    between atoms: C2_2  and  O1_3 
REMARK    2  A    between atoms: C3_4  and  C4_5 
REMARK    3  A    between atoms: C3_4  and  C15_20 
REMARK    4  A    between atoms: C8_11  and  N3_12 
REMARK    5  A    between atoms: N3_12  and  C9_13 
REMARK    6  A    between atoms: C15_20  and  O3_21 
ROOT
HETATM    1  C4  UNL     1      26.740  -0.558  52.807  1.00  0.00     0.016 C 
HETATM    2  C5  UNL     1      25.678  -0.399  53.577  1.00  0.00    -0.052 C 
HETATM    3  C6  UNL     1      25.863  -0.062  55.010  1.00  0.00     0.184 C 
HETATM    4  N1  UNL     1      25.360  -1.166  55.807  1.00  0.00    -0.279 NA
HETATM    5  C7  UNL     1      24.124  -1.540  55.822  1.00  0.00     0.229 C 
HETATM    6  N2  UNL     1      23.085  -0.906  55.048  1.00  0.00    -0.229 NA
HETATM    7  C8  UNL     1      23.253  -0.528  53.808  1.00  0.00     0.109 C 
HETATM    8  C14 UNL     1      24.393  -0.590  52.857  1.00  0.00     0.114 C 
ENDROOT
BRANCH   1   9
HETATM    9  C3  UNL     1      28.152  -0.458  53.133  1.00  0.00    -0.006 C 
HETATM   10  C2  UNL     1      28.833   0.654  53.324  1.00  0.00     0.047 C 
HETATM   11  C1  UNL     1      28.337   2.048  53.255  1.00  0.00     0.076 C 
BRANCH  10  12
HETATM   12  O1  UNL     1      30.172   0.635  53.628  1.00  0.00    -0.365 OA
HETATM   13  H4  UNL     1      30.416   0.761  54.611  1.00  0.00     0.217 HD
ENDBRANCH  10  12
BRANCH   9  14
HETATM   14  C15 UNL     1      28.881  -1.750  53.256  1.00  0.00     0.205 C 
BRANCH  14  15
HETATM   15  O3  UNL     1      28.009  -2.822  53.095  1.00  0.00    -0.396 OA
HETATM   16  H21 UNL     1      28.536  -3.612  52.751  1.00  0.00     0.209 HD
ENDBRANCH  14  15
ENDBRANCH   9  14
ENDBRANCH   1   9
BRANCH   7  17
HETATM   17  N3  UNL     1      22.062   0.077  53.262  1.00  0.00    -0.346 N 
HETATM   18  H9  UNL     1      21.122  -0.272  53.587  1.00  0.00     0.167 HD
BRANCH  17  19
HETATM   19  C9  UNL     1      22.174   1.135  52.291  1.00  0.00     0.030 C 
HETATM   20  C10 UNL     1      22.731   2.257  52.752  1.00  0.00     0.003 C 
HETATM   21  C11 UNL     1      22.848   3.361  51.742  1.00  0.00     0.055 C 
HETATM   22  C12 UNL     1      23.370   2.756  50.481  1.00  0.00     0.172 C 
HETATM   23  O2  UNL     1      22.823   1.557  50.109  1.00  0.00    -0.385 OA
HETATM   24  C13 UNL     1      21.748   1.129  50.851  1.00  0.00     0.224 C 
ENDBRANCH  17  19
ENDBRANCH   7  17
TORSDOF 6
ENDMDL
MODEL 4
REMARK VINA RESULT:      -7.2      2.291      3.032
REMARK  6 active torsions:
REMARK  status: ('A' for Active; 'I' for Inactive)
REMARK    1  A    between atoms: C2_2  and  O1_3 
REMARK    2  A    between atoms: C3_4  and  C4_5 
REMARK    3  A    between atoms: C3_4  and  C15_20 
REMARK    4  A    between atoms: C8_11  and  N3_12 
REMARK    5  A    between atoms: N3_12  and  C9_13 
REMARK    6  A    between atoms: C15_20  and  O3_21 
ROOT
HETATM    1  C4  UNL     1      27.399   0.393  52.705  1.00  0.00     0.016 C 
HETATM    2  C5  UNL     1      26.181   0.493  53.208  1.00  0.00    -0.052 C 
HETATM    3  C6  UNL     1      25.972   0.259  54.658  1.00  0.00     0.184 C 
HETATM    4  N1  UNL     1      25.141  -0.920  54.815  1.00  0.00    -0.279 NA
HETATM    5  C7  UNL     1      23.923  -1.006  54.396  1.00  0.00     0.229 C 
HETATM    6  N2  UNL     1      23.231   0.063  53.717  1.00  0.00    -0.229 NA
HETATM    7  C8  UNL     1      23.796   0.807  52.803  1.00  0.00     0.109 C 
HETATM    8  C14 UNL     1      25.152   0.843  52.196  1.00  0.00     0.114 C 
ENDROOT
BRANCH   1   9
HETATM    9  C3  UNL     1      28.655   0.072  53.361  1.00  0.00    -0.006 C 
HETATM   10  C2  UNL     1      29.203  -1.122  53.460  1.00  0.00     0.047 C 
HETATM   11  C1  UNL     1      28.683  -2.407  52.937  1.00  0.00     0.076 C 
BRANCH  10  12
HETATM   12  O1  UNL     1      30.399  -1.315  54.107  1.00  0.00    -0.365 OA
HETATM   13  H4  UNL     1      30.401  -2.006  54.860  1.00  0.00     0.217 HD
ENDBRANCH  10  12
BRANCH   9  14
HETATM   14  C15 UNL     1      29.374   1.220  53.976  1.00  0.00     0.205 C 
BRANCH  14  15
HETATM   15  O3  UNL     1      29.225   2.365  53.201  1.00  0.00    -0.396 OA
HETATM   16  H21 UNL     1      30.141   2.672  52.907  1.00  0.00     0.209 HD
ENDBRANCH  14  15
ENDBRANCH   9  14
ENDBRANCH   1   9
BRANCH   7  17
HETATM   17  N3  UNL     1      22.891   1.802  52.281  1.00  0.00    -0.346 N 
HETATM   18  H9  UNL     1      22.463   2.497  52.948  1.00  0.00     0.167 HD
BRANCH  17  19
HETATM   19  C9  UNL     1      22.588   1.831  50.874  1.00  0.00     0.030 C 
HETATM   20  C10 UNL     1      21.700   0.917  50.476  1.00  0.00     0.003 C 
HETATM   21  C11 UNL     1      21.382   0.946  49.010  1.00  0.00     0.055 C 
HETATM   22  C12 UNL     1      21.175   2.374  48.627  1.00  0.00     0.172 C 
HETATM   23  O2  UNL     1      22.065   3.277  49.143  1.00  0.00    -0.385 OA
HETATM   24  C13 UNL     1      23.139   2.747  49.819  1.00  0.00     0.224 C 
ENDBRANCH  17  19
ENDBRANCH   7  17
TORSDOF 6
ENDMDL
MODEL 5
REMARK VINA RESULT:      -7.2      2.456      7.358
REMARK  6 active torsions:
REMARK  status: ('A' for Active; 'I' for Inactive)
REMARK    1  A    between atoms: C2_2  and  O1_3 
REMARK    2  A    between atoms: C3_4  and  C4_5 
REMARK    3  A    between atoms: C3_4  and  C15_20 
REMARK    4  A    between atoms: C8_11  and  N3_12 
REMARK    5  A    between atoms: N3_12  and  C9_13 
REMARK    6  A    between atoms: C15_20  and  O3_21 
ROOT
HETATM    1  C4  UNL     1      22.741   2.337  51.432  1.00  0.00     0.016 C 
HETATM    2  C5  UNL     1      22.958   1.184  52.041  1.00  0.00    -0.052 C 
HETATM    3  C6  UNL     1      21.824   0.253  52.261  1.00  0.00     0.184 C 
HETATM    4  N1  UNL     1      21.610   0.124  53.690  1.00  0.00    -0.279 NA
HETATM    5  C7  UNL     1      22.475  -0.379  54.506  1.00  0.00     0.229 C 
HETATM    6  N2  UNL     1      23.766  -0.878  54.099  1.00  0.00    -0.229 NA
HETATM    7  C8  UNL     1      24.521  -0.266  53.225  1.00  0.00     0.109 C 
HETATM    8  C14 UNL     1      24.376   0.982  52.433  1.00  0.00     0.114 C 
ENDROOT
BRANCH   1   9
HETATM    9  C3  UNL     1      21.507   2.895  50.905  1.00  0.00    -0.006 C 
HETATM   10  C2  UNL     1      20.963   2.625  49.737  1.00  0.00     0.047 C 
HETATM   11  C1  UNL     1      21.464   1.702  48.692  1.00  0.00     0.076 C 
BRANCH  10  12
HETATM   12  O1  UNL     1      19.789   3.214  49.335  1.00  0.00    -0.365 OA
HETATM   13  H4  UNL     1      19.480   4.023  49.875  1.00  0.00     0.217 HD
ENDBRANCH  10  12
BRANCH   9  14
HETATM   14  C15 UNL     1      20.809   3.868  51.789  1.00  0.00     0.205 C 
BRANCH  14  15
HETATM   15  O3  UNL     1      19.672   3.295  52.350  1.00  0.00    -0.396 OA
HETATM   16  H21 UNL     1      18.930   3.980  52.334  1.00  0.00     0.209 HD
ENDBRANCH  14  15
ENDBRANCH   9  14
ENDBRANCH   1   9
BRANCH   7  17
HETATM   17  N3  UNL     1      25.759  -0.970  52.994  1.00  0.00    -0.346 N 
HETATM   18  H9  UNL     1      25.759  -1.793  52.334  1.00  0.00     0.167 HD
BRANCH  17  19
HETATM   19  C9  UNL     1      26.962  -0.546  53.661  1.00  0.00     0.030 C 
HETATM   20  C10 UNL     1      28.094  -0.973  53.095  1.00  0.00     0.003 C 
HETATM   21  C11 UNL     1      29.349  -0.531  53.788  1.00  0.00     0.055 C 
HETATM   22  C12 UNL     1      29.197   0.920  54.102  1.00  0.00     0.172 C 
HETATM   23  O2  UNL     1      27.981   1.312  54.594  1.00  0.00    -0.385 OA
HETATM   24  C13 UNL     1      27.098   0.303  54.893  1.00  0.00     0.224 C 
ENDBRANCH  17  19
ENDBRANCH   7  17
TORSDOF 6
ENDMDL
MODEL 6
REMARK VINA RESULT:      -7.2      3.323      5.472
REMARK  6 active torsions:
REMARK  status: ('A' for Active; 'I' for Inactive)
REMARK    1  A    between atoms: C2_2  and  O1_3 
REMARK    2  A    between atoms: C3_4  and  C4_5 
REMARK    3  A    between atoms: C3_4  and  C15_20 
REMARK    4  A    between atoms: C8_11  and  N3_12 
REMARK    5  A    between atoms: N3_12  and  C9_13 
REMARK    6  A    between atoms: C15_20  and  O3_21 
ROOT
HETATM    1  C4  UNL     1      26.985   1.716  51.895  1.00  0.00     0.016 C 
HETATM    2  C5  UNL     1      25.830   2.358  51.896  1.00  0.00    -0.052 C 
HETATM    3  C6  UNL     1      25.058   2.464  53.158  1.00  0.00     0.184 C 
HETATM    4  N1  UNL     1      23.812   1.738  52.994  1.00  0.00    -0.279 NA
HETATM    5  C7  UNL     1      22.896   2.061  52.143  1.00  0.00     0.229 C 
HETATM    6  N2  UNL     1      22.996   3.188  51.247  1.00  0.00    -0.229 NA
HETATM    7  C8  UNL     1      24.096   3.496  50.612  1.00  0.00     0.109 C 
HETATM    8  C14 UNL     1      25.459   2.907  50.567  1.00  0.00     0.114 C 
ENDROOT
BRANCH   1   9
HETATM    9  C3  UNL     1      27.682   1.047  52.982  1.00  0.00    -0.006 C 
HETATM   10  C2  UNL     1      27.559  -0.218  53.327  1.00  0.00     0.047 C 
HETATM   11  C1  UNL     1      26.699  -1.252  52.706  1.00  0.00     0.076 C 
BRANCH  10  12
HETATM   12  O1  UNL     1      28.267  -0.749  54.377  1.00  0.00    -0.365 OA
HETATM   13  H4  UNL     1      29.023  -0.174  54.752  1.00  0.00     0.217 HD
ENDBRANCH  10  12
BRANCH   9  14
HETATM   14  C15 UNL     1      28.617   1.897  53.768  1.00  0.00     0.205 C 
BRANCH  14  15
HETATM   15  O3  UNL     1      29.147   2.909  52.974  1.00  0.00    -0.396 OA
HETATM   16  H21 UNL     1      30.138   2.971  53.157  1.00  0.00     0.209 HD
ENDBRANCH  14  15
ENDBRANCH   9  14
ENDBRANCH   1   9
BRANCH   7  17
HETATM   17  N3  UNL     1      23.931   4.663  49.781  1.00  0.00    -0.346 N 
HETATM   18  H9  UNL     1      23.365   4.578  48.895  1.00  0.00     0.167 HD
BRANCH  17  19
HETATM   19  C9  UNL     1      24.534   5.912  50.166  1.00  0.00     0.030 C 
HETATM   20  C10 UNL     1      25.553   6.301  49.396  1.00  0.00     0.003 C 
HETATM   21  C11 UNL     1      26.183   7.602  49.796  1.00  0.00     0.055 C 
HETATM   22  C12 UNL     1      25.076   8.565  50.075  1.00  0.00     0.172 C 
HETATM   23  O2  UNL     1      24.015   8.080  50.792  1.00  0.00    -0.385 OA
HETATM   24  C13 UNL     1      24.163   6.815  51.308  1.00  0.00     0.224 C 
ENDBRANCH  17  19
ENDBRANCH   7  17
TORSDOF 6
ENDMDL
MODEL 7
REMARK VINA RESULT:      -7.1      1.936      2.369
REMARK  6 active torsions:
REMARK  status: ('A' for Active; 'I' for Inactive)
REMARK    1  A    between atoms: C2_2  and  O1_3 
REMARK    2  A    between atoms: C3_4  and  C4_5 
REMARK    3  A    between atoms: C3_4  and  C15_20 
REMARK    4  A    between atoms: C8_11  and  N3_12 
REMARK    5  A    between atoms: N3_12  and  C9_13 
REMARK    6  A    between atoms: C15_20  and  O3_21 
ROOT
HETATM    1  C4  UNL     1      26.435   1.757  53.479  1.00  0.00     0.016 C 
HETATM    2  C5  UNL     1      25.817   2.231  52.411  1.00  0.00    -0.052 C 
HETATM    3  C6  UNL     1      26.376   1.956  51.065  1.00  0.00     0.184 C 
HETATM    4  N1  UNL     1      26.789   3.217  50.476  1.00  0.00    -0.279 NA
HETATM    5  C7  UNL     1      25.977   4.179  50.189  1.00  0.00     0.229 C 
HETATM    6  N2  UNL     1      24.554   4.122  50.418  1.00  0.00    -0.229 NA
HETATM    7  C8  UNL     1      24.028   3.620  51.505  1.00  0.00     0.109 C 
HETATM    8  C14 UNL     1      24.593   3.007  52.735  1.00  0.00     0.114 C 
ENDROOT
BRANCH   1   9
HETATM    9  C3  UNL     1      27.647   0.961  53.578  1.00  0.00    -0.006 C 
HETATM   10  C2  UNL     1      27.758  -0.328  53.328  1.00  0.00     0.047 C 
HETATM   11  C1  UNL     1      26.697  -1.265  52.892  1.00  0.00     0.076 C 
BRANCH  10  12
HETATM   12  O1  UNL     1      28.957  -0.985  53.456  1.00  0.00    -0.365 OA
HETATM   13  H4  UNL     1      29.063  -1.844  52.914  1.00  0.00     0.217 HD
ENDBRANCH  10  12
BRANCH   9  14
HETATM   14  C15 UNL     1      28.868   1.695  54.009  1.00  0.00     0.205 C 
BRANCH  14  15
HETATM   15  O3  UNL     1      29.159   2.726  53.122  1.00  0.00    -0.396 OA
HETATM   16  H21 UNL     1      30.163   2.807  53.047  1.00  0.00     0.209 HD
ENDBRANCH  14  15
ENDBRANCH   9  14
ENDBRANCH   1   9
BRANCH   7  17
HETATM   17  N3  UNL     1      22.587   3.683  51.486  1.00  0.00    -0.346 N 
HETATM   18  H9  UNL     1      22.123   4.619  51.340  1.00  0.00     0.167 HD
BRANCH  17  19
HETATM   19  C9  UNL     1      21.812   2.484  51.666  1.00  0.00     0.030 C 
HETATM   20  C10 UNL     1      22.084   1.508  50.796  1.00  0.00     0.003 C 
HETATM   21  C11 UNL     1      21.277   0.257  50.982  1.00  0.00     0.055 C 
HETATM   22  C12 UNL     1      21.270  -0.055  52.442  1.00  0.00     0.172 C 
HETATM   23  O2  UNL     1      21.079   1.003  53.289  1.00  0.00    -0.385 OA
HETATM   24  C13 UNL     1      20.755   2.200  52.695  1.00  0.00     0.224 C 
ENDBRANCH  17  19
ENDBRANCH   7  17
TORSDOF 6
ENDMDL
MODEL 8
REMARK VINA RESULT:      -7.0      3.447      5.680
REMARK  6 active torsions:
REMARK  status: ('A' for Active; 'I' for Inactive)
REMARK    1  A    between atoms: C2_2  and  O1_3 
REMARK    2  A    between atoms: C3_4  and  C4_5 
REMARK    3  A    between atoms: C3_4  and  C15_20 
REMARK    4  A    between atoms: C8_11  and  N3_12 
REMARK    5  A    between atoms: N3_12  and  C9_13 
REMARK    6  A    between atoms: C15_20  and  O3_21 
ROOT
HETATM    1  C4  UNL     1      26.640   1.340  51.780  1.00  0.00     0.016 C 
HETATM    2  C5  UNL     1      25.594   2.147  51.800  1.00  0.00    -0.052 C 
HETATM    3  C6  UNL     1      24.893   2.398  53.082  1.00  0.00     0.184 C 
HETATM    4  N1  UNL     1      23.548   1.862  52.980  1.00  0.00    -0.279 NA
HETATM    5  C7  UNL     1      22.660   2.297  52.150  1.00  0.00     0.229 C 
HETATM    6  N2  UNL     1      22.892   3.373  51.218  1.00  0.00    -0.229 NA
HETATM    7  C8  UNL     1      24.002   3.498  50.539  1.00  0.00     0.109 C 
HETATM    8  C14 UNL     1      25.260   2.712  50.467  1.00  0.00     0.114 C 
ENDROOT
BRANCH   1   9
HETATM    9  C3  UNL     1      27.269   0.603  52.863  1.00  0.00    -0.006 C 
HETATM   10  C2  UNL     1      28.180   1.063  53.697  1.00  0.00     0.047 C 
HETATM   11  C1  UNL     1      28.775   2.419  53.736  1.00  0.00     0.076 C 
BRANCH  10  12
HETATM   12  O1  UNL     1      28.712   0.276  54.688  1.00  0.00    -0.365 OA
HETATM   13  H4  UNL     1      29.729   0.291  54.782  1.00  0.00     0.217 HD
ENDBRANCH  10  12
BRANCH   9  14
HETATM   14  C15 UNL     1      26.828  -0.810  53.025  1.00  0.00     0.205 C 
BRANCH  14  15
HETATM   15  O3  UNL     1      26.110  -0.967  54.205  1.00  0.00    -0.396 OA
HETATM   16  H21 UNL     1      25.128  -0.847  53.999  1.00  0.00     0.209 HD
ENDBRANCH  14  15
ENDBRANCH   9  14
ENDBRANCH   1   9
BRANCH   7  17
HETATM   17  N3  UNL     1      23.981   4.656  49.678  1.00  0.00    -0.346 N 
HETATM   18  H9  UNL     1      23.534   4.572  48.727  1.00  0.00     0.167 HD
BRANCH  17  19
HETATM   19  C9  UNL     1      24.564   5.894  50.124  1.00  0.00     0.030 C 
HETATM   20  C10 UNL     1      25.618   6.302  49.412  1.00  0.00     0.003 C 
HETATM   21  C11 UNL     1      26.227   7.593  49.875  1.00  0.00     0.055 C 
HETATM   22  C12 UNL     1      25.108   8.548  50.128  1.00  0.00     0.172 C 
HETATM   23  O2  UNL     1      24.015   8.045  50.781  1.00  0.00    -0.385 OA
HETATM   24  C13 UNL     1      24.140   6.767  51.270  1.00  0.00     0.224 C 
ENDBRANCH  17  19
ENDBRANCH   7  17
TORSDOF 6
ENDMDL
MODEL 9
REMARK VINA RESULT:      -7.0      2.819      5.948
REMARK  6 active torsions:
REMARK  status: ('A' for Active; 'I' for Inactive)
REMARK    1  A    between atoms: C2_2  and  O1_3 
REMARK    2  A    between atoms: C3_4  and  C4_5 
REMARK    3  A    between atoms: C3_4  and  C15_20 
REMARK    4  A    between atoms: C8_11  and  N3_12 
REMARK    5  A    between atoms: N3_12  and  C9_13 
REMARK    6  A    between atoms: C15_20  and  O3_21 
ROOT
HETATM    1  C4  UNL     1      24.548   3.838  51.784  1.00  0.00     0.016 C 
HETATM    2  C5  UNL     1      23.988   2.644  51.715  1.00  0.00    -0.052 C 
HETATM    3  C6  UNL     1      23.224   2.268  50.501  1.00  0.00     0.184 C 
HETATM    4  N1  UNL     1      21.833   2.085  50.874  1.00  0.00    -0.279 NA
HETATM    5  C7  UNL     1      21.420   1.174  51.690  1.00  0.00     0.229 C 
HETATM    6  N2  UNL     1      22.290   0.219  52.334  1.00  0.00    -0.229 NA
HETATM    7  C8  UNL     1      23.454   0.543  52.834  1.00  0.00     0.109 C 
HETATM    8  C14 UNL     1      24.219   1.813  52.924  1.00  0.00     0.114 C 
ENDROOT
BRANCH   1   9
HETATM    9  C3  UNL     1      24.549   4.925  50.819  1.00  0.00    -0.006 C 
HETATM   10  C2  UNL     1      25.366   5.060  49.794  1.00  0.00     0.047 C 
HETATM   11  C1  UNL     1      26.462   4.154  49.380  1.00  0.00     0.076 C 
BRANCH  10  12
HETATM   12  O1  UNL     1      25.281   6.132  48.941  1.00  0.00    -0.365 OA
HETATM   13  H4  UNL     1      25.075   5.919  47.964  1.00  0.00     0.217 HD
ENDBRANCH  10  12
BRANCH   9  14
HETATM   14  C15 UNL     1      23.520   5.979  51.032  1.00  0.00     0.205 C 
BRANCH  14  15
HETATM   15  O3  UNL     1      24.078   7.091  51.655  1.00  0.00    -0.396 OA
HETATM   16  H21 UNL     1      23.376   7.815  51.699  1.00  0.00     0.209 HD
ENDBRANCH  14  15
ENDBRANCH   9  14
ENDBRANCH   1   9
BRANCH   7  17
HETATM   17  N3  UNL     1      24.123  -0.592  53.421  1.00  0.00    -0.346 N 
HETATM   18  H9  UNL     1      23.569  -1.471  53.599  1.00  0.00     0.167 HD
BRANCH  17  19
HETATM   19  C9  UNL     1      25.521  -0.508  53.754  1.00  0.00     0.030 C 
HETATM   20  C10 UNL     1      26.351  -0.829  52.759  1.00  0.00     0.003 C 
HETATM   21  C11 UNL     1      27.809  -0.742  53.103  1.00  0.00     0.055 C 
HETATM   22  C12 UNL     1      28.018   0.541  53.836  1.00  0.00     0.172 C 
HETATM   23  O2  UNL     1      27.081   0.860  54.782  1.00  0.00    -0.385 OA
HETATM   24  C13 UNL     1      26.149  -0.111  55.060  1.00  0.00     0.224 C 
ENDBRANCH  17  19
ENDBRANCH   7  17
TORSDOF 6
ENDMDL
