MODEL 1
REMARK VINA RESULT:      -7.3      0.000      0.000
REMARK  5 active torsions:
REMARK  status: ('A' for Active; 'I' for Inactive)
REMARK    1  A    between atoms: N1_2  and  C2_3 
REMARK    2  A    between atoms: N1_2  and  C4_6 
REMARK    3  A    between atoms: C2_3  and  C3_4 
REMARK    4  A    between atoms: C7_9  and  C8_10 
REMARK       I    between atoms: C8_10  and  N2_12 
REMARK    5  A    between atoms: N2_12  and  C9_13 
ROOT
HETATM    1  C4  UNL     1      26.402   1.110  53.650  1.00  0.00     0.029 A 
HETATM    2  C5  UNL     1      25.618  -0.019  53.548  1.00  0.00     0.030 A 
HETATM    3  C6  UNL     1      24.281   0.028  53.243  1.00  0.00     0.019 A 
HETATM    4  C7  UNL     1      23.632   1.200  53.021  1.00  0.00     0.032 A 
HETATM    5  C15 UNL     1      24.383   2.350  53.114  1.00  0.00     0.019 A 
HETATM    6  C16 UNL     1      25.745   2.291  53.424  1.00  0.00     0.030 A 
ENDROOT
BRANCH   4   7
HETATM    7  C8  UNL     1      22.231   1.370  52.693  1.00  0.00     0.256 C 
HETATM    8  O1  UNL     1      21.664   2.468  52.463  1.00  0.00    -0.267 OA
HETATM    9  N2  UNL     1      21.427   0.205  52.625  1.00  0.00    -0.323 N 
HETATM   10  H10 UNL     1      21.716  -0.782  52.785  1.00  0.00     0.169 HD
BRANCH   9  11
HETATM   11  C9  UNL     1      20.058  -0.058  52.346  1.00  0.00     0.035 A 
HETATM   12  C10 UNL     1      19.405   0.344  51.194  1.00  0.00     0.031 A 
HETATM   13  C11 UNL     1      18.076   0.077  50.941  1.00  0.00     0.021 A 
HETATM   14  C12 UNL     1      17.355  -0.632  51.891  1.00  0.00     0.011 A 
HETATM   15 BR1  UNL     1      15.494  -1.050  51.620  1.00  0.00    -0.051 Br
HETATM   16  C13 UNL     1      17.949  -1.059  53.058  1.00  0.00     0.021 A 
HETATM   17  C14 UNL     1      19.293  -0.771  53.280  1.00  0.00     0.031 A 
ENDBRANCH   9  11
ENDBRANCH   4   7
BRANCH   1  18
HETATM   18  N1  UNL     1      27.790   1.101  53.962  1.00  0.00    -0.384 N 
HETATM   19  C1  UNL     1      28.592   2.263  53.595  1.00  0.00     0.149 C 
BRANCH  18  20
HETATM   20  C2  UNL     1      28.469   0.006  54.623  1.00  0.00     0.137 C 
BRANCH  20  21
HETATM   21  C3  UNL     1      29.602  -0.562  53.796  1.00  0.00     0.134 C 
HETATM   22 CL1  UNL     1      29.174  -2.188  53.238  1.00  0.00    -0.129 Cl
ENDBRANCH  20  21
ENDBRANCH  18  20
ENDBRANCH   1  18
TORSDOF 5
ENDMDL
MODEL 2
REMARK VINA RESULT:      -7.2      1.506      1.939
REMARK  5 active torsions:
REMARK  status: ('A' for Active; 'I' for Inactive)
REMARK    1  A    between atoms: N1_2  and  C2_3 
REMARK    2  A    between atoms: N1_2  and  C4_6 
REMARK    3  A    between atoms: C2_3  and  C3_4 
REMARK    4  A    between atoms: C7_9  and  C8_10 
REMARK       I    between atoms: C8_10  and  N2_12 
REMARK    5  A    between atoms: N2_12  and  C9_13 
ROOT
HETATM    1  C4  UNL     1      25.961   0.320  53.970  1.00  0.00     0.029 A 
HETATM    2  C5  UNL     1      25.544  -0.631  54.876  1.00  0.00     0.030 A 
HETATM    3  C6  UNL     1      24.246  -1.069  54.950  1.00  0.00     0.019 A 
HETATM    4  C7  UNL     1      23.274  -0.590  54.131  1.00  0.00     0.032 A 
HETATM    5  C15 UNL     1      23.654   0.363  53.213  1.00  0.00     0.019 A 
HETATM    6  C16 UNL     1      24.980   0.801  53.145  1.00  0.00     0.030 A 
ENDROOT
BRANCH   4   7
HETATM    7  C8  UNL     1      21.877  -0.976  54.119  1.00  0.00     0.256 C 
HETATM    8  O1  UNL     1      21.334  -1.778  54.920  1.00  0.00    -0.267 OA
HETATM    9  N2  UNL     1      21.048  -0.404  53.122  1.00  0.00    -0.323 N 
HETATM   10  H10 UNL     1      21.316   0.272  52.378  1.00  0.00     0.169 HD
BRANCH   9  11
HETATM   11  C9  UNL     1      19.675  -0.511  52.772  1.00  0.00     0.035 A 
HETATM   12  C10 UNL     1      18.747  -1.265  53.471  1.00  0.00     0.031 A 
HETATM   13  C11 UNL     1      17.418  -1.354  53.116  1.00  0.00     0.021 A 
HETATM   14  C12 UNL     1      16.986  -0.652  52.001  1.00  0.00     0.011 A 
HETATM   15 BR1  UNL     1      15.146  -0.718  51.434  1.00  0.00    -0.051 Br
HETATM   16  C13 UNL     1      17.861   0.117  51.265  1.00  0.00     0.021 A 
HETATM   17  C14 UNL     1      19.196   0.184  51.652  1.00  0.00     0.031 A 
ENDBRANCH   9  11
ENDBRANCH   4   7
BRANCH   1  18
HETATM   18  N1  UNL     1      27.298   0.796  53.862  1.00  0.00    -0.384 N 
HETATM   19  C1  UNL     1      27.603   1.780  52.830  1.00  0.00     0.149 C 
BRANCH  18  20
HETATM   20  C2  UNL     1      28.387   0.366  54.714  1.00  0.00     0.137 C 
BRANCH  20  21
HETATM   21  C3  UNL     1      29.477  -0.352  53.948  1.00  0.00     0.134 C 
HETATM   22 CL1  UNL     1      28.804  -1.791  53.163  1.00  0.00    -0.129 Cl
ENDBRANCH  20  21
ENDBRANCH  18  20
ENDBRANCH   1  18
TORSDOF 5
ENDMDL
MODEL 3
REMARK VINA RESULT:      -7.1      4.750      8.799
REMARK  5 active torsions:
REMARK  status: ('A' for Active; 'I' for Inactive)
REMARK    1  A    between atoms: N1_2  and  C2_3 
REMARK    2  A    between atoms: N1_2  and  C4_6 
REMARK    3  A    between atoms: C2_3  and  C3_4 
REMARK    4  A    between atoms: C7_9  and  C8_10 
REMARK       I    between atoms: C8_10  and  N2_12 
REMARK    5  A    between atoms: N2_12  and  C9_13 
ROOT
HETATM    1  C4  UNL     1      18.999  -0.411  52.509  1.00  0.00     0.029 A 
HETATM    2  C5  UNL     1      19.209  -1.284  53.555  1.00  0.00     0.030 A 
HETATM    3  C6  UNL     1      20.439  -1.472  54.132  1.00  0.00     0.019 A 
HETATM    4  C7  UNL     1      21.545  -0.809  53.708  1.00  0.00     0.032 A 
HETATM    5  C15 UNL     1      21.375   0.071  52.662  1.00  0.00     0.019 A 
HETATM    6  C16 UNL     1      20.117   0.257  52.082  1.00  0.00     0.030 A 
ENDROOT
BRANCH   4   7
HETATM    7  C8  UNL     1      22.889  -0.927  54.238  1.00  0.00     0.256 C 
HETATM    8  O1  UNL     1      23.187  -1.348  55.384  1.00  0.00    -0.267 OA
HETATM    9  N2  UNL     1      23.961  -0.536  53.398  1.00  0.00    -0.323 N 
HETATM   10  H10 UNL     1      23.912  -0.165  52.427  1.00  0.00     0.169 HD
BRANCH   9  11
HETATM   11  C9  UNL     1      25.377  -0.495  53.526  1.00  0.00     0.035 A 
HETATM   12  C10 UNL     1      26.053   0.246  54.481  1.00  0.00     0.031 A 
HETATM   13  C11 UNL     1      27.427   0.271  54.590  1.00  0.00     0.021 A 
HETATM   14  C12 UNL     1      28.171  -0.485  53.697  1.00  0.00     0.011 A 
HETATM   15 BR1  UNL     1      30.096  -0.509  53.777  1.00  0.00    -0.051 Br
HETATM   16  C13 UNL     1      27.557  -1.242  52.724  1.00  0.00     0.021 A 
HETATM   17  C14 UNL     1      26.167  -1.244  52.644  1.00  0.00     0.031 A 
ENDBRANCH   9  11
ENDBRANCH   4   7
BRANCH   1  18
HETATM   18  N1  UNL     1      17.739  -0.188  51.887  1.00  0.00    -0.384 N 
HETATM   19  C1  UNL     1      16.529  -0.512  52.634  1.00  0.00     0.149 C 
BRANCH  18  20
HETATM   20  C2  UNL     1      17.574   0.342  50.550  1.00  0.00     0.137 C 
BRANCH  20  21
HETATM   21  C3  UNL     1      16.751   1.612  50.523  1.00  0.00     0.134 C 
HETATM   22 CL1  UNL     1      17.559   2.864  51.482  1.00  0.00    -0.129 Cl
ENDBRANCH  20  21
ENDBRANCH  18  20
ENDBRANCH   1  18
TORSDOF 5
ENDMDL
MODEL 4
REMARK VINA RESULT:      -7.0      1.541      2.086
REMARK  5 active torsions:
REMARK  status: ('A' for Active; 'I' for Inactive)
REMARK    1  A    between atoms: N1_2  and  C2_3 
REMARK    2  A    between atoms: N1_2  and  C4_6 
REMARK    3  A    between atoms: C2_3  and  C3_4 
REMARK    4  A    between atoms: C7_9  and  C8_10 
REMARK       I    between atoms: C8_10  and  N2_12 
REMARK    5  A    between atoms: N2_12  and  C9_13 
ROOT
HETATM    1  C4  UNL     1      25.150   0.224  53.441  1.00  0.00     0.029 A 
HETATM    2  C5  UNL     1      24.734   1.404  52.864  1.00  0.00     0.030 A 
HETATM    3  C6  UNL     1      23.412   1.699  52.645  1.00  0.00     0.019 A 
HETATM    4  C7  UNL     1      22.415   0.842  52.982  1.00  0.00     0.032 A 
HETATM    5  C15 UNL     1      22.793  -0.349  53.560  1.00  0.00     0.019 A 
HETATM    6  C16 UNL     1      24.142  -0.640  53.781  1.00  0.00     0.030 A 
ENDROOT
BRANCH   4   7
HETATM    7  C8  UNL     1      20.992   1.046  52.799  1.00  0.00     0.256 C 
HETATM    8  O1  UNL     1      20.372   2.114  53.033  1.00  0.00    -0.267 OA
HETATM    9  N2  UNL     1      20.230  -0.047  52.316  1.00  0.00    -0.323 N 
HETATM   10  H10 UNL     1      20.564  -1.001  52.070  1.00  0.00     0.169 HD
BRANCH   9  11
HETATM   11  C9  UNL     1      18.858  -0.260  52.008  1.00  0.00     0.035 A 
HETATM   12  C10 UNL     1      18.245   0.164  50.841  1.00  0.00     0.031 A 
HETATM   13  C11 UNL     1      16.913  -0.054  50.561  1.00  0.00     0.021 A 
HETATM   14  C12 UNL     1      16.146  -0.734  51.496  1.00  0.00     0.011 A 
HETATM   15 BR1  UNL     1      14.277  -1.084  51.187  1.00  0.00    -0.051 Br
HETATM   16  C13 UNL     1      16.699  -1.181  52.676  1.00  0.00     0.021 A 
HETATM   17  C14 UNL     1      18.048  -0.943  52.926  1.00  0.00     0.031 A 
ENDBRANCH   9  11
ENDBRANCH   4   7
BRANCH   1  18
HETATM   18  N1  UNL     1      26.510  -0.117  53.686  1.00  0.00    -0.384 N 
HETATM   19  C1  UNL     1      27.192  -0.985  52.732  1.00  0.00     0.149 C 
BRANCH  18  20
HETATM   20  C2  UNL     1      27.270   0.341  54.830  1.00  0.00     0.137 C 
BRANCH  20  21
HETATM   21  C3  UNL     1      28.670   0.783  54.461  1.00  0.00     0.134 C 
HETATM   22 CL1  UNL     1      28.600   2.344  53.625  1.00  0.00    -0.129 Cl
ENDBRANCH  20  21
ENDBRANCH  18  20
ENDBRANCH   1  18
TORSDOF 5
ENDMDL
MODEL 5
REMARK VINA RESULT:      -6.9      5.932      7.235
REMARK  5 active torsions:
REMARK  status: ('A' for Active; 'I' for Inactive)
REMARK    1  A    between atoms: N1_2  and  C2_3 
REMARK    2  A    between atoms: N1_2  and  C4_6 
REMARK    3  A    between atoms: C2_3  and  C3_4 
REMARK    4  A    between atoms: C7_9  and  C8_10 
REMARK       I    between atoms: C8_10  and  N2_12 
REMARK    5  A    between atoms: N2_12  and  C9_13 
ROOT
HETATM    1  C4  UNL     1      27.703   6.334  48.257  1.00  0.00     0.029 A 
HETATM    2  C5  UNL     1      26.375   6.670  48.409  1.00  0.00     0.030 A 
HETATM    3  C6  UNL     1      25.434   5.790  48.880  1.00  0.00     0.019 A 
HETATM    4  C7  UNL     1      25.747   4.515  49.229  1.00  0.00     0.032 A 
HETATM    5  C15 UNL     1      27.066   4.143  49.089  1.00  0.00     0.019 A 
HETATM    6  C16 UNL     1      28.017   5.048  48.610  1.00  0.00     0.030 A 
ENDROOT
BRANCH   4   7
HETATM    7  C8  UNL     1      24.842   3.503  49.735  1.00  0.00     0.256 C 
HETATM    8  O1  UNL     1      23.824   3.071  49.138  1.00  0.00    -0.267 OA
HETATM    9  N2  UNL     1      25.123   2.950  51.009  1.00  0.00    -0.323 N 
HETATM   10  H10 UNL     1      25.913   3.181  51.647  1.00  0.00     0.169 HD
BRANCH   9  11
HETATM   11  C9  UNL     1      24.512   1.971  51.839  1.00  0.00     0.035 A 
HETATM   12  C10 UNL     1      25.146   0.828  52.295  1.00  0.00     0.031 A 
HETATM   13  C11 UNL     1      24.536  -0.109  53.101  1.00  0.00     0.021 A 
HETATM   14  C12 UNL     1      23.217   0.103  53.474  1.00  0.00     0.011 A 
HETATM   15 BR1  UNL     1      22.286  -1.154  54.598  1.00  0.00    -0.051 Br
HETATM   16  C13 UNL     1      22.532   1.221  53.052  1.00  0.00     0.021 A 
HETATM   17  C14 UNL     1      23.180   2.147  52.239  1.00  0.00     0.031 A 
ENDBRANCH   9  11
ENDBRANCH   4   7
BRANCH   1  18
HETATM   18  N1  UNL     1      28.707   7.219  47.774  1.00  0.00    -0.384 N 
HETATM   19  C1  UNL     1      28.515   7.843  46.470  1.00  0.00     0.149 C 
BRANCH  18  20
HETATM   20  C2  UNL     1      29.920   7.544  48.496  1.00  0.00     0.137 C 
BRANCH  20  21
HETATM   21  C3  UNL     1      29.951   8.983  48.965  1.00  0.00     0.134 C 
HETATM   22 CL1  UNL     1      28.441   9.365  49.811  1.00  0.00    -0.129 Cl
ENDBRANCH  20  21
ENDBRANCH  18  20
ENDBRANCH   1  18
TORSDOF 5
ENDMDL
MODEL 6
REMARK VINA RESULT:      -6.8      7.702     11.328
REMARK  5 active torsions:
REMARK  status: ('A' for Active; 'I' for Inactive)
REMARK    1  A    between atoms: N1_2  and  C2_3 
REMARK    2  A    between atoms: N1_2  and  C4_6 
REMARK    3  A    between atoms: C2_3  and  C3_4 
REMARK    4  A    between atoms: C7_9  and  C8_10 
REMARK       I    between atoms: C8_10  and  N2_12 
REMARK    5  A    between atoms: N2_12  and  C9_13 
ROOT
HETATM    1  C4  UNL     1      24.807   4.043  49.607  1.00  0.00     0.029 A 
HETATM    2  C5  UNL     1      24.696   5.343  49.164  1.00  0.00     0.030 A 
HETATM    3  C6  UNL     1      25.769   6.072  48.718  1.00  0.00     0.019 A 
HETATM    4  C7  UNL     1      27.026   5.560  48.684  1.00  0.00     0.032 A 
HETATM    5  C15 UNL     1      27.177   4.262  49.119  1.00  0.00     0.019 A 
HETATM    6  C16 UNL     1      26.077   3.527  49.571  1.00  0.00     0.030 A 
ENDROOT
BRANCH   4   7
HETATM    7  C8  UNL     1      28.229   6.232  48.235  1.00  0.00     0.256 C 
HETATM    8  O1  UNL     1      28.278   7.136  47.363  1.00  0.00    -0.267 OA
HETATM    9  N2  UNL     1      29.457   5.842  48.826  1.00  0.00    -0.323 N 
HETATM   10  H10 UNL     1      29.614   5.118  49.556  1.00  0.00     0.169 HD
BRANCH   9  11
HETATM   11  C9  UNL     1      30.815   6.235  48.677  1.00  0.00     0.035 A 
HETATM   12  C10 UNL     1      31.795   5.449  48.095  1.00  0.00     0.031 A 
HETATM   13  C11 UNL     1      33.107   5.849  47.958  1.00  0.00     0.021 A 
HETATM   14  C12 UNL     1      33.465   7.104  48.428  1.00  0.00     0.011 A 
HETATM   15 BR1  UNL     1      35.276   7.745  48.277  1.00  0.00    -0.051 Br
HETATM   16  C13 UNL     1      32.535   7.932  49.016  1.00  0.00     0.021 A 
HETATM   17  C14 UNL     1      31.218   7.495  49.138  1.00  0.00     0.031 A 
ENDBRANCH   9  11
ENDBRANCH   4   7
BRANCH   1  18
HETATM   18  N1  UNL     1      23.718   3.255  50.074  1.00  0.00    -0.384 N 
HETATM   19  C1  UNL     1      22.851   2.616  49.091  1.00  0.00     0.149 C 
BRANCH  18  20
HETATM   20  C2  UNL     1      23.407   3.045  51.473  1.00  0.00     0.137 C 
BRANCH  20  21
HETATM   21  C3  UNL     1      23.420   1.582  51.860  1.00  0.00     0.134 C 
HETATM   22 CL1  UNL     1      25.095   1.020  52.000  1.00  0.00    -0.129 Cl
ENDBRANCH  20  21
ENDBRANCH  18  20
ENDBRANCH   1  18
TORSDOF 5
ENDMDL
MODEL 7
REMARK VINA RESULT:      -6.8      6.389      8.906
REMARK  5 active torsions:
REMARK  status: ('A' for Active; 'I' for Inactive)
REMARK    1  A    between atoms: N1_2  and  C2_3 
REMARK    2  A    between atoms: N1_2  and  C4_6 
REMARK    3  A    between atoms: C2_3  and  C3_4 
REMARK    4  A    between atoms: C7_9  and  C8_10 
REMARK       I    between atoms: C8_10  and  N2_12 
REMARK    5  A    between atoms: N2_12  and  C9_13 
ROOT
HETATM    1  C4  UNL     1      24.822   0.951  52.254  1.00  0.00     0.029 A 
HETATM    2  C5  UNL     1      26.115   1.299  51.929  1.00  0.00     0.030 A 
HETATM    3  C6  UNL     1      26.417   2.334  51.081  1.00  0.00     0.019 A 
HETATM    4  C7  UNL     1      25.454   3.093  50.496  1.00  0.00     0.032 A 
HETATM    5  C15 UNL     1      24.148   2.773  50.796  1.00  0.00     0.019 A 
HETATM    6  C16 UNL     1      23.852   1.717  51.662  1.00  0.00     0.030 A 
ENDROOT
BRANCH   4   7
HETATM    7  C8  UNL     1      25.653   4.204  49.588  1.00  0.00     0.256 C 
HETATM    8  O1  UNL     1      24.742   4.828  48.987  1.00  0.00    -0.267 OA
HETATM    9  N2  UNL     1      26.984   4.630  49.354  1.00  0.00    -0.323 N 
HETATM   10  H10 UNL     1      27.861   4.239  49.757  1.00  0.00     0.169 HD
BRANCH   9  11
HETATM   11  C9  UNL     1      27.593   5.643  48.565  1.00  0.00     0.035 A 
HETATM   12  C10 UNL     1      26.921   6.735  48.042  1.00  0.00     0.031 A 
HETATM   13  C11 UNL     1      27.530   7.709  47.280  1.00  0.00     0.021 A 
HETATM   14  C12 UNL     1      28.888   7.590  47.024  1.00  0.00     0.011 A 
HETATM   15 BR1  UNL     1      29.821   8.905  45.970  1.00  0.00    -0.051 Br
HETATM   16  C13 UNL     1      29.612   6.527  47.517  1.00  0.00     0.021 A 
HETATM   17  C14 UNL     1      28.964   5.562  48.284  1.00  0.00     0.031 A 
ENDBRANCH   9  11
ENDBRANCH   4   7
BRANCH   1  18
HETATM   18  N1  UNL     1      24.470  -0.114  53.130  1.00  0.00    -0.384 N 
HETATM   19  C1  UNL     1      25.496  -0.651  54.016  1.00  0.00     0.149 C 
BRANCH  18  20
HETATM   20  C2  UNL     1      23.151  -0.708  53.201  1.00  0.00     0.137 C 
BRANCH  20  21
HETATM   21  C3  UNL     1      22.660  -0.869  54.624  1.00  0.00     0.134 C 
HETATM   22 CL1  UNL     1      21.132   0.004  54.827  1.00  0.00    -0.129 Cl
ENDBRANCH  20  21
ENDBRANCH  18  20
ENDBRANCH   1  18
TORSDOF 5
ENDMDL
MODEL 8
REMARK VINA RESULT:      -6.7      6.047      7.314
REMARK  5 active torsions:
REMARK  status: ('A' for Active; 'I' for Inactive)
REMARK    1  A    between atoms: N1_2  and  C2_3 
REMARK    2  A    between atoms: N1_2  and  C4_6 
REMARK    3  A    between atoms: C2_3  and  C3_4 
REMARK    4  A    between atoms: C7_9  and  C8_10 
REMARK       I    between atoms: C8_10  and  N2_12 
REMARK    5  A    between atoms: N2_12  and  C9_13 
ROOT
HETATM    1  C4  UNL     1      26.660   6.695  48.409  1.00  0.00     0.029 A 
HETATM    2  C5  UNL     1      27.585   5.675  48.344  1.00  0.00     0.030 A 
HETATM    3  C6  UNL     1      27.418   4.476  48.988  1.00  0.00     0.019 A 
HETATM    4  C7  UNL     1      26.321   4.209  49.744  1.00  0.00     0.032 A 
HETATM    5  C15 UNL     1      25.375   5.205  49.832  1.00  0.00     0.019 A 
HETATM    6  C16 UNL     1      25.554   6.423  49.171  1.00  0.00     0.030 A 
ENDROOT
BRANCH   4   7
HETATM    7  C8  UNL     1      26.039   2.985  50.466  1.00  0.00     0.256 C 
HETATM    8  O1  UNL     1      26.857   2.054  50.673  1.00  0.00    -0.267 OA
HETATM    9  N2  UNL     1      24.731   2.818  50.986  1.00  0.00    -0.323 N 
HETATM   10  H10 UNL     1      23.926   3.473  50.915  1.00  0.00     0.169 HD
BRANCH   9  11
HETATM   11  C9  UNL     1      24.065   1.805  51.728  1.00  0.00     0.035 A 
HETATM   12  C10 UNL     1      24.619   1.132  52.804  1.00  0.00     0.031 A 
HETATM   13  C11 UNL     1      23.955   0.153  53.512  1.00  0.00     0.021 A 
HETATM   14  C12 UNL     1      22.664  -0.176  53.127  1.00  0.00     0.011 A 
HETATM   15 BR1  UNL     1      21.662  -1.531  54.060  1.00  0.00    -0.051 Br
HETATM   16  C13 UNL     1      22.058   0.457  52.064  1.00  0.00     0.021 A 
HETATM   17  C14 UNL     1      22.759   1.442  51.372  1.00  0.00     0.031 A 
ENDBRANCH   9  11
ENDBRANCH   4   7
BRANCH   1  18
HETATM   18  N1  UNL     1      26.797   7.950  47.752  1.00  0.00    -0.384 N 
HETATM   19  C1  UNL     1      27.810   8.082  46.711  1.00  0.00     0.149 C 
BRANCH  18  20
HETATM   20  C2  UNL     1      25.995   9.117  48.052  1.00  0.00     0.137 C 
BRANCH  20  21
HETATM   21  C3  UNL     1      26.741  10.141  48.879  1.00  0.00     0.134 C 
HETATM   22 CL1  UNL     1      27.469   9.352  50.289  1.00  0.00    -0.129 Cl
ENDBRANCH  20  21
ENDBRANCH  18  20
ENDBRANCH   1  18
TORSDOF 5
ENDMDL
MODEL 9
REMARK VINA RESULT:      -6.7      7.031      8.667
REMARK  5 active torsions:
REMARK  status: ('A' for Active; 'I' for Inactive)
REMARK    1  A    between atoms: N1_2  and  C2_3 
REMARK    2  A    between atoms: N1_2  and  C4_6 
REMARK    3  A    between atoms: C2_3  and  C3_4 
REMARK    4  A    between atoms: C7_9  and  C8_10 
REMARK       I    between atoms: C8_10  and  N2_12 
REMARK    5  A    between atoms: N2_12  and  C9_13 
ROOT
HETATM    1  C4  UNL     1      28.583   7.277  47.699  1.00  0.00     0.029 A 
HETATM    2  C5  UNL     1      29.034   5.993  47.915  1.00  0.00     0.030 A 
HETATM    3  C6  UNL     1      28.256   5.017  48.483  1.00  0.00     0.019 A 
HETATM    4  C7  UNL     1      26.978   5.250  48.879  1.00  0.00     0.032 A 
HETATM    5  C15 UNL     1      26.492   6.524  48.679  1.00  0.00     0.019 A 
HETATM    6  C16 UNL     1      27.293   7.511  48.098  1.00  0.00     0.030 A 
ENDROOT
BRANCH   4   7
HETATM    7  C8  UNL     1      26.067   4.302  49.487  1.00  0.00     0.256 C 
HETATM    8  O1  UNL     1      24.908   4.037  49.078  1.00  0.00    -0.267 OA
HETATM    9  N2  UNL     1      26.514   3.612  50.642  1.00  0.00    -0.323 N 
HETATM   10  H10 UNL     1      27.433   3.699  51.123  1.00  0.00     0.169 HD
BRANCH   9  11
HETATM   11  C9  UNL     1      25.955   2.636  51.511  1.00  0.00     0.035 A 
HETATM   12  C10 UNL     1      24.779   2.806  52.222  1.00  0.00     0.031 A 
HETATM   13  C11 UNL     1      24.251   1.846  53.059  1.00  0.00     0.021 A 
HETATM   14  C12 UNL     1      24.935   0.647  53.197  1.00  0.00     0.011 A 
HETATM   15 BR1  UNL     1      24.271  -0.751  54.344  1.00  0.00    -0.051 Br
HETATM   16  C13 UNL     1      26.110   0.418  52.516  1.00  0.00     0.021 A 
HETATM   17  C14 UNL     1      26.613   1.410  51.679  1.00  0.00     0.031 A 
ENDBRANCH   9  11
ENDBRANCH   4   7
BRANCH   1  18
HETATM   18  N1  UNL     1      29.359   8.315  47.110  1.00  0.00    -0.384 N 
HETATM   19  C1  UNL     1      30.015   9.276  47.990  1.00  0.00     0.149 C 
BRANCH  18  20
HETATM   20  C2  UNL     1      29.541   8.486  45.684  1.00  0.00     0.137 C 
BRANCH  20  21
HETATM   21  C3  UNL     1      28.550   9.459  45.082  1.00  0.00     0.134 C 
HETATM   22 CL1  UNL     1      27.202   8.563  44.359  1.00  0.00    -0.129 Cl
ENDBRANCH  20  21
ENDBRANCH  18  20
ENDBRANCH   1  18
TORSDOF 5
ENDMDL
