MODEL 1
REMARK VINA RESULT:      -9.6      0.000      0.000
REMARK  6 active torsions:
REMARK  status: ('A' for Active; 'I' for Inactive)
REMARK    1  A    between atoms: C6_6  and  O1_7 
REMARK    2  A    between atoms: C7_8  and  C8_9 
REMARK    3  A    between atoms: C8_9  and  N1_10 
REMARK    4  A    between atoms: N1_10  and  C9_11 
REMARK       I    between atoms: N1_10  and  C16_19 
REMARK    5  A    between atoms: C9_11  and  C10_12 
REMARK       I    between atoms: C16_19  and  N2_21 
REMARK    6  A    between atoms: N2_21  and  C17_22 
ROOT
HETATM    1  N1  UNL     1      23.370   1.698  51.794  1.00  0.00    -0.325 N 
HETATM    2  C16 UNL     1      23.611   2.943  51.089  1.00  0.00     0.322 C 
HETATM    3  O2  UNL     1      23.089   3.242  49.956  1.00  0.00    -0.247 OA
HETATM    4  N2  UNL     1      24.439   4.011  51.515  1.00  0.00    -0.318 N 
HETATM    5  H17 UNL     1      24.938   3.901  52.416  1.00  0.00     0.170 HD
ENDROOT
BRANCH   1   6
HETATM    6  C8  UNL     1      23.974   1.496  53.074  1.00  0.00     0.169 C 
BRANCH   6   7
HETATM    7  C7  UNL     1      25.313   0.940  53.128  1.00  0.00    -0.006 A 
HETATM    8  C6  UNL     1      26.473   1.598  53.506  1.00  0.00     0.079 A 
HETATM    9  C4  UNL     1      27.743   1.070  53.548  1.00  0.00    -0.028 A 
HETATM   10  C3  UNL     1      27.932  -0.246  53.187  1.00  0.00     0.016 A 
HETATM   11  C5  UNL     1      28.921   1.878  53.972  1.00  0.00     0.051 C 
HETATM   12  C2  UNL     1      26.841  -0.968  52.802  1.00  0.00    -0.061 A 
HETATM   13  C1  UNL     1      27.096  -2.377  52.425  1.00  0.00     0.048 C 
HETATM   14  C23 UNL     1      25.587  -0.380  52.780  1.00  0.00     0.018 A 
BRANCH   8  15
HETATM   15  O1  UNL     1      26.400   2.923  53.892  1.00  0.00    -0.360 OA
HETATM   16  H8  UNL     1      25.510   3.346  54.047  1.00  0.00     0.217 HD
ENDBRANCH   8  15
ENDBRANCH   6   7
ENDBRANCH   1   6
BRANCH   1  17
HETATM   17  C9  UNL     1      22.520   0.778  51.028  1.00  0.00     0.166 C 
BRANCH  17  18
HETATM   18  C10 UNL     1      21.415   0.245  51.865  1.00  0.00    -0.040 A 
HETATM   19  C11 UNL     1      20.146   0.475  51.333  1.00  0.00     0.012 A 
HETATM   20  C12 UNL     1      18.979   0.064  51.945  1.00  0.00     0.043 A 
HETATM   21  C13 UNL     1      19.073  -0.613  53.146  1.00  0.00     0.116 A 
HETATM   22  F1  UNL     1      17.931  -1.023  53.756  1.00  0.00    -0.206 F 
HETATM   23  C14 UNL     1      20.315  -0.851  53.687  1.00  0.00     0.043 A 
HETATM   24  C15 UNL     1      21.470  -0.432  53.062  1.00  0.00     0.012 A 
ENDBRANCH  17  18
ENDBRANCH   1  17
BRANCH   4  25
HETATM   25  C17 UNL     1      24.595   5.187  50.739  1.00  0.00     0.104 C 
HETATM   26  C18 UNL     1      25.618   5.265  49.905  1.00  0.00    -0.021 A 
HETATM   27  C19 UNL     1      26.000   6.344  49.009  1.00  0.00     0.013 A 
HETATM   28  C22 UNL     1      26.658   4.253  49.669  1.00  0.00     0.013 A 
HETATM   29  C20 UNL     1      27.103   6.006  48.347  1.00  0.00     0.001 A 
HETATM   30  C21 UNL     1      27.537   4.662  48.762  1.00  0.00     0.001 A 
ENDBRANCH   4  25
TORSDOF 6
ENDMDL
MODEL 2
REMARK VINA RESULT:      -9.5      2.443      5.497
REMARK  6 active torsions:
REMARK  status: ('A' for Active; 'I' for Inactive)
REMARK    1  A    between atoms: C6_6  and  O1_7 
REMARK    2  A    between atoms: C7_8  and  C8_9 
REMARK    3  A    between atoms: C8_9  and  N1_10 
REMARK    4  A    between atoms: N1_10  and  C9_11 
REMARK       I    between atoms: N1_10  and  C16_19 
REMARK    5  A    between atoms: C9_11  and  C10_12 
REMARK       I    between atoms: C16_19  and  N2_21 
REMARK    6  A    between atoms: N2_21  and  C17_22 
ROOT
HETATM    1  N1  UNL     1      25.504   2.504  52.978  1.00  0.00    -0.325 N 
HETATM    2  C16 UNL     1      26.310   2.887  51.834  1.00  0.00     0.322 C 
HETATM    3  O2  UNL     1      27.556   2.607  51.704  1.00  0.00    -0.247 OA
HETATM    4  N2  UNL     1      25.878   3.615  50.698  1.00  0.00    -0.318 N 
HETATM    5  H17 UNL     1      24.888   3.920  50.672  1.00  0.00     0.170 HD
ENDROOT
BRANCH   1   6
HETATM    6  C8  UNL     1      24.113   2.834  52.990  1.00  0.00     0.169 C 
BRANCH   6   7
HETATM    7  C7  UNL     1      23.166   1.859  52.483  1.00  0.00    -0.006 A 
HETATM    8  C6  UNL     1      22.684   1.763  51.186  1.00  0.00     0.079 A 
HETATM    9  C4  UNL     1      21.780   0.841  50.710  1.00  0.00    -0.028 A 
HETATM   10  C3  UNL     1      21.272  -0.105  51.573  1.00  0.00     0.016 A 
HETATM   11  C5  UNL     1      21.331   0.836  49.289  1.00  0.00     0.051 C 
HETATM   12  C2  UNL     1      21.696  -0.083  52.869  1.00  0.00    -0.061 A 
HETATM   13  C1  UNL     1      21.123  -1.121  53.757  1.00  0.00     0.048 C 
HETATM   14  C23 UNL     1      22.609   0.870  53.289  1.00  0.00     0.018 A 
BRANCH   8  15
HETATM   15  O1  UNL     1      23.128   2.661  50.234  1.00  0.00    -0.360 OA
HETATM   16  H8  UNL     1      23.463   3.557  50.516  1.00  0.00     0.217 HD
ENDBRANCH   8  15
ENDBRANCH   6   7
ENDBRANCH   1   6
BRANCH   1  17
HETATM   17  C9  UNL     1      26.292   1.824  54.013  1.00  0.00     0.166 C 
BRANCH  17  18
HETATM   18  C10 UNL     1      26.705   0.469  53.571  1.00  0.00    -0.040 A 
HETATM   19  C11 UNL     1      28.018   0.142  53.911  1.00  0.00     0.012 A 
HETATM   20  C12 UNL     1      28.606  -1.068  53.599  1.00  0.00     0.043 A 
HETATM   21  C13 UNL     1      27.854  -2.004  52.915  1.00  0.00     0.116 A 
HETATM   22  F1  UNL     1      28.423  -3.197  52.604  1.00  0.00    -0.206 F 
HETATM   23  C14 UNL     1      26.557  -1.702  52.571  1.00  0.00     0.043 A 
HETATM   24  C15 UNL     1      25.986  -0.488  52.890  1.00  0.00     0.012 A 
ENDBRANCH  17  18
ENDBRANCH   1  17
BRANCH   4  25
HETATM   25  C17 UNL     1      26.760   3.928  49.634  1.00  0.00     0.104 C 
HETATM   26  C18 UNL     1      26.815   5.178  49.202  1.00  0.00    -0.021 A 
HETATM   27  C19 UNL     1      27.623   5.754  48.142  1.00  0.00     0.013 A 
HETATM   28  C22 UNL     1      26.048   6.329  49.701  1.00  0.00     0.013 A 
HETATM   29  C20 UNL     1      27.363   7.055  48.039  1.00  0.00     0.001 A 
HETATM   30  C21 UNL     1      26.352   7.438  49.037  1.00  0.00     0.001 A 
ENDBRANCH   4  25
TORSDOF 6
ENDMDL
MODEL 3
REMARK VINA RESULT:      -9.4      2.989      6.700
REMARK  6 active torsions:
REMARK  status: ('A' for Active; 'I' for Inactive)
REMARK    1  A    between atoms: C6_6  and  O1_7 
REMARK    2  A    between atoms: C7_8  and  C8_9 
REMARK    3  A    between atoms: C8_9  and  N1_10 
REMARK    4  A    between atoms: N1_10  and  C9_11 
REMARK       I    between atoms: N1_10  and  C16_19 
REMARK    5  A    between atoms: C9_11  and  C10_12 
REMARK       I    between atoms: C16_19  and  N2_21 
REMARK    6  A    between atoms: N2_21  and  C17_22 
ROOT
HETATM    1  N1  UNL     1      25.495   2.590  51.081  1.00  0.00    -0.325 N 
HETATM    2  C16 UNL     1      24.105   2.240  51.305  1.00  0.00     0.322 C 
HETATM    3  O2  UNL     1      23.226   2.144  50.374  1.00  0.00    -0.247 OA
HETATM    4  N2  UNL     1      23.493   1.953  52.550  1.00  0.00    -0.318 N 
HETATM    5  H17 UNL     1      24.086   2.004  53.398  1.00  0.00     0.170 HD
ENDROOT
BRANCH   1   6
HETATM    6  C8  UNL     1      26.392   2.622  52.193  1.00  0.00     0.169 C 
BRANCH   6   7
HETATM    7  C7  UNL     1      27.112   1.409  52.535  1.00  0.00    -0.006 A 
HETATM    8  C6  UNL     1      28.381   1.323  53.087  1.00  0.00     0.079 A 
HETATM    9  C4  UNL     1      29.065   0.171  53.403  1.00  0.00    -0.028 A 
HETATM   10  C3  UNL     1      28.467  -1.048  53.166  1.00  0.00     0.016 A 
HETATM   11  C5  UNL     1      30.433   0.200  53.993  1.00  0.00     0.051 C 
HETATM   12  C2  UNL     1      27.215  -1.053  52.626  1.00  0.00    -0.061 A 
HETATM   13  C1  UNL     1      26.615  -2.387  52.391  1.00  0.00     0.048 C 
HETATM   14  C23 UNL     1      26.578   0.140  52.328  1.00  0.00     0.018 A 
BRANCH   8  15
HETATM   15  O1  UNL     1      29.073   2.485  53.369  1.00  0.00    -0.360 OA
HETATM   16  H8  UNL     1      29.005   3.265  52.751  1.00  0.00     0.217 HD
ENDBRANCH   8  15
ENDBRANCH   6   7
ENDBRANCH   1   6
BRANCH   1  17
HETATM   17  C9  UNL     1      25.772   2.902  49.673  1.00  0.00     0.166 C 
BRANCH  17  18
HETATM   18  C10 UNL     1      26.093   4.340  49.494  1.00  0.00    -0.040 A 
HETATM   19  C11 UNL     1      27.271   4.569  48.781  1.00  0.00     0.012 A 
HETATM   20  C12 UNL     1      27.755   5.830  48.498  1.00  0.00     0.043 A 
HETATM   21  C13 UNL     1      27.037   6.923  48.943  1.00  0.00     0.116 A 
HETATM   22  F1  UNL     1      27.504   8.168  48.670  1.00  0.00    -0.206 F 
HETATM   23  C14 UNL     1      25.873   6.719  49.647  1.00  0.00     0.043 A 
HETATM   24  C15 UNL     1      25.404   5.452  49.921  1.00  0.00     0.012 A 
ENDBRANCH  17  18
ENDBRANCH   1  17
BRANCH   4  25
HETATM   25  C17 UNL     1      22.120   1.617  52.645  1.00  0.00     0.104 C 
HETATM   26  C18 UNL     1      21.784   0.483  53.238  1.00  0.00    -0.021 A 
HETATM   27  C19 UNL     1      20.466  -0.087  53.463  1.00  0.00     0.013 A 
HETATM   28  C22 UNL     1      22.685  -0.515  53.834  1.00  0.00     0.013 A 
HETATM   29  C20 UNL     1      20.585  -1.249  54.099  1.00  0.00     0.001 A 
HETATM   30  C21 UNL     1      22.008  -1.536  54.344  1.00  0.00     0.001 A 
ENDBRANCH   4  25
TORSDOF 6
ENDMDL
MODEL 4
REMARK VINA RESULT:      -9.4      2.163      5.373
REMARK  6 active torsions:
REMARK  status: ('A' for Active; 'I' for Inactive)
REMARK    1  A    between atoms: C6_6  and  O1_7 
REMARK    2  A    between atoms: C7_8  and  C8_9 
REMARK    3  A    between atoms: C8_9  and  N1_10 
REMARK    4  A    between atoms: N1_10  and  C9_11 
REMARK       I    between atoms: N1_10  and  C16_19 
REMARK    5  A    between atoms: C9_11  and  C10_12 
REMARK       I    between atoms: C16_19  and  N2_21 
REMARK    6  A    between atoms: N2_21  and  C17_22 
ROOT
HETATM    1  N1  UNL     1      23.433   1.475  53.058  1.00  0.00    -0.325 N 
HETATM    2  C16 UNL     1      24.341   0.344  53.008  1.00  0.00     0.322 C 
HETATM    3  O2  UNL     1      23.969  -0.882  53.078  1.00  0.00    -0.247 OA
HETATM    4  N2  UNL     1      25.751   0.395  52.880  1.00  0.00    -0.318 N 
HETATM    5  H17 UNL     1      26.194   1.329  52.824  1.00  0.00     0.170 HD
ENDROOT
BRANCH   1   6
HETATM    6  C8  UNL     1      23.960   2.796  52.925  1.00  0.00     0.169 C 
BRANCH   6   7
HETATM    7  C7  UNL     1      24.192   3.318  51.591  1.00  0.00    -0.006 A 
HETATM    8  C6  UNL     1      25.419   3.495  50.969  1.00  0.00     0.079 A 
HETATM    9  C4  UNL     1      25.637   3.998  49.706  1.00  0.00    -0.028 A 
HETATM   10  C3  UNL     1      24.555   4.378  48.942  1.00  0.00     0.016 A 
HETATM   11  C5  UNL     1      27.007   4.145  49.140  1.00  0.00     0.051 C 
HETATM   12  C2  UNL     1      23.310   4.235  49.480  1.00  0.00    -0.061 A 
HETATM   13  C1  UNL     1      22.180   4.657  48.619  1.00  0.00     0.048 C 
HETATM   14  C23 UNL     1      23.154   3.723  50.757  1.00  0.00     0.018 A 
BRANCH   8  15
HETATM   15  O1  UNL     1      26.573   3.144  51.643  1.00  0.00    -0.360 OA
HETATM   16  H8  UNL     1      26.539   2.962  52.622  1.00  0.00     0.217 HD
ENDBRANCH   8  15
ENDBRANCH   6   7
ENDBRANCH   1   6
BRANCH   1  17
HETATM   17  C9  UNL     1      22.040   1.063  53.276  1.00  0.00     0.166 C 
BRANCH  17  18
HETATM   18  C10 UNL     1      21.231   1.231  52.043  1.00  0.00    -0.040 A 
HETATM   19  C11 UNL     1      20.196   2.158  52.171  1.00  0.00     0.012 A 
HETATM   20  C12 UNL     1      19.324   2.470  51.148  1.00  0.00     0.043 A 
HETATM   21  C13 UNL     1      19.483   1.831  49.933  1.00  0.00     0.116 A 
HETATM   22  F1  UNL     1      18.630   2.131  48.920  1.00  0.00    -0.206 F 
HETATM   23  C14 UNL     1      20.497   0.914  49.786  1.00  0.00     0.043 A 
HETATM   24  C15 UNL     1      21.360   0.614  50.819  1.00  0.00     0.012 A 
ENDBRANCH  17  18
ENDBRANCH   1  17
BRANCH   4  25
HETATM   25  C17 UNL     1      26.537  -0.783  52.838  1.00  0.00     0.104 C 
HETATM   26  C18 UNL     1      27.820  -0.701  53.151  1.00  0.00    -0.021 A 
HETATM   27  C19 UNL     1      28.831  -1.744  53.186  1.00  0.00     0.013 A 
HETATM   28  C22 UNL     1      28.567   0.501  53.551  1.00  0.00     0.013 A 
HETATM   29  C20 UNL     1      29.998  -1.222  53.556  1.00  0.00     0.001 A 
HETATM   30  C21 UNL     1      29.842   0.222  53.794  1.00  0.00     0.001 A 
ENDBRANCH   4  25
TORSDOF 6
ENDMDL
MODEL 5
REMARK VINA RESULT:      -9.4      1.599      2.049
REMARK  6 active torsions:
REMARK  status: ('A' for Active; 'I' for Inactive)
REMARK    1  A    between atoms: C6_6  and  O1_7 
REMARK    2  A    between atoms: C7_8  and  C8_9 
REMARK    3  A    between atoms: C8_9  and  N1_10 
REMARK    4  A    between atoms: N1_10  and  C9_11 
REMARK       I    between atoms: N1_10  and  C16_19 
REMARK    5  A    between atoms: C9_11  and  C10_12 
REMARK       I    between atoms: C16_19  and  N2_21 
REMARK    6  A    between atoms: N2_21  and  C17_22 
ROOT
HETATM    1  N1  UNL     1      23.626   3.347  51.198  1.00  0.00    -0.325 N 
HETATM    2  C16 UNL     1      24.085   4.530  50.496  1.00  0.00     0.322 C 
HETATM    3  O2  UNL     1      23.547   5.690  50.608  1.00  0.00    -0.247 OA
HETATM    4  N2  UNL     1      25.173   4.609  49.591  1.00  0.00    -0.318 N 
HETATM    5  H17 UNL     1      25.697   3.738  49.393  1.00  0.00     0.170 HD
ENDROOT
BRANCH   1   6
HETATM    6  C8  UNL     1      24.335   2.117  51.027  1.00  0.00     0.169 C 
BRANCH   6   7
HETATM    7  C7  UNL     1      25.206   1.667  52.097  1.00  0.00    -0.006 A 
HETATM    8  C6  UNL     1      26.493   2.108  52.363  1.00  0.00     0.079 A 
HETATM    9  C4  UNL     1      27.320   1.673  53.374  1.00  0.00    -0.028 A 
HETATM   10  C3  UNL     1      26.867   0.699  54.236  1.00  0.00     0.016 A 
HETATM   11  C5  UNL     1      28.692   2.221  53.564  1.00  0.00     0.051 C 
HETATM   12  C2  UNL     1      25.608   0.210  54.045  1.00  0.00    -0.061 A 
HETATM   13  C1  UNL     1      25.166  -0.834  54.999  1.00  0.00     0.048 C 
HETATM   14  C23 UNL     1      24.822   0.688  53.010  1.00  0.00     0.018 A 
BRANCH   8  15
HETATM   15  O1  UNL     1      27.049   3.087  51.562  1.00  0.00    -0.360 OA
HETATM   16  H8  UNL     1      27.838   3.603  51.887  1.00  0.00     0.217 HD
ENDBRANCH   8  15
ENDBRANCH   6   7
ENDBRANCH   1   6
BRANCH   1  17
HETATM   17  C9  UNL     1      22.422   3.605  51.998  1.00  0.00     0.166 C 
BRANCH  17  18
HETATM   18  C10 UNL     1      21.477   2.461  51.931  1.00  0.00    -0.040 A 
HETATM   19  C11 UNL     1      20.703   2.438  50.771  1.00  0.00     0.012 A 
HETATM   20  C12 UNL     1      19.763   1.464  50.503  1.00  0.00     0.043 A 
HETATM   21  C13 UNL     1      19.579   0.457  51.433  1.00  0.00     0.116 A 
HETATM   22  F1  UNL     1      18.658  -0.507  51.179  1.00  0.00    -0.206 F 
HETATM   23  C14 UNL     1      20.334   0.461  52.583  1.00  0.00     0.043 A 
HETATM   24  C15 UNL     1      21.268   1.443  52.834  1.00  0.00     0.012 A 
ENDBRANCH  17  18
ENDBRANCH   1  17
BRANCH   4  25
HETATM   25  C17 UNL     1      25.532   5.829  48.965  1.00  0.00     0.104 C 
HETATM   26  C18 UNL     1      26.780   5.986  48.552  1.00  0.00    -0.021 A 
HETATM   27  C19 UNL     1      27.397   7.123  47.890  1.00  0.00     0.013 A 
HETATM   28  C22 UNL     1      27.885   5.024  48.663  1.00  0.00     0.013 A 
HETATM   29  C20 UNL     1      28.679   6.858  47.651  1.00  0.00     0.001 A 
HETATM   30  C21 UNL     1      29.006   5.510  48.143  1.00  0.00     0.001 A 
ENDBRANCH   4  25
TORSDOF 6
ENDMDL
MODEL 6
REMARK VINA RESULT:      -9.3      2.992      7.292
REMARK  6 active torsions:
REMARK  status: ('A' for Active; 'I' for Inactive)
REMARK    1  A    between atoms: C6_6  and  O1_7 
REMARK    2  A    between atoms: C7_8  and  C8_9 
REMARK    3  A    between atoms: C8_9  and  N1_10 
REMARK    4  A    between atoms: N1_10  and  C9_11 
REMARK       I    between atoms: N1_10  and  C16_19 
REMARK    5  A    between atoms: C9_11  and  C10_12 
REMARK       I    between atoms: C16_19  and  N2_21 
REMARK    6  A    between atoms: N2_21  and  C17_22 
ROOT
HETATM    1  N1  UNL     1      23.417   0.128  53.208  1.00  0.00    -0.325 N 
HETATM    2  C16 UNL     1      22.099  -0.453  53.385  1.00  0.00     0.322 C 
HETATM    3  O2  UNL     1      21.885  -1.697  53.618  1.00  0.00    -0.247 OA
HETATM    4  N2  UNL     1      20.858   0.229  53.332  1.00  0.00    -0.318 N 
HETATM    5  H17 UNL     1      20.878   1.246  53.137  1.00  0.00     0.170 HD
ENDROOT
BRANCH   1   6
HETATM    6  C8  UNL     1      23.533   1.537  52.997  1.00  0.00     0.169 C 
BRANCH   6   7
HETATM    7  C7  UNL     1      23.537   2.034  51.634  1.00  0.00    -0.006 A 
HETATM    8  C6  UNL     1      24.421   2.951  51.086  1.00  0.00     0.079 A 
HETATM    9  C4  UNL     1      24.418   3.427  49.794  1.00  0.00    -0.028 A 
HETATM   10  C3  UNL     1      23.455   2.976  48.918  1.00  0.00     0.016 A 
HETATM   11  C5  UNL     1      25.422   4.418  49.315  1.00  0.00     0.051 C 
HETATM   12  C2  UNL     1      22.546   2.069  49.376  1.00  0.00    -0.061 A 
HETATM   13  C1  UNL     1      21.533   1.614  48.396  1.00  0.00     0.048 C 
HETATM   14  C23 UNL     1      22.600   1.627  50.688  1.00  0.00     0.018 A 
BRANCH   8  15
HETATM   15  O1  UNL     1      25.430   3.469  51.875  1.00  0.00    -0.360 OA
HETATM   16  H8  UNL     1      26.125   4.056  51.468  1.00  0.00     0.217 HD
ENDBRANCH   8  15
ENDBRANCH   6   7
ENDBRANCH   1   6
BRANCH   1  17
HETATM   17  C9  UNL     1      24.482  -0.882  53.248  1.00  0.00     0.166 C 
BRANCH  17  18
HETATM   18  C10 UNL     1      25.821  -0.248  53.342  1.00  0.00    -0.040 A 
HETATM   19  C11 UNL     1      26.274  -0.083  54.651  1.00  0.00     0.012 A 
HETATM   20  C12 UNL     1      27.492   0.483  54.968  1.00  0.00     0.043 A 
HETATM   21  C13 UNL     1      28.306   0.909  53.935  1.00  0.00     0.116 A 
HETATM   22  F1  UNL     1      29.507   1.466  54.236  1.00  0.00    -0.206 F 
HETATM   23  C14 UNL     1      27.878   0.754  52.637  1.00  0.00     0.043 A 
HETATM   24  C15 UNL     1      26.658   0.187  52.339  1.00  0.00     0.012 A 
ENDBRANCH  17  18
ENDBRANCH   1  17
BRANCH   4  25
HETATM   25  C17 UNL     1      19.628  -0.448  53.525  1.00  0.00     0.104 C 
HETATM   26  C18 UNL     1      18.722  -0.405  52.562  1.00  0.00    -0.021 A 
HETATM   27  C19 UNL     1      17.399  -1.004  52.511  1.00  0.00     0.013 A 
HETATM   28  C22 UNL     1      18.828   0.282  51.266  1.00  0.00     0.013 A 
HETATM   29  C20 UNL     1      16.821  -0.709  51.350  1.00  0.00     0.001 A 
HETATM   30  C21 UNL     1      17.729   0.118  50.540  1.00  0.00     0.001 A 
ENDBRANCH   4  25
TORSDOF 6
ENDMDL
MODEL 7
REMARK VINA RESULT:      -9.1      3.033      7.125
REMARK  6 active torsions:
REMARK  status: ('A' for Active; 'I' for Inactive)
REMARK    1  A    between atoms: C6_6  and  O1_7 
REMARK    2  A    between atoms: C7_8  and  C8_9 
REMARK    3  A    between atoms: C8_9  and  N1_10 
REMARK    4  A    between atoms: N1_10  and  C9_11 
REMARK       I    between atoms: N1_10  and  C16_19 
REMARK    5  A    between atoms: C9_11  and  C10_12 
REMARK       I    between atoms: C16_19  and  N2_21 
REMARK    6  A    between atoms: N2_21  and  C17_22 
ROOT
HETATM    1  N1  UNL     1      25.017   3.093  51.534  1.00  0.00    -0.325 N 
HETATM    2  C16 UNL     1      26.322   2.643  51.980  1.00  0.00     0.322 C 
HETATM    3  O2  UNL     1      27.365   2.605  51.232  1.00  0.00    -0.247 OA
HETATM    4  N2  UNL     1      26.663   2.182  53.275  1.00  0.00    -0.318 N 
HETATM    5  H17 UNL     1      25.910   2.148  53.985  1.00  0.00     0.170 HD
ENDROOT
BRANCH   1   6
HETATM    6  C8  UNL     1      23.938   3.134  52.472  1.00  0.00     0.169 C 
BRANCH   6   7
HETATM    7  C7  UNL     1      23.027   2.006  52.528  1.00  0.00    -0.006 A 
HETATM    8  C6  UNL     1      21.920   1.791  51.722  1.00  0.00     0.079 A 
HETATM    9  C4  UNL     1      21.052   0.724  51.782  1.00  0.00    -0.028 A 
HETATM   10  C3  UNL     1      21.265  -0.258  52.725  1.00  0.00     0.016 A 
HETATM   11  C5  UNL     1      19.888   0.598  50.860  1.00  0.00     0.051 C 
HETATM   12  C2  UNL     1      22.335  -0.124  53.559  1.00  0.00    -0.061 A 
HETATM   13  C1  UNL     1      22.522  -1.205  54.554  1.00  0.00     0.048 C 
HETATM   14  C23 UNL     1      23.173   0.973  53.450  1.00  0.00     0.018 A 
BRANCH   8  15
HETATM   15  O1  UNL     1      21.613   2.712  50.738  1.00  0.00    -0.360 OA
HETATM   16  H8  UNL     1      22.329   3.044  50.129  1.00  0.00     0.217 HD
ENDBRANCH   8  15
ENDBRANCH   6   7
ENDBRANCH   1   6
BRANCH   1  17
HETATM   17  C9  UNL     1      24.999   3.428  50.105  1.00  0.00     0.166 C 
BRANCH  17  18
HETATM   18  C10 UNL     1      25.451   4.823  49.874  1.00  0.00    -0.040 A 
HETATM   19  C11 UNL     1      26.514   4.930  48.977  1.00  0.00     0.012 A 
HETATM   20  C12 UNL     1      27.089   6.132  48.617  1.00  0.00     0.043 A 
HETATM   21  C13 UNL     1      26.584   7.292  49.175  1.00  0.00     0.116 A 
HETATM   22  F1  UNL     1      27.142   8.480  48.827  1.00  0.00    -0.206 F 
HETATM   23  C14 UNL     1      25.536   7.209  50.061  1.00  0.00     0.043 A 
HETATM   24  C15 UNL     1      24.975   5.999  50.409  1.00  0.00     0.012 A 
ENDBRANCH  17  18
ENDBRANCH   1  17
BRANCH   4  25
HETATM   25  C17 UNL     1      27.980   1.770  53.596  1.00  0.00     0.104 C 
HETATM   26  C18 UNL     1      28.297   0.493  53.459  1.00  0.00    -0.021 A 
HETATM   27  C19 UNL     1      29.560  -0.179  53.716  1.00  0.00     0.013 A 
HETATM   28  C22 UNL     1      27.426  -0.599  53.000  1.00  0.00     0.013 A 
HETATM   29  C20 UNL     1      29.439  -1.475  53.444  1.00  0.00     0.001 A 
HETATM   30  C21 UNL     1      28.070  -1.759  52.982  1.00  0.00     0.001 A 
ENDBRANCH   4  25
TORSDOF 6
ENDMDL
MODEL 8
REMARK VINA RESULT:      -9.1      1.746      5.655
REMARK  6 active torsions:
REMARK  status: ('A' for Active; 'I' for Inactive)
REMARK    1  A    between atoms: C6_6  and  O1_7 
REMARK    2  A    between atoms: C7_8  and  C8_9 
REMARK    3  A    between atoms: C8_9  and  N1_10 
REMARK    4  A    between atoms: N1_10  and  C9_11 
REMARK       I    between atoms: N1_10  and  C16_19 
REMARK    5  A    between atoms: C9_11  and  C10_12 
REMARK       I    between atoms: C16_19  and  N2_21 
REMARK    6  A    between atoms: N2_21  and  C17_22 
ROOT
HETATM    1  N1  UNL     1      24.406   3.024  51.642  1.00  0.00    -0.325 N 
HETATM    2  C16 UNL     1      25.527   2.764  52.525  1.00  0.00     0.322 C 
HETATM    3  O2  UNL     1      25.444   2.728  53.805  1.00  0.00    -0.247 OA
HETATM    4  N2  UNL     1      26.868   2.513  52.141  1.00  0.00    -0.318 N 
HETATM    5  H17 UNL     1      27.086   2.523  51.129  1.00  0.00     0.170 HD
ENDROOT
BRANCH   1   6
HETATM    6  C8  UNL     1      24.613   2.995  50.228  1.00  0.00     0.169 C 
BRANCH   6   7
HETATM    7  C7  UNL     1      24.938   4.236  49.551  1.00  0.00    -0.006 A 
HETATM    8  C6  UNL     1      26.206   4.735  49.292  1.00  0.00     0.079 A 
HETATM    9  C4  UNL     1      26.512   5.917  48.656  1.00  0.00    -0.028 A 
HETATM   10  C3  UNL     1      25.485   6.721  48.211  1.00  0.00     0.016 A 
HETATM   11  C5  UNL     1      27.918   6.354  48.434  1.00  0.00     0.051 C 
HETATM   12  C2  UNL     1      24.205   6.303  48.424  1.00  0.00    -0.061 A 
HETATM   13  C1  UNL     1      23.138   7.202  47.927  1.00  0.00     0.048 C 
HETATM   14  C23 UNL     1      23.960   5.103  49.071  1.00  0.00     0.018 A 
BRANCH   8  15
HETATM   15  O1  UNL     1      27.311   4.008  49.692  1.00  0.00    -0.360 OA
HETATM   16  H8  UNL     1      27.691   4.146  50.603  1.00  0.00     0.217 HD
ENDBRANCH   8  15
ENDBRANCH   6   7
ENDBRANCH   1   6
BRANCH   1  17
HETATM   17  C9  UNL     1      23.172   3.321  52.380  1.00  0.00     0.166 C 
BRANCH  17  18
HETATM   18  C10 UNL     1      22.181   2.226  52.232  1.00  0.00    -0.040 A 
HETATM   19  C11 UNL     1      20.903   2.667  51.887  1.00  0.00     0.012 A 
HETATM   20  C12 UNL     1      19.831   1.818  51.697  1.00  0.00     0.043 A 
HETATM   21  C13 UNL     1      20.034   0.460  51.856  1.00  0.00     0.116 A 
HETATM   22  F1  UNL     1      18.986  -0.383  51.671  1.00  0.00    -0.206 F 
HETATM   23  C14 UNL     1      21.287   0.005  52.196  1.00  0.00     0.043 A 
HETATM   24  C15 UNL     1      22.346   0.867  52.382  1.00  0.00     0.012 A 
ENDBRANCH  17  18
ENDBRANCH   1  17
BRANCH   4  25
HETATM   25  C17 UNL     1      27.883   2.266  53.099  1.00  0.00     0.104 C 
HETATM   26  C18 UNL     1      28.263   1.017  53.313  1.00  0.00    -0.021 A 
HETATM   27  C19 UNL     1      29.267   0.500  54.227  1.00  0.00     0.013 A 
HETATM   28  C22 UNL     1      27.749  -0.197  52.661  1.00  0.00     0.013 A 
HETATM   29  C20 UNL     1      29.328  -0.824  54.121  1.00  0.00     0.001 A 
HETATM   30  C21 UNL     1      28.356  -1.286  53.117  1.00  0.00     0.001 A 
ENDBRANCH   4  25
TORSDOF 6
ENDMDL
MODEL 9
REMARK VINA RESULT:      -8.9      2.592      7.161
REMARK  6 active torsions:
REMARK  status: ('A' for Active; 'I' for Inactive)
REMARK    1  A    between atoms: C6_6  and  O1_7 
REMARK    2  A    between atoms: C7_8  and  C8_9 
REMARK    3  A    between atoms: C8_9  and  N1_10 
REMARK    4  A    between atoms: N1_10  and  C9_11 
REMARK       I    between atoms: N1_10  and  C16_19 
REMARK    5  A    between atoms: C9_11  and  C10_12 
REMARK       I    between atoms: C16_19  and  N2_21 
REMARK    6  A    between atoms: N2_21  and  C17_22 
ROOT
HETATM    1  N1  UNL     1      24.163   1.804  52.083  1.00  0.00    -0.325 N 
HETATM    2  C16 UNL     1      22.969   1.130  52.558  1.00  0.00     0.322 C 
HETATM    3  O2  UNL     1      22.770   0.793  53.780  1.00  0.00    -0.247 OA
HETATM    4  N2  UNL     1      21.852   0.735  51.781  1.00  0.00    -0.318 N 
HETATM    5  H17 UNL     1      21.881   0.935  50.765  1.00  0.00     0.170 HD
ENDROOT
BRANCH   1   6
HETATM    6  C8  UNL     1      24.252   2.170  50.704  1.00  0.00     0.169 C 
BRANCH   6   7
HETATM    7  C7  UNL     1      24.792   3.474  50.367  1.00  0.00    -0.006 A 
HETATM    8  C6  UNL     1      24.242   4.708  50.680  1.00  0.00     0.079 A 
HETATM    9  C4  UNL     1      24.752   5.943  50.352  1.00  0.00    -0.028 A 
HETATM   10  C3  UNL     1      25.930   6.013  49.640  1.00  0.00     0.016 A 
HETATM   11  C5  UNL     1      24.070   7.209  50.742  1.00  0.00     0.051 C 
HETATM   12  C2  UNL     1      26.539   4.843  49.293  1.00  0.00    -0.061 A 
HETATM   13  C1  UNL     1      27.802   4.971  48.530  1.00  0.00     0.048 C 
HETATM   14  C23 UNL     1      25.976   3.630  49.652  1.00  0.00     0.018 A 
BRANCH   8  15
HETATM   15  O1  UNL     1      23.061   4.757  51.396  1.00  0.00    -0.360 OA
HETATM   16  H8  UNL     1      22.914   4.127  52.154  1.00  0.00     0.217 HD
ENDBRANCH   8  15
ENDBRANCH   6   7
ENDBRANCH   1   6
BRANCH   1  17
HETATM   17  C9  UNL     1      25.158   1.992  53.146  1.00  0.00     0.166 C 
BRANCH  17  18
HETATM   18  C10 UNL     1      26.196   0.932  53.103  1.00  0.00    -0.040 A 
HETATM   19  C11 UNL     1      27.445   1.350  53.564  1.00  0.00     0.012 A 
HETATM   20  C12 UNL     1      28.552   0.526  53.613  1.00  0.00     0.043 A 
HETATM   21  C13 UNL     1      28.416  -0.781  53.185  1.00  0.00     0.116 A 
HETATM   22  F1  UNL     1      29.498  -1.599  53.230  1.00  0.00    -0.206 F 
HETATM   23  C14 UNL     1      27.192  -1.212  52.728  1.00  0.00     0.043 A 
HETATM   24  C15 UNL     1      26.098  -0.375  52.685  1.00  0.00     0.012 A 
ENDBRANCH  17  18
ENDBRANCH   1  17
BRANCH   4  25
HETATM   25  C17 UNL     1      20.735   0.083  52.359  1.00  0.00     0.104 C 
HETATM   26  C18 UNL     1      19.576   0.124  51.723  1.00  0.00    -0.021 A 
HETATM   27  C19 UNL     1      18.296  -0.454  52.096  1.00  0.00     0.013 A 
HETATM   28  C22 UNL     1      19.283   0.786  50.444  1.00  0.00     0.013 A 
HETATM   29  C20 UNL     1      17.390  -0.169  51.165  1.00  0.00     0.001 A 
HETATM   30  C21 UNL     1      18.012   0.628  50.096  1.00  0.00     0.001 A 
ENDBRANCH   4  25
TORSDOF 6
ENDMDL
