MODEL 1
REMARK VINA RESULT:      -7.9      0.000      0.000
REMARK  6 active torsions:
REMARK  status: ('A' for Active; 'I' for Inactive)
REMARK    1  A    between atoms: O1_1  and  C1_2 
REMARK    2  A    between atoms: C1_2  and  N1_3 
REMARK    3  A    between atoms: N1_3  and  C2_4 
REMARK    4  A    between atoms: N1_3  and  N2_10 
REMARK    5  A    between atoms: C10_15  and  C11_16 
REMARK    6  A    between atoms: C12_17  and  S1_18 
ROOT
HETATM    1  N2  UNL     1      26.822   0.628  53.032  1.00  0.00    -0.252 N 
HETATM    2  C8  UNL     1      27.337   0.644  54.388  1.00  0.00     0.230 A 
HETATM    3  N3  UNL     1      28.246   1.532  54.741  1.00  0.00    -0.236 NA
HETATM    4  C9  UNL     1      28.602   2.402  53.642  1.00  0.00     0.230 A 
HETATM    5  N4  UNL     1      28.189   2.436  52.447  1.00  0.00    -0.251 NA
HETATM    6  C10 UNL     1      27.194   1.507  51.965  1.00  0.00     0.262 A 
ENDROOT
BRANCH   1   7
HETATM    7  N1  UNL     1      25.945  -0.481  53.072  1.00  0.00    -0.264 N 
BRANCH   7   8
HETATM    8  C1  UNL     1      26.499  -1.592  52.344  1.00  0.00     0.314 C 
BRANCH   8   9
HETATM    9  O1  UNL     1      27.304  -2.429  53.130  1.00  0.00    -0.380 OA
HETATM   10  H1  UNL     1      28.263  -2.291  53.009  1.00  0.00     0.211 HD
ENDBRANCH   8   9
ENDBRANCH   7   8
BRANCH   7  11
HETATM   11  C2  UNL     1      24.713  -0.660  53.701  1.00  0.00     0.053 A 
HETATM   12  C3  UNL     1      23.583  -0.281  53.014  1.00  0.00     0.031 A 
HETATM   13  C4  UNL     1      22.323  -0.426  53.580  1.00  0.00     0.002 A 
HETATM   14  C5  UNL     1      22.133  -0.945  54.834  1.00  0.00     0.000 A 
HETATM   15  C6  UNL     1      23.254  -1.335  55.547  1.00  0.00     0.002 A 
HETATM   16  C7  UNL     1      24.483  -1.177  54.956  1.00  0.00     0.031 A 
ENDBRANCH   7  11
ENDBRANCH   1   7
BRANCH   6  17
HETATM   17  C11 UNL     1      26.138   2.349  51.357  1.00  0.00    -0.022 C 
HETATM   18  C12 UNL     1      25.054   3.050  51.555  1.00  0.00    -0.018 C 
HETATM   19  C13 UNL     1      24.334   3.769  50.489  1.00  0.00     0.046 C 
HETATM   20  C14 UNL     1      25.281   4.592  49.627  1.00  0.00     0.005 C 
HETATM   21  C15 UNL     1      26.636   3.907  49.564  1.00  0.00     0.005 C 
HETATM   22  C16 UNL     1      26.412   2.434  49.872  1.00  0.00     0.039 C 
BRANCH  18  23
HETATM   23  S1  UNL     1      24.329   3.217  53.177  1.00  0.00    -0.147 SA
HETATM   24  H12 UNL     1      23.790   4.538  53.224  1.00  0.00     0.107 HD
ENDBRANCH  18  23
ENDBRANCH   6  17
TORSDOF 6
ENDMDL
MODEL 2
REMARK VINA RESULT:      -6.9      4.075      7.718
REMARK  6 active torsions:
REMARK  status: ('A' for Active; 'I' for Inactive)
REMARK    1  A    between atoms: O1_1  and  C1_2 
REMARK    2  A    between atoms: C1_2  and  N1_3 
REMARK    3  A    between atoms: N1_3  and  C2_4 
REMARK    4  A    between atoms: N1_3  and  N2_10 
REMARK    5  A    between atoms: C10_15  and  C11_16 
REMARK    6  A    between atoms: C12_17  and  S1_18 
ROOT
HETATM    1  N2  UNL     1      24.516   4.889  48.986  1.00  0.00    -0.252 N 
HETATM    2  C8  UNL     1      23.459   5.495  48.200  1.00  0.00     0.230 A 
HETATM    3  N3  UNL     1      22.409   4.783  47.840  1.00  0.00    -0.236 NA
HETATM    4  C9  UNL     1      22.492   3.423  48.323  1.00  0.00     0.230 A 
HETATM    5  N4  UNL     1      23.382   2.841  49.009  1.00  0.00    -0.251 NA
HETATM    6  C10 UNL     1      24.568   3.537  49.453  1.00  0.00     0.262 A 
ENDROOT
BRANCH   1   7
HETATM    7  N1  UNL     1      25.440   5.955  49.092  1.00  0.00    -0.264 N 
BRANCH   7   8
HETATM    8  C1  UNL     1      24.870   7.050  49.832  1.00  0.00     0.314 C 
BRANCH   8   9
HETATM    9  O1  UNL     1      25.191   7.029  51.197  1.00  0.00    -0.380 OA
HETATM   10  H1  UNL     1      26.147   7.085  51.384  1.00  0.00     0.211 HD
ENDBRANCH   8   9
ENDBRANCH   7   8
BRANCH   7  11
HETATM   11  C2  UNL     1      26.754   6.084  48.642  1.00  0.00     0.053 A 
HETATM   12  C3  UNL     1      27.140   7.304  48.135  1.00  0.00     0.031 A 
HETATM   13  C4  UNL     1      28.432   7.502  47.665  1.00  0.00     0.002 A 
HETATM   14  C5  UNL     1      29.381   6.515  47.676  1.00  0.00     0.000 A 
HETATM   15  C6  UNL     1      29.019   5.277  48.181  1.00  0.00     0.002 A 
HETATM   16  C7  UNL     1      27.734   5.117  48.637  1.00  0.00     0.031 A 
ENDBRANCH   7  11
ENDBRANCH   1   7
BRANCH   6  17
HETATM   17  C11 UNL     1      24.629   3.306  50.914  1.00  0.00    -0.022 C 
HETATM   18  C12 UNL     1      24.084   3.539  52.078  1.00  0.00    -0.018 C 
HETATM   19  C13 UNL     1      24.600   3.001  53.349  1.00  0.00     0.046 C 
HETATM   20  C14 UNL     1      24.894   1.509  53.251  1.00  0.00     0.005 C 
HETATM   21  C15 UNL     1      25.318   1.168  51.831  1.00  0.00     0.005 C 
HETATM   22  C16 UNL     1      25.841   2.447  51.197  1.00  0.00     0.039 C 
BRANCH  18  23
HETATM   23  S1  UNL     1      22.620   4.546  52.244  1.00  0.00    -0.147 SA
HETATM   24  H12 UNL     1      22.311   4.997  50.926  1.00  0.00     0.107 HD
ENDBRANCH  18  23
ENDBRANCH   6  17
TORSDOF 6
ENDMDL
MODEL 3
REMARK VINA RESULT:      -6.9      2.318      5.157
REMARK  6 active torsions:
REMARK  status: ('A' for Active; 'I' for Inactive)
REMARK    1  A    between atoms: O1_1  and  C1_2 
REMARK    2  A    between atoms: C1_2  and  N1_3 
REMARK    3  A    between atoms: N1_3  and  C2_4 
REMARK    4  A    between atoms: N1_3  and  N2_10 
REMARK    5  A    between atoms: C10_15  and  C11_16 
REMARK    6  A    between atoms: C12_17  and  S1_18 
ROOT
HETATM    1  N2  UNL     1      25.029   1.453  52.091  1.00  0.00    -0.252 N 
HETATM    2  C8  UNL     1      25.548   2.687  51.534  1.00  0.00     0.230 A 
HETATM    3  N3  UNL     1      24.875   3.326  50.597  1.00  0.00    -0.236 NA
HETATM    4  C9  UNL     1      23.648   2.642  50.256  1.00  0.00     0.230 A 
HETATM    5  N4  UNL     1      23.147   1.570  50.704  1.00  0.00    -0.251 NA
HETATM    6  C10 UNL     1      23.807   0.800  51.733  1.00  0.00     0.262 A 
ENDROOT
BRANCH   1   7
HETATM    7  N1  UNL     1      26.060   1.088  52.989  1.00  0.00    -0.264 N 
BRANCH   7   8
HETATM    8  C1  UNL     1      26.139   2.025  54.078  1.00  0.00     0.314 C 
BRANCH   8   9
HETATM    9  O1  UNL     1      27.347   2.735  54.119  1.00  0.00    -0.380 OA
HETATM   10  H1  UNL     1      27.758   2.775  55.002  1.00  0.00     0.211 HD
ENDBRANCH   8   9
ENDBRANCH   7   8
BRANCH   7  11
HETATM   11  C2  UNL     1      26.938   0.004  52.994  1.00  0.00     0.053 A 
HETATM   12  C3  UNL     1      26.453  -1.213  52.574  1.00  0.00     0.031 A 
HETATM   13  C4  UNL     1      27.270  -2.337  52.557  1.00  0.00     0.002 A 
HETATM   14  C5  UNL     1      28.581  -2.302  52.951  1.00  0.00     0.000 A 
HETATM   15  C6  UNL     1      29.095  -1.088  53.378  1.00  0.00     0.002 A 
HETATM   16  C7  UNL     1      28.259   0.001  53.382  1.00  0.00     0.031 A 
ENDBRANCH   7  11
ENDBRANCH   1   7
BRANCH   6  17
HETATM   17  C11 UNL     1      22.785   0.608  52.789  1.00  0.00    -0.022 C 
HETATM   18  C12 UNL     1      21.640   0.997  53.281  1.00  0.00    -0.018 C 
HETATM   19  C13 UNL     1      21.008   0.394  54.468  1.00  0.00     0.046 C 
HETATM   20  C14 UNL     1      21.000  -1.127  54.389  1.00  0.00     0.005 C 
HETATM   21  C15 UNL     1      22.219  -1.603  53.616  1.00  0.00     0.005 C 
HETATM   22  C16 UNL     1      23.264  -0.501  53.699  1.00  0.00     0.039 C 
BRANCH  18  23
HETATM   23  S1  UNL     1      20.702   2.322  52.539  1.00  0.00    -0.147 SA
HETATM   24  H12 UNL     1      20.829   3.430  53.429  1.00  0.00     0.107 HD
ENDBRANCH  18  23
ENDBRANCH   6  17
TORSDOF 6
ENDMDL
MODEL 4
REMARK VINA RESULT:      -6.8      2.736      4.795
REMARK  6 active torsions:
REMARK  status: ('A' for Active; 'I' for Inactive)
REMARK    1  A    between atoms: O1_1  and  C1_2 
REMARK    2  A    between atoms: C1_2  and  N1_3 
REMARK    3  A    between atoms: N1_3  and  C2_4 
REMARK    4  A    between atoms: N1_3  and  N2_10 
REMARK    5  A    between atoms: C10_15  and  C11_16 
REMARK    6  A    between atoms: C12_17  and  S1_18 
ROOT
HETATM    1  N2  UNL     1      22.526  -0.128  53.956  1.00  0.00    -0.252 N 
HETATM    2  C8  UNL     1      21.725  -1.328  54.100  1.00  0.00     0.230 A 
HETATM    3  N3  UNL     1      20.437  -1.303  53.818  1.00  0.00    -0.236 NA
HETATM    4  C9  UNL     1      20.008   0.007  53.382  1.00  0.00     0.230 A 
HETATM    5  N4  UNL     1      20.657   1.084  53.237  1.00  0.00    -0.251 NA
HETATM    6  C10 UNL     1      22.072   1.157  53.519  1.00  0.00     0.262 A 
ENDROOT
BRANCH   1   7
HETATM    7  N1  UNL     1      23.792  -0.573  54.406  1.00  0.00    -0.264 N 
BRANCH   7   8
HETATM    8  C1  UNL     1      23.645  -1.504  55.494  1.00  0.00     0.314 C 
BRANCH   8   9
HETATM    9  O1  UNL     1      24.841  -1.752  56.181  1.00  0.00    -0.380 OA
HETATM   10  H1  UNL     1      25.199  -0.978  56.655  1.00  0.00     0.211 HD
ENDBRANCH   8   9
ENDBRANCH   7   8
BRANCH   7  11
HETATM   11  C2  UNL     1      25.082  -0.287  53.959  1.00  0.00     0.053 A 
HETATM   12  C3  UNL     1      25.483  -0.842  52.766  1.00  0.00     0.031 A 
HETATM   13  C4  UNL     1      26.756  -0.604  52.263  1.00  0.00     0.002 A 
HETATM   14  C5  UNL     1      27.671   0.182  52.912  1.00  0.00     0.000 A 
HETATM   15  C6  UNL     1      27.293   0.753  54.116  1.00  0.00     0.002 A 
HETATM   16  C7  UNL     1      26.027   0.496  54.583  1.00  0.00     0.031 A 
ENDBRANCH   7  11
ENDBRANCH   1   7
BRANCH   6  17
HETATM   17  C11 UNL     1      22.682   1.732  52.298  1.00  0.00    -0.022 C 
HETATM   18  C12 UNL     1      22.680   1.768  50.992  1.00  0.00    -0.018 C 
HETATM   19  C13 UNL     1      23.587   2.610  50.192  1.00  0.00     0.046 C 
HETATM   20  C14 UNL     1      23.625   4.043  50.708  1.00  0.00     0.005 C 
HETATM   21  C15 UNL     1      23.400   4.048  52.211  1.00  0.00     0.005 C 
HETATM   22  C16 UNL     1      23.785   2.671  52.730  1.00  0.00     0.039 C 
BRANCH  18  23
HETATM   23  S1  UNL     1      21.545   0.785  50.028  1.00  0.00    -0.147 SA
HETATM   24  H12 UNL     1      22.352  -0.157  49.324  1.00  0.00     0.107 HD
ENDBRANCH  18  23
ENDBRANCH   6  17
TORSDOF 6
ENDMDL
MODEL 5
REMARK VINA RESULT:      -6.7      3.328      5.689
REMARK  6 active torsions:
REMARK  status: ('A' for Active; 'I' for Inactive)
REMARK    1  A    between atoms: O1_1  and  C1_2 
REMARK    2  A    between atoms: C1_2  and  N1_3 
REMARK    3  A    between atoms: N1_3  and  C2_4 
REMARK    4  A    between atoms: N1_3  and  N2_10 
REMARK    5  A    between atoms: C10_15  and  C11_16 
REMARK    6  A    between atoms: C12_17  and  S1_18 
ROOT
HETATM    1  N2  UNL     1      22.177   0.567  52.929  1.00  0.00    -0.252 N 
HETATM    2  C8  UNL     1      21.138   0.500  53.939  1.00  0.00     0.230 A 
HETATM    3  N3  UNL     1      21.291  -0.270  54.998  1.00  0.00    -0.236 NA
HETATM    4  C9  UNL     1      22.557  -0.969  54.975  1.00  0.00     0.230 A 
HETATM    5  N4  UNL     1      23.497  -0.950  54.128  1.00  0.00    -0.251 NA
HETATM    6  C10 UNL     1      23.423  -0.136  52.936  1.00  0.00     0.262 A 
ENDROOT
BRANCH   1   7
HETATM    7  N1  UNL     1      21.593   1.434  51.976  1.00  0.00    -0.264 N 
BRANCH   7   8
HETATM    8  C1  UNL     1      20.468   2.129  52.543  1.00  0.00     0.314 C 
BRANCH   8   9
HETATM    9  O1  UNL     1      20.620   3.522  52.555  1.00  0.00    -0.380 OA
HETATM   10  H1  UNL     1      20.099   3.976  53.244  1.00  0.00     0.211 HD
ENDBRANCH   8   9
ENDBRANCH   7   8
BRANCH   7  11
HETATM   11  C2  UNL     1      21.945   1.725  50.657  1.00  0.00     0.053 A 
HETATM   12  C3  UNL     1      21.288   1.046  49.657  1.00  0.00     0.031 A 
HETATM   13  C4  UNL     1      21.589   1.282  48.321  1.00  0.00     0.002 A 
HETATM   14  C5  UNL     1      22.541   2.184  47.927  1.00  0.00     0.000 A 
HETATM   15  C6  UNL     1      23.218   2.881  48.915  1.00  0.00     0.002 A 
HETATM   16  C7  UNL     1      22.894   2.623  50.224  1.00  0.00     0.031 A 
ENDBRANCH   7  11
ENDBRANCH   1   7
BRANCH   6  17
HETATM   17  C11 UNL     1      24.672   0.660  52.932  1.00  0.00    -0.022 C 
HETATM   18  C12 UNL     1      25.210   1.844  53.055  1.00  0.00    -0.018 C 
HETATM   19  C13 UNL     1      26.658   2.102  52.964  1.00  0.00     0.046 C 
HETATM   20  C14 UNL     1      27.458   1.125  53.815  1.00  0.00     0.005 C 
HETATM   21  C15 UNL     1      26.731  -0.209  53.877  1.00  0.00     0.005 C 
HETATM   22  C16 UNL     1      25.822  -0.283  52.661  1.00  0.00     0.039 C 
BRANCH  18  23
HETATM   23  S1  UNL     1      24.221   3.297  53.362  1.00  0.00    -0.147 SA
HETATM   24  H12 UNL     1      24.938   4.383  52.777  1.00  0.00     0.107 HD
ENDBRANCH  18  23
ENDBRANCH   6  17
TORSDOF 6
ENDMDL
MODEL 6
REMARK VINA RESULT:      -6.7      3.303      6.017
REMARK  6 active torsions:
REMARK  status: ('A' for Active; 'I' for Inactive)
REMARK    1  A    between atoms: O1_1  and  C1_2 
REMARK    2  A    between atoms: C1_2  and  N1_3 
REMARK    3  A    between atoms: N1_3  and  C2_4 
REMARK    4  A    between atoms: N1_3  and  N2_10 
REMARK    5  A    between atoms: C10_15  and  C11_16 
REMARK    6  A    between atoms: C12_17  and  S1_18 
ROOT
HETATM    1  N2  UNL     1      23.360   2.099  50.533  1.00  0.00    -0.252 N 
HETATM    2  C8  UNL     1      23.104   3.067  49.485  1.00  0.00     0.230 A 
HETATM    3  N3  UNL     1      22.106   2.884  48.642  1.00  0.00    -0.236 NA
HETATM    4  C9  UNL     1      21.383   1.664  48.923  1.00  0.00     0.230 A 
HETATM    5  N4  UNL     1      21.558   0.786  49.818  1.00  0.00    -0.251 NA
HETATM    6  C10 UNL     1      22.623   0.899  50.788  1.00  0.00     0.262 A 
ENDROOT
BRANCH   1   7
HETATM    7  N1  UNL     1      24.516   2.638  51.145  1.00  0.00    -0.264 N 
BRANCH   7   8
HETATM    8  C1  UNL     1      24.660   4.032  50.816  1.00  0.00     0.314 C 
BRANCH   8   9
HETATM    9  O1  UNL     1      25.989   4.417  50.588  1.00  0.00    -0.380 OA
HETATM   10  H1  UNL     1      26.465   4.706  51.389  1.00  0.00     0.211 HD
ENDBRANCH   8   9
ENDBRANCH   7   8
BRANCH   7  11
HETATM   11  C2  UNL     1      25.462   2.065  51.995  1.00  0.00     0.053 A 
HETATM   12  C3  UNL     1      25.413   2.404  53.328  1.00  0.00     0.031 A 
HETATM   13  C4  UNL     1      26.327   1.874  54.230  1.00  0.00     0.002 A 
HETATM   14  C5  UNL     1      27.313   1.001  53.855  1.00  0.00     0.000 A 
HETATM   15  C6  UNL     1      27.385   0.643  52.519  1.00  0.00     0.002 A 
HETATM   16  C7  UNL     1      26.465   1.186  51.655  1.00  0.00     0.031 A 
ENDBRANCH   7  11
ENDBRANCH   1   7
BRANCH   6  17
HETATM   17  C11 UNL     1      21.963   0.753  52.107  1.00  0.00    -0.022 C 
HETATM   18  C12 UNL     1      20.940   1.069  52.854  1.00  0.00    -0.018 C 
HETATM   19  C13 UNL     1      20.753   0.593  54.236  1.00  0.00     0.046 C 
HETATM   20  C14 UNL     1      20.979  -0.909  54.349  1.00  0.00     0.005 C 
HETATM   21  C15 UNL     1      22.012  -1.346  53.323  1.00  0.00     0.005 C 
HETATM   22  C16 UNL     1      22.843  -0.122  52.970  1.00  0.00     0.039 C 
BRANCH  18  23
HETATM   23  S1  UNL     1      19.632   2.125  52.255  1.00  0.00    -0.147 SA
HETATM   24  H12 UNL     1      19.665   2.013  50.834  1.00  0.00     0.107 HD
ENDBRANCH  18  23
ENDBRANCH   6  17
TORSDOF 6
ENDMDL
MODEL 7
REMARK VINA RESULT:      -6.6      3.509      6.966
REMARK  6 active torsions:
REMARK  status: ('A' for Active; 'I' for Inactive)
REMARK    1  A    between atoms: O1_1  and  C1_2 
REMARK    2  A    between atoms: C1_2  and  N1_3 
REMARK    3  A    between atoms: N1_3  and  C2_4 
REMARK    4  A    between atoms: N1_3  and  N2_10 
REMARK    5  A    between atoms: C10_15  and  C11_16 
REMARK    6  A    between atoms: C12_17  and  S1_18 
ROOT
HETATM    1  N2  UNL     1      22.362   2.816  50.679  1.00  0.00    -0.252 N 
HETATM    2  C8  UNL     1      21.340   3.771  50.296  1.00  0.00     0.230 A 
HETATM    3  N3  UNL     1      20.178   3.350  49.835  1.00  0.00    -0.236 NA
HETATM    4  C9  UNL     1      20.112   1.907  49.785  1.00  0.00     0.230 A 
HETATM    5  N4  UNL     1      20.964   1.028  50.104  1.00  0.00    -0.251 NA
HETATM    6  C10 UNL     1      22.264   1.389  50.620  1.00  0.00     0.262 A 
ENDROOT
BRANCH   1   7
HETATM    7  N1  UNL     1      23.428   3.669  51.046  1.00  0.00    -0.264 N 
BRANCH   7   8
HETATM    8  C1  UNL     1      23.208   4.223  52.356  1.00  0.00     0.314 C 
BRANCH   8   9
HETATM    9  O1  UNL     1      24.284   4.029  53.232  1.00  0.00    -0.380 OA
HETATM   10  H1  UNL     1      24.883   4.796  53.306  1.00  0.00     0.211 HD
ENDBRANCH   8   9
ENDBRANCH   7   8
BRANCH   7  11
HETATM   11  C2  UNL     1      24.608   4.010  50.382  1.00  0.00     0.053 A 
HETATM   12  C3  UNL     1      24.756   5.314  49.972  1.00  0.00     0.031 A 
HETATM   13  C4  UNL     1      25.903   5.723  49.301  1.00  0.00     0.002 A 
HETATM   14  C5  UNL     1      26.933   4.868  49.013  1.00  0.00     0.000 A 
HETATM   15  C6  UNL     1      26.809   3.548  49.415  1.00  0.00     0.002 A 
HETATM   16  C7  UNL     1      25.662   3.180  50.075  1.00  0.00     0.031 A 
ENDBRANCH   7  11
ENDBRANCH   1   7
BRANCH   6  17
HETATM   17  C11 UNL     1      22.406   0.628  51.883  1.00  0.00    -0.022 C 
HETATM   18  C12 UNL     1      23.213   0.223  52.826  1.00  0.00    -0.018 C 
HETATM   19  C13 UNL     1      22.787  -0.587  53.981  1.00  0.00     0.046 C 
HETATM   20  C14 UNL     1      21.537  -0.016  54.638  1.00  0.00     0.005 C 
HETATM   21  C15 UNL     1      20.678   0.669  53.587  1.00  0.00     0.005 C 
HETATM   22  C16 UNL     1      21.048   0.067  52.240  1.00  0.00     0.039 C 
BRANCH  18  23
HETATM   23  S1  UNL     1      24.951   0.629  52.812  1.00  0.00    -0.147 SA
HETATM   24  H12 UNL     1      25.317   0.713  51.436  1.00  0.00     0.107 HD
ENDBRANCH  18  23
ENDBRANCH   6  17
TORSDOF 6
ENDMDL
MODEL 8
REMARK VINA RESULT:      -6.6      7.585     10.227
REMARK  6 active torsions:
REMARK  status: ('A' for Active; 'I' for Inactive)
REMARK    1  A    between atoms: O1_1  and  C1_2 
REMARK    2  A    between atoms: C1_2  and  N1_3 
REMARK    3  A    between atoms: N1_3  and  C2_4 
REMARK    4  A    between atoms: N1_3  and  N2_10 
REMARK    5  A    between atoms: C10_15  and  C11_16 
REMARK    6  A    between atoms: C12_17  and  S1_18 
ROOT
HETATM    1  N2  UNL     1      31.806   5.456  47.194  1.00  0.00    -0.252 N 
HETATM    2  C8  UNL     1      32.004   4.050  47.484  1.00  0.00     0.230 A 
HETATM    3  N3  UNL     1      32.728   3.302  46.674  1.00  0.00    -0.236 NA
HETATM    4  C9  UNL     1      33.238   4.061  45.554  1.00  0.00     0.230 A 
HETATM    5  N4  UNL     1      33.100   5.281  45.251  1.00  0.00    -0.251 NA
HETATM    6  C10 UNL     1      32.327   6.182  46.076  1.00  0.00     0.262 A 
ENDROOT
BRANCH   1   7
HETATM    7  N1  UNL     1      30.950   5.848  48.250  1.00  0.00    -0.264 N 
BRANCH   7   8
HETATM    8  C1  UNL     1      31.706   6.110  49.446  1.00  0.00     0.314 C 
BRANCH   8   9
HETATM    9  O1  UNL     1      31.300   5.339  50.544  1.00  0.00    -0.380 OA
HETATM   10  H1  UNL     1      32.013   5.140  51.179  1.00  0.00     0.211 HD
ENDBRANCH   8   9
ENDBRANCH   7   8
BRANCH   7  11
HETATM   11  C2  UNL     1      29.568   6.039  48.295  1.00  0.00     0.053 A 
HETATM   12  C3  UNL     1      29.094   7.319  48.126  1.00  0.00     0.031 A 
HETATM   13  C4  UNL     1      27.730   7.583  48.163  1.00  0.00     0.002 A 
HETATM   14  C5  UNL     1      26.794   6.604  48.367  1.00  0.00     0.000 A 
HETATM   15  C6  UNL     1      27.245   5.306  48.541  1.00  0.00     0.002 A 
HETATM   16  C7  UNL     1      28.600   5.082  48.498  1.00  0.00     0.031 A 
ENDBRANCH   7  11
ENDBRANCH   1   7
BRANCH   6  17
HETATM   17  C11 UNL     1      33.226   7.327  46.347  1.00  0.00    -0.022 C 
HETATM   18  C12 UNL     1      34.237   7.779  47.039  1.00  0.00    -0.018 C 
HETATM   19  C13 UNL     1      34.793   9.136  46.891  1.00  0.00     0.046 C 
HETATM   20  C14 UNL     1      35.021   9.494  45.428  1.00  0.00     0.005 C 
HETATM   21  C15 UNL     1      33.984   8.792  44.566  1.00  0.00     0.005 C 
HETATM   22  C16 UNL     1      32.795   8.473  45.460  1.00  0.00     0.039 C 
BRANCH  18  23
HETATM   23  S1  UNL     1      35.069   6.770  48.253  1.00  0.00    -0.147 SA
HETATM   24  H12 UNL     1      34.665   7.282  49.522  1.00  0.00     0.107 HD
ENDBRANCH  18  23
ENDBRANCH   6  17
TORSDOF 6
ENDMDL
MODEL 9
REMARK VINA RESULT:      -6.5      8.113     10.361
REMARK  6 active torsions:
REMARK  status: ('A' for Active; 'I' for Inactive)
REMARK    1  A    between atoms: O1_1  and  C1_2 
REMARK    2  A    between atoms: C1_2  and  N1_3 
REMARK    3  A    between atoms: N1_3  and  C2_4 
REMARK    4  A    between atoms: N1_3  and  N2_10 
REMARK    5  A    between atoms: C10_15  and  C11_16 
REMARK    6  A    between atoms: C12_17  and  S1_18 
ROOT
HETATM    1  N2  UNL     1      29.943   6.863  48.550  1.00  0.00    -0.252 N 
HETATM    2  C8  UNL     1      29.004   5.801  48.245  1.00  0.00     0.230 A 
HETATM    3  N3  UNL     1      27.707   6.031  48.287  1.00  0.00    -0.236 NA
HETATM    4  C9  UNL     1      27.415   7.398  48.656  1.00  0.00     0.230 A 
HETATM    5  N4  UNL     1      28.186   8.362  48.932  1.00  0.00    -0.251 NA
HETATM    6  C10 UNL     1      29.623   8.210  48.911  1.00  0.00     0.262 A 
ENDROOT
BRANCH   1   7
HETATM    7  N1  UNL     1      31.182   6.188  48.447  1.00  0.00    -0.264 N 
BRANCH   7   8
HETATM    8  C1  UNL     1      31.882   6.216  49.704  1.00  0.00     0.314 C 
BRANCH   8   9
HETATM    9  O1  UNL     1      31.361   5.326  50.653  1.00  0.00    -0.380 OA
HETATM   10  H1  UNL     1      31.445   4.385  50.408  1.00  0.00     0.211 HD
ENDBRANCH   8   9
ENDBRANCH   7   8
BRANCH   7  11
HETATM   11  C2  UNL     1      31.778   5.512  47.381  1.00  0.00     0.053 A 
HETATM   12  C3  UNL     1      32.236   6.264  46.324  1.00  0.00     0.031 A 
HETATM   13  C4  UNL     1      32.836   5.656  45.227  1.00  0.00     0.002 A 
HETATM   14  C5  UNL     1      33.002   4.300  45.134  1.00  0.00     0.000 A 
HETATM   15  C6  UNL     1      32.549   3.520  46.185  1.00  0.00     0.002 A 
HETATM   16  C7  UNL     1      31.961   4.154  47.252  1.00  0.00     0.031 A 
ENDBRANCH   7  11
ENDBRANCH   1   7
BRANCH   6  17
HETATM   17  C11 UNL     1      30.116   9.301  48.038  1.00  0.00    -0.022 C 
HETATM   18  C12 UNL     1      30.207   9.766  46.822  1.00  0.00    -0.018 C 
HETATM   19  C13 UNL     1      30.864  11.039  46.475  1.00  0.00     0.046 C 
HETATM   20  C14 UNL     1      30.409  12.173  47.384  1.00  0.00     0.005 C 
HETATM   21  C15 UNL     1      30.074  11.618  48.760  1.00  0.00     0.005 C 
HETATM   22  C16 UNL     1      30.830  10.307  48.913  1.00  0.00     0.039 C 
BRANCH  18  23
HETATM   23  S1  UNL     1      29.520   8.888  45.428  1.00  0.00    -0.147 SA
HETATM   24  H12 UNL     1      28.104   9.013  45.554  1.00  0.00     0.107 HD
ENDBRANCH  18  23
ENDBRANCH   6  17
TORSDOF 6
ENDMDL
