MODEL 1
REMARK VINA RESULT:      -7.7      0.000      0.000
REMARK  3 active torsions:
REMARK  status: ('A' for Active; 'I' for Inactive)
REMARK    1  A    between atoms: N1_2  and  C2_3 
REMARK    2  A    between atoms: N2_8  and  C7_9 
REMARK    3  A    between atoms: C13_18  and  O2_19 
ROOT
HETATM    1  C7  UNL     1      23.083   0.920  52.953  1.00  0.00     0.149 A 
HETATM    2  C8  UNL     1      23.910   1.931  52.784  1.00  0.00     0.135 A 
HETATM    3  N3  UNL     1      25.256   1.977  53.217  1.00  0.00    -0.380 N 
HETATM    4  C9  UNL     1      26.107   0.879  53.867  1.00  0.00     0.204 A 
HETATM    5  C10 UNL     1      24.956  -0.181  53.978  1.00  0.00     0.170 A 
HETATM    6  N4  UNL     1      23.684  -0.218  53.611  1.00  0.00    -0.207 NA
HETATM    7  O1  UNL     1      26.164  -0.708  54.579  1.00  0.00    -0.318 OA
HETATM    8  C11 UNL     1      26.935  -0.641  53.460  1.00  0.00     0.117 A 
HETATM    9  C12 UNL     1      26.803  -0.290  51.976  1.00  0.00     0.027 A 
HETATM   10  C13 UNL     1      27.260   0.758  52.940  1.00  0.00     0.110 A 
HETATM   11  C15 UNL     1      28.166  -0.705  53.084  1.00  0.00     0.090 A 
HETATM   12  H9  UNL     1      25.698   2.919  53.050  1.00  0.00     0.160 HD
ENDROOT
BRANCH   1  13
HETATM   13  N2  UNL     1      21.787   0.565  52.675  1.00  0.00    -0.312 N 
HETATM   14  C2  UNL     1      21.232   0.700  51.374  1.00  0.00     0.130 A 
HETATM   15  C3  UNL     1      19.976   0.332  51.225  1.00  0.00     0.050 A 
HETATM   16  C4  UNL     1      19.232  -0.181  52.358  1.00  0.00     0.001 A 
HETATM   17  C5  UNL     1      19.722  -0.315  53.561  1.00  0.00    -0.007 A 
HETATM   18  C6  UNL     1      21.130   0.064  53.866  1.00  0.00     0.160 A 
BRANCH  14  19
HETATM   19  N1  UNL     1      22.005   1.210  50.295  1.00  0.00    -0.254 NA
HETATM   20  C1  UNL     1      21.494   1.055  49.097  1.00  0.00     0.151 C 
ENDBRANCH  14  19
ENDBRANCH   1  13
BRANCH  10  21
HETATM   21  O2  UNL     1      28.073   1.705  52.653  1.00  0.00    -0.378 OA
HETATM   22  C14 UNL     1      28.610   2.415  53.714  1.00  0.00     0.203 C 
ENDBRANCH  10  21
TORSDOF 3
ENDMDL
MODEL 2
REMARK VINA RESULT:      -7.5      2.123      2.990
REMARK  3 active torsions:
REMARK  status: ('A' for Active; 'I' for Inactive)
REMARK    1  A    between atoms: N1_2  and  C2_3 
REMARK    2  A    between atoms: N2_8  and  C7_9 
REMARK    3  A    between atoms: C13_18  and  O2_19 
ROOT
HETATM    1  C7  UNL     1      24.870   1.697  52.423  1.00  0.00     0.149 A 
HETATM    2  C8  UNL     1      25.460   2.301  53.433  1.00  0.00     0.135 A 
HETATM    3  N3  UNL     1      26.334   1.689  54.362  1.00  0.00    -0.380 N 
HETATM    4  C9  UNL     1      26.892   0.261  54.380  1.00  0.00     0.204 A 
HETATM    5  C10 UNL     1      26.074  -0.253  53.143  1.00  0.00     0.170 A 
HETATM    6  N4  UNL     1      25.223   0.302  52.293  1.00  0.00    -0.207 NA
HETATM    7  O1  UNL     1      26.849  -1.341  53.702  1.00  0.00    -0.318 OA
HETATM    8  C11 UNL     1      28.069  -0.766  53.530  1.00  0.00     0.117 A 
HETATM    9  C12 UNL     1      28.686   0.492  52.911  1.00  0.00     0.027 A 
HETATM   10  C13 UNL     1      28.360   0.476  54.370  1.00  0.00     0.110 A 
HETATM   11  C15 UNL     1      29.299  -0.893  53.894  1.00  0.00     0.090 A 
HETATM   12  H9  UNL     1      26.617   2.346  55.137  1.00  0.00     0.160 HD
ENDROOT
BRANCH   1  13
HETATM   13  N2  UNL     1      24.010   1.976  51.390  1.00  0.00    -0.312 N 
HETATM   14  C2  UNL     1      24.314   2.947  50.398  1.00  0.00     0.130 A 
HETATM   15  C3  UNL     1      23.412   3.134  49.456  1.00  0.00     0.050 A 
HETATM   16  C4  UNL     1      22.183   2.365  49.466  1.00  0.00     0.001 A 
HETATM   17  C5  UNL     1      21.884   1.467  50.366  1.00  0.00    -0.007 A 
HETATM   18  C6  UNL     1      22.817   1.158  51.486  1.00  0.00     0.160 A 
BRANCH  14  19
HETATM   19  N1  UNL     1      25.535   3.675  50.433  1.00  0.00    -0.254 NA
HETATM   20  C1  UNL     1      26.428   3.344  49.532  1.00  0.00     0.151 C 
ENDBRANCH  14  19
ENDBRANCH   1  13
BRANCH  10  21
HETATM   21  O2  UNL     1      29.013   1.115  55.267  1.00  0.00    -0.378 OA
HETATM   22  C14 UNL     1      29.791   2.179  54.840  1.00  0.00     0.203 C 
ENDBRANCH  10  21
TORSDOF 3
ENDMDL
MODEL 3
REMARK VINA RESULT:      -7.3      1.065      2.235
REMARK  3 active torsions:
REMARK  status: ('A' for Active; 'I' for Inactive)
REMARK    1  A    between atoms: N1_2  and  C2_3 
REMARK    2  A    between atoms: N2_8  and  C7_9 
REMARK    3  A    between atoms: C13_18  and  O2_19 
ROOT
HETATM    1  C7  UNL     1      23.807   1.307  52.789  1.00  0.00     0.149 A 
HETATM    2  C8  UNL     1      24.588   2.203  53.355  1.00  0.00     0.135 A 
HETATM    3  N3  UNL     1      25.719   1.921  54.158  1.00  0.00    -0.380 N 
HETATM    4  C9  UNL     1      26.374   0.572  54.477  1.00  0.00     0.204 A 
HETATM    5  C10 UNL     1      25.308  -0.311  53.738  1.00  0.00     0.170 A 
HETATM    6  N4  UNL     1      24.225  -0.058  53.019  1.00  0.00    -0.207 NA
HETATM    7  O1  UNL     1      26.286  -1.164  54.382  1.00  0.00    -0.318 OA
HETATM    8  C11 UNL     1      27.370  -0.688  53.713  1.00  0.00     0.117 A 
HETATM    9  C12 UNL     1      27.703   0.291  52.584  1.00  0.00     0.027 A 
HETATM   10  C13 UNL     1      27.768   0.758  54.003  1.00  0.00     0.110 A 
HETATM   11  C15 UNL     1      28.658  -0.700  53.752  1.00  0.00     0.090 A 
HETATM   12  H9  UNL     1      26.139   2.793  54.576  1.00  0.00     0.160 HD
ENDROOT
BRANCH   1  13
HETATM   13  N2  UNL     1      22.690   1.239  51.994  1.00  0.00    -0.312 N 
HETATM   14  C2  UNL     1      21.424   0.845  52.506  1.00  0.00     0.130 A 
HETATM   15  C3  UNL     1      20.423   0.813  51.650  1.00  0.00     0.050 A 
HETATM   16  C4  UNL     1      20.644   1.169  50.263  1.00  0.00     0.001 A 
HETATM   17  C5  UNL     1      21.797   1.536  49.771  1.00  0.00    -0.007 A 
HETATM   18  C6  UNL     1      23.011   1.615  50.631  1.00  0.00     0.160 A 
BRANCH  14  19
HETATM   19  N1  UNL     1      21.260   0.505  53.877  1.00  0.00    -0.254 NA
HETATM   20  C1  UNL     1      20.856  -0.719  54.121  1.00  0.00     0.151 C 
ENDBRANCH  14  19
ENDBRANCH   1  13
BRANCH  10  21
HETATM   21  O2  UNL     1      28.578   1.650  54.438  1.00  0.00    -0.378 OA
HETATM   22  C14 UNL     1      28.948   2.649  53.553  1.00  0.00     0.203 C 
ENDBRANCH  10  21
TORSDOF 3
ENDMDL
MODEL 4
REMARK VINA RESULT:      -7.1      3.326      6.569
REMARK  3 active torsions:
REMARK  status: ('A' for Active; 'I' for Inactive)
REMARK    1  A    between atoms: N1_2  and  C2_3 
REMARK    2  A    between atoms: N2_8  and  C7_9 
REMARK    3  A    between atoms: C13_18  and  O2_19 
ROOT
HETATM    1  C7  UNL     1      26.218   1.724  52.534  1.00  0.00     0.149 A 
HETATM    2  C8  UNL     1      25.258   2.438  53.083  1.00  0.00     0.135 A 
HETATM    3  N3  UNL     1      24.573   3.512  52.466  1.00  0.00    -0.380 N 
HETATM    4  C9  UNL     1      24.678   4.035  51.029  1.00  0.00     0.204 A 
HETATM    5  C10 UNL     1      25.842   3.080  50.588  1.00  0.00     0.170 A 
HETATM    6  N4  UNL     1      26.516   2.101  51.171  1.00  0.00    -0.207 NA
HETATM    7  O1  UNL     1      25.513   3.981  49.503  1.00  0.00    -0.318 OA
HETATM    8  C11 UNL     1      24.216   3.594  49.368  1.00  0.00     0.117 A 
HETATM    9  C12 UNL     1      23.248   2.554  49.937  1.00  0.00     0.027 A 
HETATM   10  C13 UNL     1      23.284   3.925  50.532  1.00  0.00     0.110 A 
HETATM   11  C15 UNL     1      23.112   3.960  48.814  1.00  0.00     0.090 A 
HETATM   12  H9  UNL     1      23.906   3.993  53.126  1.00  0.00     0.160 HD
ENDROOT
BRANCH   1  13
HETATM   13  N2  UNL     1      27.049   0.674  52.835  1.00  0.00    -0.312 N 
HETATM   14  C2  UNL     1      28.259   0.855  53.559  1.00  0.00     0.130 A 
HETATM   15  C3  UNL     1      28.980  -0.225  53.786  1.00  0.00     0.050 A 
HETATM   16  C4  UNL     1      28.525  -1.515  53.306  1.00  0.00     0.001 A 
HETATM   17  C5  UNL     1      27.416  -1.704  52.642  1.00  0.00    -0.007 A 
HETATM   18  C6  UNL     1      26.509  -0.568  52.317  1.00  0.00     0.160 A 
BRANCH  14  19
HETATM   19  N1  UNL     1      28.661   2.142  54.008  1.00  0.00    -0.254 NA
HETATM   20  C1  UNL     1      29.794   2.194  54.666  1.00  0.00     0.151 C 
ENDBRANCH  14  19
ENDBRANCH   1  13
BRANCH  10  21
HETATM   21  O2  UNL     1      22.273   4.521  51.046  1.00  0.00    -0.378 OA
HETATM   22  C14 UNL     1      21.350   3.731  51.714  1.00  0.00     0.203 C 
ENDBRANCH  10  21
TORSDOF 3
ENDMDL
MODEL 5
REMARK VINA RESULT:      -7.0      1.680      3.124
REMARK  3 active torsions:
REMARK  status: ('A' for Active; 'I' for Inactive)
REMARK    1  A    between atoms: N1_2  and  C2_3 
REMARK    2  A    between atoms: N2_8  and  C7_9 
REMARK    3  A    between atoms: C13_18  and  O2_19 
ROOT
HETATM    1  C7  UNL     1      24.139   0.525  52.855  1.00  0.00     0.149 A 
HETATM    2  C8  UNL     1      24.791  -0.595  53.088  1.00  0.00     0.135 A 
HETATM    3  N3  UNL     1      26.193  -0.767  52.998  1.00  0.00    -0.380 N 
HETATM    4  C9  UNL     1      27.286   0.275  52.731  1.00  0.00     0.204 A 
HETATM    5  C10 UNL     1      26.312   1.479  52.481  1.00  0.00     0.170 A 
HETATM    6  N4  UNL     1      24.998   1.639  52.523  1.00  0.00    -0.207 NA
HETATM    7  O1  UNL     1      27.679   1.907  52.273  1.00  0.00    -0.318 OA
HETATM    8  C11 UNL     1      28.121   1.627  53.529  1.00  0.00     0.117 A 
HETATM    9  C12 UNL     1      27.573   1.143  54.874  1.00  0.00     0.027 A 
HETATM   10  C13 UNL     1      28.162   0.152  53.922  1.00  0.00     0.110 A 
HETATM   11  C15 UNL     1      29.211   1.494  54.203  1.00  0.00     0.090 A 
HETATM   12  H9  UNL     1      26.483  -1.770  53.142  1.00  0.00     0.160 HD
ENDROOT
BRANCH   1  13
HETATM   13  N2  UNL     1      22.855   1.011  52.848  1.00  0.00    -0.312 N 
HETATM   14  C2  UNL     1      21.838   0.463  53.677  1.00  0.00     0.130 A 
HETATM   15  C3  UNL     1      20.642   1.007  53.583  1.00  0.00     0.050 A 
HETATM   16  C4  UNL     1      20.416   2.109  52.669  1.00  0.00     0.001 A 
HETATM   17  C5  UNL     1      21.335   2.628  51.900  1.00  0.00    -0.007 A 
HETATM   18  C6  UNL     1      22.731   2.107  51.908  1.00  0.00     0.160 A 
BRANCH  14  19
HETATM   19  N1  UNL     1      22.112  -0.619  54.557  1.00  0.00    -0.254 NA
HETATM   20  C1  UNL     1      21.278  -1.629  54.504  1.00  0.00     0.151 C 
ENDBRANCH  14  19
ENDBRANCH   1  13
BRANCH  10  21
HETATM   21  O2  UNL     1      28.777  -0.916  54.273  1.00  0.00    -0.378 OA
HETATM   22  C14 UNL     1      29.352  -1.671  53.263  1.00  0.00     0.203 C 
ENDBRANCH  10  21
TORSDOF 3
ENDMDL
MODEL 6
REMARK VINA RESULT:      -7.0      2.903      3.712
REMARK  3 active torsions:
REMARK  status: ('A' for Active; 'I' for Inactive)
REMARK    1  A    between atoms: N1_2  and  C2_3 
REMARK    2  A    between atoms: N2_8  and  C7_9 
REMARK    3  A    between atoms: C13_18  and  O2_19 
ROOT
HETATM    1  C7  UNL     1      24.677   2.876  52.667  1.00  0.00     0.149 A 
HETATM    2  C8  UNL     1      25.590   2.842  53.614  1.00  0.00     0.135 A 
HETATM    3  N3  UNL     1      26.052   1.677  54.273  1.00  0.00    -0.380 N 
HETATM    4  C9  UNL     1      25.716   0.206  53.999  1.00  0.00     0.204 A 
HETATM    5  C10 UNL     1      24.644   0.484  52.887  1.00  0.00     0.170 A 
HETATM    6  N4  UNL     1      24.177   1.572  52.294  1.00  0.00    -0.207 NA
HETATM    7  O1  UNL     1      24.725  -0.940  53.142  1.00  0.00    -0.318 OA
HETATM    8  C11 UNL     1      26.038  -1.081  52.815  1.00  0.00     0.117 A 
HETATM    9  C12 UNL     1      27.194  -0.246  52.256  1.00  0.00     0.027 A 
HETATM   10  C13 UNL     1      27.046  -0.397  53.736  1.00  0.00     0.110 A 
HETATM   11  C15 UNL     1      27.014  -1.916  52.917  1.00  0.00     0.090 A 
HETATM   12  H9  UNL     1      26.721   1.900  55.056  1.00  0.00     0.160 HD
ENDROOT
BRANCH   1  13
HETATM   13  N2  UNL     1      24.031   3.781  51.863  1.00  0.00    -0.312 N 
HETATM   14  C2  UNL     1      24.548   4.165  50.595  1.00  0.00     0.130 A 
HETATM   15  C3  UNL     1      23.846   5.045  49.911  1.00  0.00     0.050 A 
HETATM   16  C4  UNL     1      22.612   5.572  50.460  1.00  0.00     0.001 A 
HETATM   17  C5  UNL     1      22.118   5.233  51.620  1.00  0.00    -0.007 A 
HETATM   18  C6  UNL     1      22.812   4.246  52.495  1.00  0.00     0.160 A 
BRANCH  14  19
HETATM   19  N1  UNL     1      25.764   3.618  50.102  1.00  0.00    -0.254 NA
HETATM   20  C1  UNL     1      26.499   4.419  49.368  1.00  0.00     0.151 C 
ENDBRANCH  14  19
ENDBRANCH   1  13
BRANCH  10  21
HETATM   21  O2  UNL     1      28.021  -0.411  54.566  1.00  0.00    -0.378 OA
HETATM   22  C14 UNL     1      29.140   0.337  54.236  1.00  0.00     0.203 C 
ENDBRANCH  10  21
TORSDOF 3
ENDMDL
MODEL 7
REMARK VINA RESULT:      -6.9      3.113      6.397
REMARK  3 active torsions:
REMARK  status: ('A' for Active; 'I' for Inactive)
REMARK    1  A    between atoms: N1_2  and  C2_3 
REMARK    2  A    between atoms: N2_8  and  C7_9 
REMARK    3  A    between atoms: C13_18  and  O2_19 
ROOT
HETATM    1  C7  UNL     1      26.386   2.062  52.740  1.00  0.00     0.149 A 
HETATM    2  C8  UNL     1      25.366   2.683  53.295  1.00  0.00     0.135 A 
HETATM    3  N3  UNL     1      24.511   3.606  52.646  1.00  0.00    -0.380 N 
HETATM    4  C9  UNL     1      24.472   4.026  51.172  1.00  0.00     0.204 A 
HETATM    5  C10 UNL     1      25.733   3.204  50.730  1.00  0.00     0.170 A 
HETATM    6  N4  UNL     1      26.562   2.370  51.339  1.00  0.00    -0.207 NA
HETATM    7  O1  UNL     1      25.230   3.967  49.607  1.00  0.00    -0.318 OA
HETATM    8  C11 UNL     1      23.993   3.402  49.577  1.00  0.00     0.117 A 
HETATM    9  C12 UNL     1      23.205   2.289  50.273  1.00  0.00     0.027 A 
HETATM   10  C13 UNL     1      23.083   3.695  50.768  1.00  0.00     0.110 A 
HETATM   11  C15 UNL     1      22.823   3.575  49.066  1.00  0.00     0.090 A 
HETATM   12  H9  UNL     1      23.819   4.043  53.310  1.00  0.00     0.160 HD
ENDROOT
BRANCH   1  13
HETATM   13  N2  UNL     1      27.367   1.158  53.063  1.00  0.00    -0.312 N 
HETATM   14  C2  UNL     1      27.126  -0.243  53.071  1.00  0.00     0.130 A 
HETATM   15  C3  UNL     1      28.141  -1.016  53.401  1.00  0.00     0.050 A 
HETATM   16  C4  UNL     1      29.424  -0.427  53.732  1.00  0.00     0.001 A 
HETATM   17  C5  UNL     1      29.667   0.856  53.730  1.00  0.00    -0.007 A 
HETATM   18  C6  UNL     1      28.607   1.841  53.375  1.00  0.00     0.160 A 
BRANCH  14  19
HETATM   19  N1  UNL     1      25.849  -0.771  52.738  1.00  0.00    -0.254 NA
HETATM   20  C1  UNL     1      25.018  -0.940  53.738  1.00  0.00     0.151 C 
ENDBRANCH  14  19
ENDBRANCH   1  13
BRANCH  10  21
HETATM   21  O2  UNL     1      22.027   4.188  51.299  1.00  0.00    -0.378 OA
HETATM   22  C14 UNL     1      21.229   3.325  52.032  1.00  0.00     0.203 C 
ENDBRANCH  10  21
TORSDOF 3
ENDMDL
MODEL 8
REMARK VINA RESULT:      -6.9      3.912      6.043
REMARK  3 active torsions:
REMARK  status: ('A' for Active; 'I' for Inactive)
REMARK    1  A    between atoms: N1_2  and  C2_3 
REMARK    2  A    between atoms: N2_8  and  C7_9 
REMARK    3  A    between atoms: C13_18  and  O2_19 
ROOT
HETATM    1  C7  UNL     1      25.668   3.685  50.429  1.00  0.00     0.149 A 
HETATM    2  C8  UNL     1      24.521   3.142  50.780  1.00  0.00     0.135 A 
HETATM    3  N3  UNL     1      24.364   1.899  51.437  1.00  0.00    -0.380 N 
HETATM    4  C9  UNL     1      25.433   0.949  51.990  1.00  0.00     0.204 A 
HETATM    5  C10 UNL     1      26.667   1.762  51.465  1.00  0.00     0.170 A 
HETATM    6  N4  UNL     1      26.822   2.905  50.815  1.00  0.00    -0.207 NA
HETATM    7  O1  UNL     1      27.122   0.547  52.110  1.00  0.00    -0.318 OA
HETATM    8  C11 UNL     1      26.591   0.814  53.333  1.00  0.00     0.117 A 
HETATM    9  C12 UNL     1      25.847   1.939  54.058  1.00  0.00     0.027 A 
HETATM   10  C13 UNL     1      25.066   0.832  53.424  1.00  0.00     0.110 A 
HETATM   11  C15 UNL     1      26.318   0.242  54.456  1.00  0.00     0.090 A 
HETATM   12  H9  UNL     1      23.351   1.626  51.539  1.00  0.00     0.160 HD
ENDROOT
BRANCH   1  13
HETATM   13  N2  UNL     1      26.151   4.811  49.812  1.00  0.00    -0.312 N 
HETATM   14  C2  UNL     1      25.578   6.094  50.028  1.00  0.00     0.130 A 
HETATM   15  C3  UNL     1      26.122   7.103  49.379  1.00  0.00     0.050 A 
HETATM   16  C4  UNL     1      27.249   6.874  48.497  1.00  0.00     0.001 A 
HETATM   17  C5  UNL     1      27.793   5.705  48.284  1.00  0.00    -0.007 A 
HETATM   18  C6  UNL     1      27.274   4.481  48.956  1.00  0.00     0.160 A 
BRANCH  14  19
HETATM   19  N1  UNL     1      24.471   6.265  50.904  1.00  0.00    -0.254 NA
HETATM   20  C1  UNL     1      23.816   7.395  50.789  1.00  0.00     0.151 C 
ENDBRANCH  14  19
ENDBRANCH   1  13
BRANCH  10  21
HETATM   21  O2  UNL     1      23.947   0.389  53.861  1.00  0.00    -0.378 OA
HETATM   22  C14 UNL     1      23.377  -0.668  53.171  1.00  0.00     0.203 C 
ENDBRANCH  10  21
TORSDOF 3
ENDMDL
MODEL 9
REMARK VINA RESULT:      -6.9      3.161      5.065
REMARK  3 active torsions:
REMARK  status: ('A' for Active; 'I' for Inactive)
REMARK    1  A    between atoms: N1_2  and  C2_3 
REMARK    2  A    between atoms: N2_8  and  C7_9 
REMARK    3  A    between atoms: C13_18  and  O2_19 
ROOT
HETATM    1  C7  UNL     1      23.419   1.848  52.509  1.00  0.00     0.149 A 
HETATM    2  C8  UNL     1      24.215   2.873  52.735  1.00  0.00     0.135 A 
HETATM    3  N3  UNL     1      24.776   3.715  51.746  1.00  0.00    -0.380 N 
HETATM    4  C9  UNL     1      24.532   3.734  50.232  1.00  0.00     0.204 A 
HETATM    5  C10 UNL     1      23.602   2.471  50.196  1.00  0.00     0.170 A 
HETATM    6  N4  UNL     1      23.105   1.654  51.112  1.00  0.00    -0.207 NA
HETATM    7  O1  UNL     1      23.817   2.957  48.849  1.00  0.00    -0.318 OA
HETATM    8  C11 UNL     1      23.291   4.195  49.045  1.00  0.00     0.117 A 
HETATM    9  C12 UNL     1      22.576   4.997  50.136  1.00  0.00     0.027 A 
HETATM   10  C13 UNL     1      24.059   5.119  49.988  1.00  0.00     0.110 A 
HETATM   11  C15 UNL     1      23.229   5.358  48.493  1.00  0.00     0.090 A 
HETATM   12  H9  UNL     1      25.451   4.415  52.153  1.00  0.00     0.160 HD
ENDROOT
BRANCH   1  13
HETATM   13  N2  UNL     1      22.738   0.876  53.197  1.00  0.00    -0.312 N 
HETATM   14  C2  UNL     1      23.382  -0.297  53.678  1.00  0.00     0.130 A 
HETATM   15  C3  UNL     1      22.627  -1.165  54.321  1.00  0.00     0.050 A 
HETATM   16  C4  UNL     1      21.215  -0.897  54.510  1.00  0.00     0.001 A 
HETATM   17  C5  UNL     1      20.604   0.174  54.080  1.00  0.00    -0.007 A 
HETATM   18  C6  UNL     1      21.341   1.234  53.336  1.00  0.00     0.160 A 
BRANCH  14  19
HETATM   19  N1  UNL     1      24.771  -0.513  53.466  1.00  0.00    -0.254 NA
HETATM   20  C1  UNL     1      25.529  -0.473  54.535  1.00  0.00     0.151 C 
ENDBRANCH  14  19
ENDBRANCH   1  13
BRANCH  10  21
HETATM   21  O2  UNL     1      24.730   6.180  50.246  1.00  0.00    -0.378 OA
HETATM   22  C14 UNL     1      24.177   7.067  51.155  1.00  0.00     0.203 C 
ENDBRANCH  10  21
TORSDOF 3
ENDMDL
