MODEL 1
REMARK VINA RESULT:      -6.5      0.000      0.000
REMARK  11 active torsions:
REMARK  status: ('A' for Active; 'I' for Inactive)
REMARK    1  A    between atoms: O1_2  and  C2_3 
REMARK    2  A    between atoms: C2_3  and  C3_4 
REMARK    3  A    between atoms: C2_3  and  C10_15 
REMARK    4  A    between atoms: C3_4  and  P1_5 
REMARK    5  A    between atoms: P1_5  and  C4_6 
REMARK    6  A    between atoms: C4_6  and  C5_7 
REMARK       I    between atoms: C5_7  and  N1_9 
REMARK    7  A    between atoms: N1_9  and  C6_10 
REMARK    8  A    between atoms: C6_10  and  C7_11 
REMARK    9  A    between atoms: C7_11  and  C9_13 
REMARK   10  A    between atoms: C9_13  and  O3_14 
REMARK   11  A    between atoms: C10_15  and  C11_16 
ROOT
HETATM    1  P1  UNL     1      24.587   2.841  52.236  1.00  0.00    -0.095 P 
HETATM    2  H5  UNL     1      24.711   3.905  53.217  1.00  0.00     0.062 HD
ENDROOT
BRANCH   1   3
HETATM    3  C3  UNL     1      23.923   1.304  52.962  1.00  0.00     0.036 C 
BRANCH   3   4
HETATM    4  C2  UNL     1      23.332   0.208  53.401  1.00  0.00     0.050 C 
BRANCH   4   5
HETATM    5  O1  UNL     1      21.990   0.053  53.129  1.00  0.00    -0.360 OA
HETATM    6  C1  UNL     1      21.475   0.076  51.807  1.00  0.00     0.209 C 
ENDBRANCH   4   5
BRANCH   4   7
HETATM    7  C10 UNL     1      24.082  -0.818  54.159  1.00  0.00     0.103 C 
BRANCH   7   8
HETATM    8  C11 UNL     1      25.563  -0.584  54.060  1.00  0.00    -0.052 A 
HETATM    9  C12 UNL     1      26.299   0.147  54.962  1.00  0.00     0.009 A 
HETATM   10  C13 UNL     1      27.656   0.322  54.810  1.00  0.00     0.024 A 
HETATM   11  C14 UNL     1      28.282  -0.265  53.709  1.00  0.00     0.034 A 
HETATM   12 CL1  UNL     1      29.998  -0.127  53.390  1.00  0.00    -0.084 Cl
HETATM   13  C15 UNL     1      27.560  -1.005  52.791  1.00  0.00     0.024 A 
HETATM   14  C16 UNL     1      26.201  -1.169  52.959  1.00  0.00     0.009 A 
ENDBRANCH   7   8
ENDBRANCH   4   7
ENDBRANCH   3   4
ENDBRANCH   1   3
BRANCH   1  15
HETATM   15  C4  UNL     1      26.234   2.453  51.460  1.00  0.00     0.138 C 
BRANCH  15  16
HETATM   16  C5  UNL     1      26.462   3.427  50.370  1.00  0.00     0.221 C 
HETATM   17  O2  UNL     1      27.118   3.432  49.283  1.00  0.00    -0.273 OA
HETATM   18  N1  UNL     1      25.804   4.700  50.526  1.00  0.00    -0.360 N 
HETATM   19  H8  UNL     1      25.201   4.896  51.378  1.00  0.00     0.162 HD
BRANCH  18  20
HETATM   20  C6  UNL     1      26.003   5.692  49.471  1.00  0.00     0.128 C 
BRANCH  20  21
HETATM   21  C7  UNL     1      25.183   6.902  49.837  1.00  0.00     0.023 C 
HETATM   22  C8  UNL     1      26.083   8.004  50.286  1.00  0.00     0.014 C 
BRANCH  21  23
HETATM   23  C9  UNL     1      24.116   6.577  50.856  1.00  0.00     0.170 C 
BRANCH  23  24
HETATM   24  O3  UNL     1      24.492   6.868  52.156  1.00  0.00    -0.400 OA
HETATM   25  H17 UNL     1      23.835   6.541  52.794  1.00  0.00     0.209 HD
ENDBRANCH  23  24
ENDBRANCH  21  23
ENDBRANCH  20  21
ENDBRANCH  18  20
ENDBRANCH  15  16
ENDBRANCH   1  15
TORSDOF 11
ENDMDL
MODEL 2
REMARK VINA RESULT:      -6.3      2.548      5.670
REMARK  11 active torsions:
REMARK  status: ('A' for Active; 'I' for Inactive)
REMARK    1  A    between atoms: O1_2  and  C2_3 
REMARK    2  A    between atoms: C2_3  and  C3_4 
REMARK    3  A    between atoms: C2_3  and  C10_15 
REMARK    4  A    between atoms: C3_4  and  P1_5 
REMARK    5  A    between atoms: P1_5  and  C4_6 
REMARK    6  A    between atoms: C4_6  and  C5_7 
REMARK       I    between atoms: C5_7  and  N1_9 
REMARK    7  A    between atoms: N1_9  and  C6_10 
REMARK    8  A    between atoms: C6_10  and  C7_11 
REMARK    9  A    between atoms: C7_11  and  C9_13 
REMARK   10  A    between atoms: C9_13  and  O3_14 
REMARK   11  A    between atoms: C10_15  and  C11_16 
ROOT
HETATM    1  P1  UNL     1      22.342   2.100  49.807  1.00  0.00    -0.095 P 
HETATM    2  H5  UNL     1      21.996   0.698  49.964  1.00  0.00     0.062 HD
ENDROOT
BRANCH   1   3
HETATM    3  C3  UNL     1      23.907   2.524  50.644  1.00  0.00     0.036 C 
BRANCH   3   4
HETATM    4  C2  UNL     1      25.065   2.693  51.256  1.00  0.00     0.050 C 
BRANCH   4   5
HETATM    5  O1  UNL     1      26.134   3.113  50.494  1.00  0.00    -0.360 OA
HETATM    6  C1  UNL     1      26.088   4.292  49.705  1.00  0.00     0.209 C 
ENDBRANCH   4   5
BRANCH   4   7
HETATM    7  C10 UNL     1      25.212   2.440  52.706  1.00  0.00     0.103 C 
BRANCH   7   8
HETATM    8  C11 UNL     1      26.451   1.637  52.989  1.00  0.00    -0.052 A 
HETATM    9  C12 UNL     1      27.604   2.148  53.534  1.00  0.00     0.009 A 
HETATM   10  C13 UNL     1      28.704   1.354  53.767  1.00  0.00     0.024 A 
HETATM   11  C14 UNL     1      28.627   0.000  53.435  1.00  0.00     0.034 A 
HETATM   12 CL1  UNL     1      29.946  -1.127  53.676  1.00  0.00    -0.084 Cl
HETATM   13  C15 UNL     1      27.477  -0.533  52.887  1.00  0.00     0.024 A 
HETATM   14  C16 UNL     1      26.384   0.277  52.659  1.00  0.00     0.009 A 
ENDBRANCH   7   8
ENDBRANCH   4   7
ENDBRANCH   3   4
ENDBRANCH   1   3
BRANCH   1  15
HETATM   15  C4  UNL     1      21.002   3.198  50.486  1.00  0.00     0.138 C 
BRANCH  15  16
HETATM   16  C5  UNL     1      20.658   2.709  51.839  1.00  0.00     0.221 C 
HETATM   17  O2  UNL     1      20.146   3.218  52.884  1.00  0.00    -0.273 OA
HETATM   18  N1  UNL     1      20.955   1.321  52.093  1.00  0.00    -0.360 N 
HETATM   19  H8  UNL     1      21.390   0.716  51.337  1.00  0.00     0.162 HD
BRANCH  18  20
HETATM   20  C6  UNL     1      20.630   0.797  53.419  1.00  0.00     0.128 C 
BRANCH  20  21
HETATM   21  C7  UNL     1      21.846   0.061  53.916  1.00  0.00     0.023 C 
HETATM   22  C8  UNL     1      22.716  -0.313  52.762  1.00  0.00     0.014 C 
BRANCH  21  23
HETATM   23  C9  UNL     1      21.480  -1.129  54.772  1.00  0.00     0.170 C 
BRANCH  23  24
HETATM   24  O3  UNL     1      22.539  -1.613  55.519  1.00  0.00    -0.400 OA
HETATM   25  H17 UNL     1      22.826  -2.486  55.199  1.00  0.00     0.209 HD
ENDBRANCH  23  24
ENDBRANCH  21  23
ENDBRANCH  20  21
ENDBRANCH  18  20
ENDBRANCH  15  16
ENDBRANCH   1  15
TORSDOF 11
ENDMDL
MODEL 3
REMARK VINA RESULT:      -6.2      1.772      2.490
REMARK  11 active torsions:
REMARK  status: ('A' for Active; 'I' for Inactive)
REMARK    1  A    between atoms: O1_2  and  C2_3 
REMARK    2  A    between atoms: C2_3  and  C3_4 
REMARK    3  A    between atoms: C2_3  and  C10_15 
REMARK    4  A    between atoms: C3_4  and  P1_5 
REMARK    5  A    between atoms: P1_5  and  C4_6 
REMARK    6  A    between atoms: C4_6  and  C5_7 
REMARK       I    between atoms: C5_7  and  N1_9 
REMARK    7  A    between atoms: N1_9  and  C6_10 
REMARK    8  A    between atoms: C6_10  and  C7_11 
REMARK    9  A    between atoms: C7_11  and  C9_13 
REMARK   10  A    between atoms: C9_13  and  O3_14 
REMARK   11  A    between atoms: C10_15  and  C11_16 
ROOT
HETATM    1  P1  UNL     1      22.117   1.647  50.376  1.00  0.00    -0.095 P 
HETATM    2  H5  UNL     1      20.748   1.180  50.244  1.00  0.00     0.062 HD
ENDROOT
BRANCH   1   3
HETATM    3  C3  UNL     1      22.864   1.156  51.967  1.00  0.00     0.036 C 
BRANCH   3   4
HETATM    4  C2  UNL     1      23.524   0.781  53.047  1.00  0.00     0.050 C 
BRANCH   4   5
HETATM    5  O1  UNL     1      23.045  -0.308  53.743  1.00  0.00    -0.360 OA
HETATM    6  C1  UNL     1      21.689  -0.415  54.147  1.00  0.00     0.209 C 
ENDBRANCH   4   5
BRANCH   4   7
HETATM    7  C10 UNL     1      24.735   1.503  53.498  1.00  0.00     0.103 C 
BRANCH   7   8
HETATM    8  C11 UNL     1      25.949   0.621  53.417  1.00  0.00    -0.052 A 
HETATM    9  C12 UNL     1      26.026  -0.532  52.673  1.00  0.00     0.009 A 
HETATM   10  C13 UNL     1      27.171  -1.295  52.644  1.00  0.00     0.024 A 
HETATM   11  C14 UNL     1      28.270  -0.871  53.394  1.00  0.00     0.034 A 
HETATM   12 CL1  UNL     1      29.789  -1.740  53.452  1.00  0.00    -0.084 Cl
HETATM   13  C15 UNL     1      28.212   0.285  54.149  1.00  0.00     0.024 A 
HETATM   14  C16 UNL     1      27.056   1.036  54.167  1.00  0.00     0.009 A 
ENDBRANCH   7   8
ENDBRANCH   4   7
ENDBRANCH   3   4
ENDBRANCH   1   3
BRANCH   1  15
HETATM   15  C4  UNL     1      22.206   3.500  50.238  1.00  0.00     0.138 C 
BRANCH  15  16
HETATM   16  C5  UNL     1      23.575   3.918  50.612  1.00  0.00     0.221 C 
HETATM   17  O2  UNL     1      24.116   4.434  51.639  1.00  0.00    -0.273 OA
HETATM   18  N1  UNL     1      24.585   3.713  49.604  1.00  0.00    -0.360 N 
HETATM   19  H8  UNL     1      24.331   3.287  48.665  1.00  0.00     0.162 HD
BRANCH  18  20
HETATM   20  C6  UNL     1      25.952   4.112  49.934  1.00  0.00     0.128 C 
BRANCH  20  21
HETATM   21  C7  UNL     1      26.387   5.111  48.893  1.00  0.00     0.023 C 
HETATM   22  C8  UNL     1      27.848   4.962  48.629  1.00  0.00     0.014 C 
BRANCH  21  23
HETATM   23  C9  UNL     1      26.010   6.524  49.270  1.00  0.00     0.170 C 
BRANCH  23  24
HETATM   24  O3  UNL     1      25.719   6.674  50.614  1.00  0.00    -0.400 OA
HETATM   25  H17 UNL     1      25.879   5.849  51.104  1.00  0.00     0.209 HD
ENDBRANCH  23  24
ENDBRANCH  21  23
ENDBRANCH  20  21
ENDBRANCH  18  20
ENDBRANCH  15  16
ENDBRANCH   1  15
TORSDOF 11
ENDMDL
MODEL 4
REMARK VINA RESULT:      -6.2      3.321      6.418
REMARK  11 active torsions:
REMARK  status: ('A' for Active; 'I' for Inactive)
REMARK    1  A    between atoms: O1_2  and  C2_3 
REMARK    2  A    between atoms: C2_3  and  C3_4 
REMARK    3  A    between atoms: C2_3  and  C10_15 
REMARK    4  A    between atoms: C3_4  and  P1_5 
REMARK    5  A    between atoms: P1_5  and  C4_6 
REMARK    6  A    between atoms: C4_6  and  C5_7 
REMARK       I    between atoms: C5_7  and  N1_9 
REMARK    7  A    between atoms: N1_9  and  C6_10 
REMARK    8  A    between atoms: C6_10  and  C7_11 
REMARK    9  A    between atoms: C7_11  and  C9_13 
REMARK   10  A    between atoms: C9_13  and  O3_14 
REMARK   11  A    between atoms: C10_15  and  C11_16 
ROOT
HETATM    1  P1  UNL     1      22.993   0.621  53.227  1.00  0.00    -0.095 P 
HETATM    2  H5  UNL     1      21.807  -0.214  53.300  1.00  0.00     0.062 HD
ENDROOT
BRANCH   1   3
HETATM    3  C3  UNL     1      22.903   1.832  51.865  1.00  0.00     0.036 C 
BRANCH   3   4
HETATM    4  C2  UNL     1      22.813   2.806  50.978  1.00  0.00     0.050 C 
BRANCH   4   5
HETATM    5  O1  UNL     1      22.200   3.975  51.373  1.00  0.00    -0.360 OA
HETATM    6  C1  UNL     1      21.146   3.997  52.323  1.00  0.00     0.209 C 
ENDBRANCH   4   5
BRANCH   4   7
HETATM    7  C10 UNL     1      23.351   2.650  49.608  1.00  0.00     0.103 C 
BRANCH   7   8
HETATM    8  C11 UNL     1      24.516   3.572  49.380  1.00  0.00    -0.052 A 
HETATM    9  C12 UNL     1      25.832   3.231  49.584  1.00  0.00     0.009 A 
HETATM   10  C13 UNL     1      26.852   4.126  49.354  1.00  0.00     0.024 A 
HETATM   11  C14 UNL     1      26.522   5.406  48.903  1.00  0.00     0.034 A 
HETATM   12 CL1  UNL     1      27.713   6.646  48.570  1.00  0.00    -0.084 Cl
HETATM   13  C15 UNL     1      25.206   5.768  48.691  1.00  0.00     0.024 A 
HETATM   14  C16 UNL     1      24.197   4.858  48.927  1.00  0.00     0.009 A 
ENDBRANCH   7   8
ENDBRANCH   4   7
ENDBRANCH   3   4
ENDBRANCH   1   3
BRANCH   1  15
HETATM   15  C4  UNL     1      24.523  -0.411  52.987  1.00  0.00     0.138 C 
BRANCH  15  16
HETATM   16  C5  UNL     1      25.622   0.224  53.747  1.00  0.00     0.221 C 
HETATM   17  O2  UNL     1      25.837   1.375  54.237  1.00  0.00    -0.273 OA
HETATM   18  N1  UNL     1      26.753  -0.624  54.029  1.00  0.00    -0.360 N 
HETATM   19  H8  UNL     1      26.766  -1.634  53.701  1.00  0.00     0.162 HD
BRANCH  18  20
HETATM   20  C6  UNL     1      27.862  -0.036  54.779  1.00  0.00     0.128 C 
BRANCH  20  21
HETATM   21  C7  UNL     1      28.845   0.499  53.770  1.00  0.00     0.023 C 
HETATM   22  C8  UNL     1      29.987  -0.450  53.625  1.00  0.00     0.014 C 
BRANCH  21  23
HETATM   23  C9  UNL     1      29.299   1.900  54.108  1.00  0.00     0.170 C 
BRANCH  23  24
HETATM   24  O3  UNL     1      28.288   2.840  54.023  1.00  0.00    -0.400 OA
HETATM   25  H17 UNL     1      27.913   3.035  54.899  1.00  0.00     0.209 HD
ENDBRANCH  23  24
ENDBRANCH  21  23
ENDBRANCH  20  21
ENDBRANCH  18  20
ENDBRANCH  15  16
ENDBRANCH   1  15
TORSDOF 11
ENDMDL
MODEL 5
REMARK VINA RESULT:      -6.1      2.480      3.510
REMARK  11 active torsions:
REMARK  status: ('A' for Active; 'I' for Inactive)
REMARK    1  A    between atoms: O1_2  and  C2_3 
REMARK    2  A    between atoms: C2_3  and  C3_4 
REMARK    3  A    between atoms: C2_3  and  C10_15 
REMARK    4  A    between atoms: C3_4  and  P1_5 
REMARK    5  A    between atoms: P1_5  and  C4_6 
REMARK    6  A    between atoms: C4_6  and  C5_7 
REMARK       I    between atoms: C5_7  and  N1_9 
REMARK    7  A    between atoms: N1_9  and  C6_10 
REMARK    8  A    between atoms: C6_10  and  C7_11 
REMARK    9  A    between atoms: C7_11  and  C9_13 
REMARK   10  A    between atoms: C9_13  and  O3_14 
REMARK   11  A    between atoms: C10_15  and  C11_16 
ROOT
HETATM    1  P1  UNL     1      25.912   4.242  49.698  1.00  0.00    -0.095 P 
HETATM    2  H5  UNL     1      26.417   3.530  48.537  1.00  0.00     0.062 HD
ENDROOT
BRANCH   1   3
HETATM    3  C3  UNL     1      24.982   3.150  50.828  1.00  0.00     0.036 C 
BRANCH   3   4
HETATM    4  C2  UNL     1      24.401   2.259  51.609  1.00  0.00     0.050 C 
BRANCH   4   5
HETATM    5  O1  UNL     1      23.370   1.517  51.074  1.00  0.00    -0.360 OA
HETATM    6  C1  UNL     1      22.612   1.961  49.960  1.00  0.00     0.209 C 
ENDBRANCH   4   5
BRANCH   4   7
HETATM    7  C10 UNL     1      24.836   2.064  53.010  1.00  0.00     0.103 C 
BRANCH   7   8
HETATM    8  C11 UNL     1      26.044   1.172  53.078  1.00  0.00    -0.052 A 
HETATM    9  C12 UNL     1      26.050  -0.160  52.738  1.00  0.00     0.009 A 
HETATM   10  C13 UNL     1      27.194  -0.920  52.824  1.00  0.00     0.024 A 
HETATM   11  C14 UNL     1      28.367  -0.305  53.268  1.00  0.00     0.034 A 
HETATM   12 CL1  UNL     1      29.895  -1.147  53.427  1.00  0.00    -0.084 Cl
HETATM   13  C15 UNL     1      28.382   1.032  53.614  1.00  0.00     0.024 A 
HETATM   14  C16 UNL     1      27.226   1.778  53.522  1.00  0.00     0.009 A 
ENDBRANCH   7   8
ENDBRANCH   4   7
ENDBRANCH   3   4
ENDBRANCH   1   3
BRANCH   1  15
HETATM   15  C4  UNL     1      24.794   5.640  49.189  1.00  0.00     0.138 C 
BRANCH  15  16
HETATM   16  C5  UNL     1      25.643   6.810  48.881  1.00  0.00     0.221 C 
HETATM   17  O2  UNL     1      25.442   7.987  48.448  1.00  0.00    -0.273 OA
HETATM   18  N1  UNL     1      27.056   6.630  49.106  1.00  0.00    -0.360 N 
HETATM   19  H8  UNL     1      27.430   5.706  49.472  1.00  0.00     0.162 HD
BRANCH  18  20
HETATM   20  C6  UNL     1      27.932   7.763  48.814  1.00  0.00     0.128 C 
BRANCH  20  21
HETATM   21  C7  UNL     1      29.060   7.244  47.960  1.00  0.00     0.023 C 
HETATM   22  C8  UNL     1      28.836   7.634  46.537  1.00  0.00     0.014 C 
BRANCH  21  23
HETATM   23  C9  UNL     1      29.259   5.756  48.126  1.00  0.00     0.170 C 
BRANCH  23  24
HETATM   24  O3  UNL     1      29.778   5.406  49.360  1.00  0.00    -0.400 OA
HETATM   25  H17 UNL     1      29.409   4.562  49.671  1.00  0.00     0.209 HD
ENDBRANCH  23  24
ENDBRANCH  21  23
ENDBRANCH  20  21
ENDBRANCH  18  20
ENDBRANCH  15  16
ENDBRANCH   1  15
TORSDOF 11
ENDMDL
MODEL 6
REMARK VINA RESULT:      -6.1      3.318      4.258
REMARK  11 active torsions:
REMARK  status: ('A' for Active; 'I' for Inactive)
REMARK    1  A    between atoms: O1_2  and  C2_3 
REMARK    2  A    between atoms: C2_3  and  C3_4 
REMARK    3  A    between atoms: C2_3  and  C10_15 
REMARK    4  A    between atoms: C3_4  and  P1_5 
REMARK    5  A    between atoms: P1_5  and  C4_6 
REMARK    6  A    between atoms: C4_6  and  C5_7 
REMARK       I    between atoms: C5_7  and  N1_9 
REMARK    7  A    between atoms: N1_9  and  C6_10 
REMARK    8  A    between atoms: C6_10  and  C7_11 
REMARK    9  A    between atoms: C7_11  and  C9_13 
REMARK   10  A    between atoms: C9_13  and  O3_14 
REMARK   11  A    between atoms: C10_15  and  C11_16 
ROOT
HETATM    1  P1  UNL     1      25.183   5.133  49.340  1.00  0.00    -0.095 P 
HETATM    2  H5  UNL     1      25.188   6.506  49.814  1.00  0.00     0.062 HD
ENDROOT
BRANCH   1   3
HETATM    3  C3  UNL     1      24.338   4.005  50.500  1.00  0.00     0.036 C 
BRANCH   3   4
HETATM    4  C2  UNL     1      23.755   3.284  51.440  1.00  0.00     0.050 C 
BRANCH   4   5
HETATM    5  O1  UNL     1      22.490   2.801  51.181  1.00  0.00    -0.360 OA
HETATM    6  C1  UNL     1      22.260   1.694  50.324  1.00  0.00     0.209 C 
ENDBRANCH   4   5
BRANCH   4   7
HETATM    7  C10 UNL     1      24.431   3.003  52.725  1.00  0.00     0.103 C 
BRANCH   7   8
HETATM    8  C11 UNL     1      25.202   1.715  52.657  1.00  0.00    -0.052 A 
HETATM    9  C12 UNL     1      26.481   1.596  52.165  1.00  0.00     0.009 A 
HETATM   10  C13 UNL     1      27.130   0.383  52.132  1.00  0.00     0.024 A 
HETATM   11  C14 UNL     1      26.457  -0.743  52.614  1.00  0.00     0.034 A 
HETATM   12 CL1  UNL     1      27.158  -2.348  52.634  1.00  0.00    -0.084 Cl
HETATM   13  C15 UNL     1      25.172  -0.644  53.112  1.00  0.00     0.024 A 
HETATM   14  C16 UNL     1      24.537   0.580  53.137  1.00  0.00     0.009 A 
ENDBRANCH   7   8
ENDBRANCH   4   7
ENDBRANCH   3   4
ENDBRANCH   1   3
BRANCH   1  15
HETATM   15  C4  UNL     1      26.917   4.510  49.081  1.00  0.00     0.138 C 
BRANCH  15  16
HETATM   16  C5  UNL     1      27.730   5.634  48.568  1.00  0.00     0.221 C 
HETATM   17  O2  UNL     1      27.535   6.870  48.353  1.00  0.00    -0.273 OA
HETATM   18  N1  UNL     1      29.086   5.305  48.206  1.00  0.00    -0.360 N 
HETATM   19  H8  UNL     1      29.448   4.312  48.313  1.00  0.00     0.162 HD
BRANCH  18  20
HETATM   20  C6  UNL     1      29.925   6.387  47.694  1.00  0.00     0.128 C 
BRANCH  20  21
HETATM   21  C7  UNL     1      31.345   6.072  48.087  1.00  0.00     0.023 C 
HETATM   22  C8  UNL     1      31.664   4.657  47.736  1.00  0.00     0.014 C 
BRANCH  21  23
HETATM   23  C9  UNL     1      31.614   6.381  49.540  1.00  0.00     0.170 C 
BRANCH  23  24
HETATM   24  O3  UNL     1      31.324   5.327  50.388  1.00  0.00    -0.400 OA
HETATM   25  H17 UNL     1      31.610   5.517  51.298  1.00  0.00     0.209 HD
ENDBRANCH  23  24
ENDBRANCH  21  23
ENDBRANCH  20  21
ENDBRANCH  18  20
ENDBRANCH  15  16
ENDBRANCH   1  15
TORSDOF 11
ENDMDL
MODEL 7
REMARK VINA RESULT:      -6.0      2.068      2.939
REMARK  11 active torsions:
REMARK  status: ('A' for Active; 'I' for Inactive)
REMARK    1  A    between atoms: O1_2  and  C2_3 
REMARK    2  A    between atoms: C2_3  and  C3_4 
REMARK    3  A    between atoms: C2_3  and  C10_15 
REMARK    4  A    between atoms: C3_4  and  P1_5 
REMARK    5  A    between atoms: P1_5  and  C4_6 
REMARK    6  A    between atoms: C4_6  and  C5_7 
REMARK       I    between atoms: C5_7  and  N1_9 
REMARK    7  A    between atoms: N1_9  and  C6_10 
REMARK    8  A    between atoms: C6_10  and  C7_11 
REMARK    9  A    between atoms: C7_11  and  C9_13 
REMARK   10  A    between atoms: C9_13  and  O3_14 
REMARK   11  A    between atoms: C10_15  and  C11_16 
ROOT
HETATM    1  P1  UNL     1      21.931   1.524  50.060  1.00  0.00    -0.095 P 
HETATM    2  H5  UNL     1      20.613   1.162  50.551  1.00  0.00     0.062 HD
ENDROOT
BRANCH   1   3
HETATM    3  C3  UNL     1      23.190   1.504  51.381  1.00  0.00     0.036 C 
BRANCH   3   4
HETATM    4  C2  UNL     1      24.182   1.566  52.250  1.00  0.00     0.050 C 
BRANCH   4   5
HETATM    5  O1  UNL     1      25.096   2.586  52.104  1.00  0.00    -0.360 OA
HETATM    6  C1  UNL     1      26.056   2.603  51.060  1.00  0.00     0.209 C 
ENDBRANCH   4   5
BRANCH   4   7
HETATM    7  C10 UNL     1      24.310   0.575  53.341  1.00  0.00     0.103 C 
BRANCH   7   8
HETATM    8  C11 UNL     1      25.747   0.186  53.549  1.00  0.00    -0.052 A 
HETATM    9  C12 UNL     1      26.526   0.612  54.599  1.00  0.00     0.009 A 
HETATM   10  C13 UNL     1      27.838   0.216  54.729  1.00  0.00     0.024 A 
HETATM   11  C14 UNL     1      28.372  -0.638  53.762  1.00  0.00     0.034 A 
HETATM   12 CL1  UNL     1      30.023  -1.222  53.799  1.00  0.00    -0.084 Cl
HETATM   13  C15 UNL     1      27.605  -1.078  52.699  1.00  0.00     0.024 A 
HETATM   14  C16 UNL     1      26.293  -0.670  52.585  1.00  0.00     0.009 A 
ENDBRANCH   7   8
ENDBRANCH   4   7
ENDBRANCH   3   4
ENDBRANCH   1   3
BRANCH   1  15
HETATM   15  C4  UNL     1      21.916   3.220  49.295  1.00  0.00     0.138 C 
BRANCH  15  16
HETATM   16  C5  UNL     1      22.104   4.208  50.380  1.00  0.00     0.221 C 
HETATM   17  O2  UNL     1      21.384   4.672  51.317  1.00  0.00    -0.273 OA
HETATM   18  N1  UNL     1      23.403   4.831  50.436  1.00  0.00    -0.360 N 
HETATM   19  H8  UNL     1      24.155   4.575  49.731  1.00  0.00     0.162 HD
BRANCH  18  20
HETATM   20  C6  UNL     1      23.631   5.814  51.494  1.00  0.00     0.128 C 
BRANCH  20  21
HETATM   21  C7  UNL     1      24.240   7.030  50.847  1.00  0.00     0.023 C 
HETATM   22  C8  UNL     1      23.160   7.952  50.387  1.00  0.00     0.014 C 
BRANCH  21  23
HETATM   23  C9  UNL     1      25.196   6.664  49.736  1.00  0.00     0.170 C 
BRANCH  23  24
HETATM   24  O3  UNL     1      26.324   5.998  50.181  1.00  0.00    -0.400 OA
HETATM   25  H17 UNL     1      26.224   5.714  51.107  1.00  0.00     0.209 HD
ENDBRANCH  23  24
ENDBRANCH  21  23
ENDBRANCH  20  21
ENDBRANCH  18  20
ENDBRANCH  15  16
ENDBRANCH   1  15
TORSDOF 11
ENDMDL
MODEL 8
REMARK VINA RESULT:      -5.9      3.328      5.160
REMARK  11 active torsions:
REMARK  status: ('A' for Active; 'I' for Inactive)
REMARK    1  A    between atoms: O1_2  and  C2_3 
REMARK    2  A    between atoms: C2_3  and  C3_4 
REMARK    3  A    between atoms: C2_3  and  C10_15 
REMARK    4  A    between atoms: C3_4  and  P1_5 
REMARK    5  A    between atoms: P1_5  and  C4_6 
REMARK    6  A    between atoms: C4_6  and  C5_7 
REMARK       I    between atoms: C5_7  and  N1_9 
REMARK    7  A    between atoms: N1_9  and  C6_10 
REMARK    8  A    between atoms: C6_10  and  C7_11 
REMARK    9  A    between atoms: C7_11  and  C9_13 
REMARK   10  A    between atoms: C9_13  and  O3_14 
REMARK   11  A    between atoms: C10_15  and  C11_16 
ROOT
HETATM    1  P1  UNL     1      25.700   6.097  49.472  1.00  0.00    -0.095 P 
HETATM    2  H5  UNL     1      25.122   6.203  48.144  1.00  0.00     0.062 HD
ENDROOT
BRANCH   1   3
HETATM    3  C3  UNL     1      24.924   4.774  50.460  1.00  0.00     0.036 C 
BRANCH   3   4
HETATM    4  C2  UNL     1      24.492   3.768  51.198  1.00  0.00     0.050 C 
BRANCH   4   5
HETATM    5  O1  UNL     1      23.794   4.073  52.347  1.00  0.00    -0.360 OA
HETATM    6  C1  UNL     1      22.635   4.891  52.339  1.00  0.00     0.209 C 
ENDBRANCH   4   5
BRANCH   4   7
HETATM    7  C10 UNL     1      24.746   2.364  50.809  1.00  0.00     0.103 C 
BRANCH   7   8
HETATM    8  C11 UNL     1      23.987   1.414  51.693  1.00  0.00    -0.052 A 
HETATM    9  C12 UNL     1      24.518   0.776  52.788  1.00  0.00     0.009 A 
HETATM   10  C13 UNL     1      23.764  -0.083  53.557  1.00  0.00     0.024 A 
HETATM   11  C14 UNL     1      22.432  -0.297  53.198  1.00  0.00     0.034 A 
HETATM   12 CL1  UNL     1      21.357  -1.361  54.082  1.00  0.00    -0.084 Cl
HETATM   13  C15 UNL     1      21.879   0.335  52.101  1.00  0.00     0.024 A 
HETATM   14  C16 UNL     1      22.649   1.192  51.343  1.00  0.00     0.009 A 
ENDBRANCH   7   8
ENDBRANCH   4   7
ENDBRANCH   3   4
ENDBRANCH   1   3
BRANCH   1  15
HETATM   15  C4  UNL     1      25.528   7.698  50.405  1.00  0.00     0.138 C 
BRANCH  15  16
HETATM   16  C5  UNL     1      26.737   8.508  50.143  1.00  0.00     0.221 C 
HETATM   17  O2  UNL     1      27.109   9.693  50.408  1.00  0.00    -0.273 OA
HETATM   18  N1  UNL     1      27.785   7.842  49.410  1.00  0.00    -0.360 N 
HETATM   19  H8  UNL     1      27.666   6.835  49.094  1.00  0.00     0.162 HD
BRANCH  18  20
HETATM   20  C6  UNL     1      28.999   8.607  49.129  1.00  0.00     0.128 C 
BRANCH  20  21
HETATM   21  C7  UNL     1      29.782   7.836  48.099  1.00  0.00     0.023 C 
HETATM   22  C8  UNL     1      28.861   7.331  47.039  1.00  0.00     0.014 C 
BRANCH  21  23
HETATM   23  C9  UNL     1      30.606   6.732  48.721  1.00  0.00     0.170 C 
BRANCH  23  24
HETATM   24  O3  UNL     1      29.847   5.663  49.162  1.00  0.00    -0.400 OA
HETATM   25  H17 UNL     1      30.369   5.071  49.730  1.00  0.00     0.209 HD
ENDBRANCH  23  24
ENDBRANCH  21  23
ENDBRANCH  20  21
ENDBRANCH  18  20
ENDBRANCH  15  16
ENDBRANCH   1  15
TORSDOF 11
ENDMDL
MODEL 9
REMARK VINA RESULT:      -5.8      3.059      6.655
REMARK  11 active torsions:
REMARK  status: ('A' for Active; 'I' for Inactive)
REMARK    1  A    between atoms: O1_2  and  C2_3 
REMARK    2  A    between atoms: C2_3  and  C3_4 
REMARK    3  A    between atoms: C2_3  and  C10_15 
REMARK    4  A    between atoms: C3_4  and  P1_5 
REMARK    5  A    between atoms: P1_5  and  C4_6 
REMARK    6  A    between atoms: C4_6  and  C5_7 
REMARK       I    between atoms: C5_7  and  N1_9 
REMARK    7  A    between atoms: N1_9  and  C6_10 
REMARK    8  A    between atoms: C6_10  and  C7_11 
REMARK    9  A    between atoms: C7_11  and  C9_13 
REMARK   10  A    between atoms: C9_13  and  O3_14 
REMARK   11  A    between atoms: C10_15  and  C11_16 
ROOT
HETATM    1  P1  UNL     1      21.549   0.783  51.458  1.00  0.00    -0.095 P 
HETATM    2  H5  UNL     1      22.329  -0.308  50.899  1.00  0.00     0.062 HD
ENDROOT
BRANCH   1   3
HETATM    3  C3  UNL     1      22.212   2.417  50.992  1.00  0.00     0.036 C 
BRANCH   3   4
HETATM    4  C2  UNL     1      22.744   3.608  50.784  1.00  0.00     0.050 C 
BRANCH   4   5
HETATM    5  O1  UNL     1      23.036   4.378  51.890  1.00  0.00    -0.360 OA
HETATM    6  C1  UNL     1      23.876   3.918  52.936  1.00  0.00     0.209 C 
ENDBRANCH   4   5
BRANCH   4   7
HETATM    7  C10 UNL     1      23.018   4.099  49.416  1.00  0.00     0.103 C 
BRANCH   7   8
HETATM    8  C11 UNL     1      24.485   4.363  49.223  1.00  0.00    -0.052 A 
HETATM    9  C12 UNL     1      25.482   3.452  49.484  1.00  0.00     0.009 A 
HETATM   10  C13 UNL     1      26.809   3.760  49.284  1.00  0.00     0.024 A 
HETATM   11  C14 UNL     1      27.130   5.031  48.804  1.00  0.00     0.034 A 
HETATM   12 CL1  UNL     1      28.772   5.560  48.503  1.00  0.00    -0.084 Cl
HETATM   13  C15 UNL     1      26.143   5.960  48.535  1.00  0.00     0.024 A 
HETATM   14  C16 UNL     1      24.819   5.635  48.742  1.00  0.00     0.009 A 
ENDBRANCH   7   8
ENDBRANCH   4   7
ENDBRANCH   3   4
ENDBRANCH   1   3
BRANCH   1  15
HETATM   15  C4  UNL     1      21.498   0.684  53.316  1.00  0.00     0.138 C 
BRANCH  15  16
HETATM   16  C5  UNL     1      22.683  -0.081  53.761  1.00  0.00     0.221 C 
HETATM   17  O2  UNL     1      22.877  -1.159  54.404  1.00  0.00    -0.273 OA
HETATM   18  N1  UNL     1      23.960   0.489  53.408  1.00  0.00    -0.360 N 
HETATM   19  H8  UNL     1      24.012   1.398  52.863  1.00  0.00     0.162 HD
BRANCH  18  20
HETATM   20  C6  UNL     1      25.158  -0.236  53.829  1.00  0.00     0.128 C 
BRANCH  20  21
HETATM   21  C7  UNL     1      26.347   0.549  53.339  1.00  0.00     0.023 C 
HETATM   22  C8  UNL     1      26.238   0.762  51.866  1.00  0.00     0.014 C 
BRANCH  21  23
HETATM   23  C9  UNL     1      27.655  -0.097  53.733  1.00  0.00     0.170 C 
BRANCH  23  24
HETATM   24  O3  UNL     1      27.722  -0.426  55.075  1.00  0.00    -0.400 OA
HETATM   25  H17 UNL     1      27.251  -1.257  55.258  1.00  0.00     0.209 HD
ENDBRANCH  23  24
ENDBRANCH  21  23
ENDBRANCH  20  21
ENDBRANCH  18  20
ENDBRANCH  15  16
ENDBRANCH   1  15
TORSDOF 11
ENDMDL
