MODEL 1
REMARK VINA RESULT:      -7.2      0.000      0.000
REMARK  8 active torsions:
REMARK  status: ('A' for Active; 'I' for Inactive)
REMARK    1  A    between atoms: C1_2  and  N2_3 
REMARK    2  A    between atoms: C4_7  and  C5_8 
REMARK    3  A    between atoms: C5_8  and  N4_9 
REMARK    4  A    between atoms: N5_10  and  C6_11 
REMARK    5  A    between atoms: C6_11  and  N6_12 
REMARK    6  A    between atoms: N6_12  and  C7_13 
REMARK    7  A    between atoms: C11_17  and  C12_18 
REMARK    8  A    between atoms: C12_18  and  C13_19 
ROOT
HETATM    1  C5  UNL     1      26.971   1.228  53.348  1.00  0.00     0.119 C 
HETATM    2  N5  UNL     1      26.253   1.041  52.298  1.00  0.00    -0.256 NA
ENDROOT
BRANCH   2   3
HETATM    3  C6  UNL     1      25.774   2.044  51.402  1.00  0.00     0.272 C 
BRANCH   3   4
HETATM    4  N6  UNL     1      24.429   2.490  51.733  1.00  0.00    -0.372 N 
HETATM    5  H11 UNL     1      24.323   3.517  51.985  1.00  0.00     0.161 HD
BRANCH   4   6
HETATM    6  C7  UNL     1      23.239   1.717  51.758  1.00  0.00     0.029 A 
HETATM    7  C8  UNL     1      22.542   1.364  50.612  1.00  0.00     0.029 A 
HETATM    8  C9  UNL     1      21.397   0.611  50.753  1.00  0.00     0.003 A 
HETATM    9  C10 UNL     1      20.940   0.207  51.988  1.00  0.00     0.007 A 
HETATM   10  C11 UNL     1      21.662   0.578  53.107  1.00  0.00    -0.054 A 
HETATM   11  C14 UNL     1      22.820   1.336  53.011  1.00  0.00     0.036 A 
BRANCH  10  12
HETATM   12  C12 UNL     1      21.117   0.111  54.410  1.00  0.00     0.070 C 
BRANCH  12  13
HETATM   13  C13 UNL     1      21.353  -1.378  54.497  1.00  0.00     0.226 C 
HETATM   14  F1  UNL     1      22.663  -1.582  54.912  1.00  0.00    -0.255 F 
ENDBRANCH  12  13
ENDBRANCH  10  12
ENDBRANCH   4   6
ENDBRANCH   3   4
ENDBRANCH   2   3
BRANCH   1  15
HETATM   15  C4  UNL     1      27.411   0.104  54.205  1.00  0.00     0.180 C 
HETATM   16  N2  UNL     1      27.954  -0.941  53.333  1.00  0.00    -0.323 N 
HETATM   17  C2  UNL     1      29.298  -0.477  53.089  1.00  0.00     0.204 C 
HETATM   18  N3  UNL     1      29.693   0.307  54.045  1.00  0.00    -0.282 NA
HETATM   19  C3  UNL     1      28.637   0.440  55.030  1.00  0.00     0.183 C 
BRANCH  16  20
HETATM   20  C1  UNL     1      27.510  -2.169  52.741  1.00  0.00     0.201 C 
HETATM   21  N1  UNL     1      28.243  -3.245  52.883  1.00  0.00    -0.295 NA
HETATM   22  H1  UNL     1      28.008  -4.166  52.497  1.00  0.00     0.187 HD
ENDBRANCH  16  20
ENDBRANCH   1  15
BRANCH   1  23
HETATM   23  N4  UNL     1      27.516   2.400  53.966  1.00  0.00    -0.386 N 
HETATM   24  H7  UNL     1      27.242   3.391  53.760  1.00  0.00     0.157 HD
HETATM   25  H8  UNL     1      28.262   2.326  54.700  1.00  0.00     0.157 HD
ENDBRANCH   1  23
TORSDOF 8
ENDMDL
MODEL 2
REMARK VINA RESULT:      -6.7      1.683      2.050
REMARK  8 active torsions:
REMARK  status: ('A' for Active; 'I' for Inactive)
REMARK    1  A    between atoms: C1_2  and  N2_3 
REMARK    2  A    between atoms: C4_7  and  C5_8 
REMARK    3  A    between atoms: C5_8  and  N4_9 
REMARK    4  A    between atoms: N5_10  and  C6_11 
REMARK    5  A    between atoms: C6_11  and  N6_12 
REMARK    6  A    between atoms: N6_12  and  C7_13 
REMARK    7  A    between atoms: C11_17  and  C12_18 
REMARK    8  A    between atoms: C12_18  and  C13_19 
ROOT
HETATM    1  C5  UNL     1      27.237   1.369  53.180  1.00  0.00     0.119 C 
HETATM    2  N5  UNL     1      26.771   1.215  51.992  1.00  0.00    -0.256 NA
ENDROOT
BRANCH   2   3
HETATM    3  C6  UNL     1      26.554   2.239  51.022  1.00  0.00     0.272 C 
BRANCH   3   4
HETATM    4  N6  UNL     1      25.250   2.871  51.161  1.00  0.00    -0.372 N 
HETATM    5  H11 UNL     1      25.215   3.749  51.758  1.00  0.00     0.161 HD
BRANCH   4   6
HETATM    6  C7  UNL     1      24.017   2.455  50.593  1.00  0.00     0.029 A 
HETATM    7  C8  UNL     1      23.572   2.887  49.352  1.00  0.00     0.029 A 
HETATM    8  C9  UNL     1      22.360   2.419  48.897  1.00  0.00     0.003 A 
HETATM    9  C10 UNL     1      21.594   1.544  49.637  1.00  0.00     0.007 A 
HETATM   10  C11 UNL     1      22.071   1.136  50.868  1.00  0.00    -0.054 A 
HETATM   11  C14 UNL     1      23.287   1.582  51.365  1.00  0.00     0.036 A 
BRANCH  10  12
HETATM   12  C12 UNL     1      21.199   0.192  51.617  1.00  0.00     0.070 C 
BRANCH  12  13
HETATM   13  C13 UNL     1      19.807   0.776  51.640  1.00  0.00     0.226 C 
HETATM   14  F1  UNL     1      18.955  -0.119  51.004  1.00  0.00    -0.255 F 
ENDBRANCH  12  13
ENDBRANCH  10  12
ENDBRANCH   4   6
ENDBRANCH   3   4
ENDBRANCH   2   3
BRANCH   1  15
HETATM   15  C4  UNL     1      27.420   0.226  54.103  1.00  0.00     0.180 C 
HETATM   16  N2  UNL     1      27.926  -0.907  53.322  1.00  0.00    -0.323 N 
HETATM   17  C2  UNL     1      29.338  -0.624  53.240  1.00  0.00     0.204 C 
HETATM   18  N3  UNL     1      29.712   0.133  54.226  1.00  0.00    -0.282 NA
HETATM   19  C3  UNL     1      28.570   0.430  55.069  1.00  0.00     0.183 C 
BRANCH  16  20
HETATM   20  C1  UNL     1      27.402  -2.087  52.698  1.00  0.00     0.201 C 
HETATM   21  N1  UNL     1      28.089  -3.199  52.764  1.00  0.00    -0.295 NA
HETATM   22  H1  UNL     1      27.797  -4.092  52.350  1.00  0.00     0.187 HD
ENDBRANCH  16  20
ENDBRANCH   1  15
BRANCH   1  23
HETATM   23  N4  UNL     1      27.677   2.515  53.919  1.00  0.00    -0.386 N 
HETATM   24  H7  UNL     1      27.098   3.355  54.158  1.00  0.00     0.157 HD
HETATM   25  H8  UNL     1      28.659   2.579  54.282  1.00  0.00     0.157 HD
ENDBRANCH   1  23
TORSDOF 8
ENDMDL
MODEL 3
REMARK VINA RESULT:      -6.6      4.052      6.003
REMARK  8 active torsions:
REMARK  status: ('A' for Active; 'I' for Inactive)
REMARK    1  A    between atoms: C1_2  and  N2_3 
REMARK    2  A    between atoms: C4_7  and  C5_8 
REMARK    3  A    between atoms: C5_8  and  N4_9 
REMARK    4  A    between atoms: N5_10  and  C6_11 
REMARK    5  A    between atoms: C6_11  and  N6_12 
REMARK    6  A    between atoms: N6_12  and  C7_13 
REMARK    7  A    between atoms: C11_17  and  C12_18 
REMARK    8  A    between atoms: C12_18  and  C13_19 
ROOT
HETATM    1  C5  UNL     1      26.437   1.488  52.422  1.00  0.00     0.119 C 
HETATM    2  N5  UNL     1      25.178   1.362  52.195  1.00  0.00    -0.256 NA
ENDROOT
BRANCH   2   3
HETATM    3  C6  UNL     1      24.254   2.411  51.909  1.00  0.00     0.272 C 
BRANCH   3   4
HETATM    4  N6  UNL     1      24.224   2.759  50.496  1.00  0.00    -0.372 N 
HETATM    5  H11 UNL     1      23.754   2.058  49.851  1.00  0.00     0.161 HD
BRANCH   4   6
HETATM    6  C7  UNL     1      24.748   3.923  49.876  1.00  0.00     0.029 A 
HETATM    7  C8  UNL     1      23.982   5.048  49.610  1.00  0.00     0.029 A 
HETATM    8  C9  UNL     1      24.593   6.123  49.004  1.00  0.00     0.003 A 
HETATM    9  C10 UNL     1      25.928   6.103  48.664  1.00  0.00     0.007 A 
HETATM   10  C11 UNL     1      26.659   4.965  48.946  1.00  0.00    -0.054 A 
HETATM   11  C14 UNL     1      26.083   3.859  49.555  1.00  0.00     0.036 A 
BRANCH  10  12
HETATM   12  C12 UNL     1      28.094   5.006  48.555  1.00  0.00     0.070 C 
BRANCH  12  13
HETATM   13  C13 UNL     1      28.429   6.434  48.195  1.00  0.00     0.226 C 
HETATM   14  F1  UNL     1      29.557   6.419  47.384  1.00  0.00    -0.255 F 
ENDBRANCH  12  13
ENDBRANCH  10  12
ENDBRANCH   4   6
ENDBRANCH   3   4
ENDBRANCH   2   3
BRANCH   1  15
HETATM   15  C4  UNL     1      27.301   0.321  52.709  1.00  0.00     0.180 C 
HETATM   16  N2  UNL     1      28.000   0.577  53.972  1.00  0.00    -0.323 N 
HETATM   17  C2  UNL     1      27.012   0.209  54.956  1.00  0.00     0.204 C 
HETATM   18  N3  UNL     1      26.163  -0.639  54.459  1.00  0.00    -0.282 NA
HETATM   19  C3  UNL     1      26.510  -0.918  53.079  1.00  0.00     0.183 C 
BRANCH  16  20
HETATM   20  C1  UNL     1      29.283   1.052  54.400  1.00  0.00     0.201 C 
HETATM   21  N1  UNL     1      29.495   2.342  54.464  1.00  0.00    -0.295 NA
HETATM   22  H1  UNL     1      30.378   2.776  54.758  1.00  0.00     0.187 HD
ENDBRANCH  16  20
ENDBRANCH   1  15
BRANCH   1  23
HETATM   23  N4  UNL     1      27.316   2.619  52.470  1.00  0.00    -0.386 N 
HETATM   24  H7  UNL     1      27.076   3.572  52.834  1.00  0.00     0.157 HD
HETATM   25  H8  UNL     1      28.303   2.550  52.123  1.00  0.00     0.157 HD
ENDBRANCH   1  23
TORSDOF 8
ENDMDL
MODEL 4
REMARK VINA RESULT:      -6.5      3.883      5.585
REMARK  8 active torsions:
REMARK  status: ('A' for Active; 'I' for Inactive)
REMARK    1  A    between atoms: C1_2  and  N2_3 
REMARK    2  A    between atoms: C4_7  and  C5_8 
REMARK    3  A    between atoms: C5_8  and  N4_9 
REMARK    4  A    between atoms: N5_10  and  C6_11 
REMARK    5  A    between atoms: C6_11  and  N6_12 
REMARK    6  A    between atoms: N6_12  and  C7_13 
REMARK    7  A    between atoms: C11_17  and  C12_18 
REMARK    8  A    between atoms: C12_18  and  C13_19 
ROOT
HETATM    1  C5  UNL     1      26.302   1.864  53.711  1.00  0.00     0.119 C 
HETATM    2  N5  UNL     1      25.051   2.082  53.514  1.00  0.00    -0.256 NA
ENDROOT
BRANCH   2   3
HETATM    3  C6  UNL     1      24.480   3.149  52.756  1.00  0.00     0.272 C 
BRANCH   3   4
HETATM    4  N6  UNL     1      24.653   2.969  51.322  1.00  0.00    -0.372 N 
HETATM    5  H11 UNL     1      24.157   2.135  50.890  1.00  0.00     0.161 HD
BRANCH   4   6
HETATM    6  C7  UNL     1      25.407   3.776  50.430  1.00  0.00     0.029 A 
HETATM    7  C8  UNL     1      26.591   3.353  49.845  1.00  0.00     0.029 A 
HETATM    8  C9  UNL     1      27.241   4.218  48.993  1.00  0.00     0.003 A 
HETATM    9  C10 UNL     1      26.745   5.473  48.714  1.00  0.00     0.007 A 
HETATM   10  C11 UNL     1      25.562   5.858  49.315  1.00  0.00    -0.054 A 
HETATM   11  C14 UNL     1      24.875   5.019  50.180  1.00  0.00     0.036 A 
BRANCH  10  12
HETATM   12  C12 UNL     1      25.079   7.223  48.974  1.00  0.00     0.070 C 
BRANCH  12  13
HETATM   13  C13 UNL     1      25.195   8.073  50.217  1.00  0.00     0.226 C 
HETATM   14  F1  UNL     1      26.528   8.083  50.608  1.00  0.00    -0.255 F 
ENDBRANCH  12  13
ENDBRANCH  10  12
ENDBRANCH   4   6
ENDBRANCH   3   4
ENDBRANCH   2   3
BRANCH   1  15
HETATM   15  C4  UNL     1      26.779   0.720  54.519  1.00  0.00     0.180 C 
HETATM   16  N2  UNL     1      25.879  -0.411  54.275  1.00  0.00    -0.323 N 
HETATM   17  C2  UNL     1      26.385  -0.951  53.037  1.00  0.00     0.204 C 
HETATM   18  N3  UNL     1      27.636  -0.641  52.879  1.00  0.00    -0.282 NA
HETATM   19  C3  UNL     1      28.086   0.145  54.010  1.00  0.00     0.183 C 
BRANCH  16  20
HETATM   20  C1  UNL     1      24.748  -1.027  54.907  1.00  0.00     0.201 C 
HETATM   21  N1  UNL     1      24.863  -1.450  56.140  1.00  0.00    -0.295 NA
HETATM   22  H1  UNL     1      24.112  -1.902  56.675  1.00  0.00     0.187 HD
ENDBRANCH  16  20
ENDBRANCH   1  15
BRANCH   1  23
HETATM   23  N4  UNL     1      27.493   2.539  53.287  1.00  0.00    -0.386 N 
HETATM   24  H7  UNL     1      27.687   2.900  52.323  1.00  0.00     0.157 HD
HETATM   25  H8  UNL     1      28.280   2.717  53.957  1.00  0.00     0.157 HD
ENDBRANCH   1  23
TORSDOF 8
ENDMDL
MODEL 5
REMARK VINA RESULT:      -6.5      4.017      6.378
REMARK  8 active torsions:
REMARK  status: ('A' for Active; 'I' for Inactive)
REMARK    1  A    between atoms: C1_2  and  N2_3 
REMARK    2  A    between atoms: C4_7  and  C5_8 
REMARK    3  A    between atoms: C5_8  and  N4_9 
REMARK    4  A    between atoms: N5_10  and  C6_11 
REMARK    5  A    between atoms: C6_11  and  N6_12 
REMARK    6  A    between atoms: N6_12  and  C7_13 
REMARK    7  A    between atoms: C11_17  and  C12_18 
REMARK    8  A    between atoms: C12_18  and  C13_19 
ROOT
HETATM    1  C5  UNL     1      24.853   6.762  50.780  1.00  0.00     0.119 C 
HETATM    2  N5  UNL     1      24.813   5.477  50.741  1.00  0.00    -0.256 NA
ENDROOT
BRANCH   2   3
HETATM    3  C6  UNL     1      23.792   4.638  51.279  1.00  0.00     0.272 C 
BRANCH   3   4
HETATM    4  N6  UNL     1      24.143   4.098  52.584  1.00  0.00    -0.372 N 
HETATM    5  H11 UNL     1      24.240   4.803  53.372  1.00  0.00     0.161 HD
BRANCH   4   6
HETATM    6  C7  UNL     1      24.372   2.741  52.930  1.00  0.00     0.029 A 
HETATM    7  C8  UNL     1      25.604   2.266  53.355  1.00  0.00     0.029 A 
HETATM    8  C9  UNL     1      25.715   0.929  53.665  1.00  0.00     0.003 A 
HETATM    9  C10 UNL     1      24.643   0.069  53.565  1.00  0.00     0.007 A 
HETATM   10  C11 UNL     1      23.431   0.579  53.140  1.00  0.00    -0.054 A 
HETATM   11  C14 UNL     1      23.275   1.919  52.816  1.00  0.00     0.036 A 
BRANCH  10  12
HETATM   12  C12 UNL     1      22.313  -0.399  53.053  1.00  0.00     0.070 C 
BRANCH  12  13
HETATM   13  C13 UNL     1      21.371  -0.120  54.200  1.00  0.00     0.226 C 
HETATM   14  F1  UNL     1      21.900  -0.706  55.343  1.00  0.00    -0.255 F 
ENDBRANCH  12  13
ENDBRANCH  10  12
ENDBRANCH   4   6
ENDBRANCH   3   4
ENDBRANCH   2   3
BRANCH   1  15
HETATM   15  C4  UNL     1      25.970   7.529  50.185  1.00  0.00     0.180 C 
HETATM   16  N2  UNL     1      26.386   6.841  48.959  1.00  0.00    -0.323 N 
HETATM   17  C2  UNL     1      25.422   7.312  47.995  1.00  0.00     0.204 C 
HETATM   18  N3  UNL     1      24.931   8.457  48.359  1.00  0.00    -0.282 NA
HETATM   19  C3  UNL     1      25.529   8.863  49.616  1.00  0.00     0.183 C 
BRANCH  16  20
HETATM   20  C1  UNL     1      27.406   5.920  48.550  1.00  0.00     0.201 C 
HETATM   21  N1  UNL     1      27.676   4.890  49.311  1.00  0.00    -0.295 NA
HETATM   22  H1  UNL     1      28.386   4.180  49.103  1.00  0.00     0.187 HD
ENDBRANCH  16  20
ENDBRANCH   1  15
BRANCH   1  23
HETATM   23  N4  UNL     1      23.972   7.753  51.324  1.00  0.00    -0.386 N 
HETATM   24  H7  UNL     1      24.261   8.617  51.842  1.00  0.00     0.157 HD
HETATM   25  H8  UNL     1      22.932   7.661  51.229  1.00  0.00     0.157 HD
ENDBRANCH   1  23
TORSDOF 8
ENDMDL
MODEL 6
REMARK VINA RESULT:      -6.4      1.971      3.108
REMARK  8 active torsions:
REMARK  status: ('A' for Active; 'I' for Inactive)
REMARK    1  A    between atoms: C1_2  and  N2_3 
REMARK    2  A    between atoms: C4_7  and  C5_8 
REMARK    3  A    between atoms: C5_8  and  N4_9 
REMARK    4  A    between atoms: N5_10  and  C6_11 
REMARK    5  A    between atoms: C6_11  and  N6_12 
REMARK    6  A    between atoms: N6_12  and  C7_13 
REMARK    7  A    between atoms: C11_17  and  C12_18 
REMARK    8  A    between atoms: C12_18  and  C13_19 
ROOT
HETATM    1  C5  UNL     1      25.453   1.131  52.551  1.00  0.00     0.119 C 
HETATM    2  N5  UNL     1      25.498   2.404  52.382  1.00  0.00    -0.256 NA
ENDROOT
BRANCH   2   3
HETATM    3  C6  UNL     1      24.390   3.304  52.378  1.00  0.00     0.272 C 
BRANCH   3   4
HETATM    4  N6  UNL     1      23.920   3.605  51.034  1.00  0.00    -0.372 N 
HETATM    5  H11 UNL     1      24.256   4.521  50.613  1.00  0.00     0.161 HD
BRANCH   4   6
HETATM    6  C7  UNL     1      23.066   2.821  50.216  1.00  0.00     0.029 A 
HETATM    7  C8  UNL     1      23.189   2.757  48.836  1.00  0.00     0.029 A 
HETATM    8  C9  UNL     1      22.306   1.963  48.139  1.00  0.00     0.003 A 
HETATM    9  C10 UNL     1      21.319   1.242  48.775  1.00  0.00     0.007 A 
HETATM   10  C11 UNL     1      21.228   1.330  50.152  1.00  0.00    -0.054 A 
HETATM   11  C14 UNL     1      22.097   2.118  50.893  1.00  0.00     0.036 A 
BRANCH  10  12
HETATM   12  C12 UNL     1      20.144   0.529  50.780  1.00  0.00     0.070 C 
BRANCH  12  13
HETATM   13  C13 UNL     1      20.552   0.245  52.206  1.00  0.00     0.226 C 
HETATM   14  F1  UNL     1      19.606  -0.607  52.763  1.00  0.00    -0.255 F 
ENDBRANCH  12  13
ENDBRANCH  10  12
ENDBRANCH   4   6
ENDBRANCH   3   4
ENDBRANCH   2   3
BRANCH   1  15
HETATM   15  C4  UNL     1      26.675   0.296  52.535  1.00  0.00     0.180 C 
HETATM   16  N2  UNL     1      27.600   0.832  53.537  1.00  0.00    -0.323 N 
HETATM   17  C2  UNL     1      27.105   0.253  54.761  1.00  0.00     0.204 C 
HETATM   18  N3  UNL     1      26.447  -0.840  54.519  1.00  0.00    -0.282 NA
HETATM   19  C3  UNL     1      26.442  -1.095  53.092  1.00  0.00     0.183 C 
BRANCH  16  20
HETATM   20  C1  UNL     1      28.745   1.695  53.573  1.00  0.00     0.201 C 
HETATM   21  N1  UNL     1      28.716   2.819  52.902  1.00  0.00    -0.295 NA
HETATM   22  H1  UNL     1      29.484   3.499  52.868  1.00  0.00     0.187 HD
ENDBRANCH  16  20
ENDBRANCH   1  15
BRANCH   1  23
HETATM   23  N4  UNL     1      24.379   0.211  52.781  1.00  0.00    -0.386 N 
HETATM   24  H7  UNL     1      23.795  -0.252  52.044  1.00  0.00     0.157 HD
HETATM   25  H8  UNL     1      24.103  -0.065  53.754  1.00  0.00     0.157 HD
ENDBRANCH   1  23
TORSDOF 8
ENDMDL
MODEL 7
REMARK VINA RESULT:      -6.4      3.848      6.847
REMARK  8 active torsions:
REMARK  status: ('A' for Active; 'I' for Inactive)
REMARK    1  A    between atoms: C1_2  and  N2_3 
REMARK    2  A    between atoms: C4_7  and  C5_8 
REMARK    3  A    between atoms: C5_8  and  N4_9 
REMARK    4  A    between atoms: N5_10  and  C6_11 
REMARK    5  A    between atoms: C6_11  and  N6_12 
REMARK    6  A    between atoms: N6_12  and  C7_13 
REMARK    7  A    between atoms: C11_17  and  C12_18 
REMARK    8  A    between atoms: C12_18  and  C13_19 
ROOT
HETATM    1  C5  UNL     1      24.048   5.886  51.220  1.00  0.00     0.119 C 
HETATM    2  N5  UNL     1      23.696   4.677  51.476  1.00  0.00    -0.256 NA
ENDROOT
BRANCH   2   3
HETATM    3  C6  UNL     1      23.556   4.084  52.766  1.00  0.00     0.272 C 
BRANCH   3   4
HETATM    4  N6  UNL     1      24.798   3.497  53.248  1.00  0.00    -0.372 N 
HETATM    5  H11 UNL     1      25.570   4.179  53.504  1.00  0.00     0.161 HD
BRANCH   4   6
HETATM    6  C7  UNL     1      25.101   2.121  53.417  1.00  0.00     0.029 A 
HETATM    7  C8  UNL     1      24.247   1.104  53.014  1.00  0.00     0.029 A 
HETATM    8  C9  UNL     1      24.641  -0.198  53.226  1.00  0.00     0.003 A 
HETATM    9  C10 UNL     1      25.847  -0.506  53.819  1.00  0.00     0.007 A 
HETATM   10  C11 UNL     1      26.670   0.534  54.205  1.00  0.00    -0.054 A 
HETATM   11  C14 UNL     1      26.313   1.861  54.011  1.00  0.00     0.036 A 
BRANCH  10  12
HETATM   12  C12 UNL     1      27.957   0.138  54.838  1.00  0.00     0.070 C 
BRANCH  12  13
HETATM   13  C13 UNL     1      28.896  -0.289  53.736  1.00  0.00     0.226 C 
HETATM   14  F1  UNL     1      29.454   0.855  53.179  1.00  0.00    -0.255 F 
ENDBRANCH  12  13
ENDBRANCH  10  12
ENDBRANCH   4   6
ENDBRANCH   3   4
ENDBRANCH   2   3
BRANCH   1  15
HETATM   15  C4  UNL     1      24.160   6.392  49.833  1.00  0.00     0.180 C 
HETATM   16  N2  UNL     1      25.529   6.878  49.639  1.00  0.00    -0.323 N 
HETATM   17  C2  UNL     1      26.254   5.663  49.356  1.00  0.00     0.204 C 
HETATM   18  N3  UNL     1      25.458   4.755  48.879  1.00  0.00    -0.282 NA
HETATM   19  C3  UNL     1      24.111   5.285  48.799  1.00  0.00     0.183 C 
BRANCH  16  20
HETATM   20  C1  UNL     1      26.227   8.130  49.664  1.00  0.00     0.201 C 
HETATM   21  N1  UNL     1      26.840   8.495  50.761  1.00  0.00    -0.295 NA
HETATM   22  H1  UNL     1      27.364   9.371  50.874  1.00  0.00     0.187 HD
ENDBRANCH  16  20
ENDBRANCH   1  15
BRANCH   1  23
HETATM   23  N4  UNL     1      24.402   7.000  52.049  1.00  0.00    -0.386 N 
HETATM   24  H7  UNL     1      25.369   7.248  52.370  1.00  0.00     0.157 HD
HETATM   25  H8  UNL     1      23.672   7.665  52.400  1.00  0.00     0.157 HD
ENDBRANCH   1  23
TORSDOF 8
ENDMDL
MODEL 8
REMARK VINA RESULT:      -6.4      4.264      7.247
REMARK  8 active torsions:
REMARK  status: ('A' for Active; 'I' for Inactive)
REMARK    1  A    between atoms: C1_2  and  N2_3 
REMARK    2  A    between atoms: C4_7  and  C5_8 
REMARK    3  A    between atoms: C5_8  and  N4_9 
REMARK    4  A    between atoms: N5_10  and  C6_11 
REMARK    5  A    between atoms: C6_11  and  N6_12 
REMARK    6  A    between atoms: N6_12  and  C7_13 
REMARK    7  A    between atoms: C11_17  and  C12_18 
REMARK    8  A    between atoms: C12_18  and  C13_19 
ROOT
HETATM    1  C5  UNL     1      26.828   5.483  48.846  1.00  0.00     0.119 C 
HETATM    2  N5  UNL     1      26.116   4.462  49.168  1.00  0.00    -0.256 NA
ENDROOT
BRANCH   2   3
HETATM    3  C6  UNL     1      26.593   3.213  49.668  1.00  0.00     0.272 C 
BRANCH   3   4
HETATM    4  N6  UNL     1      26.698   3.197  51.120  1.00  0.00    -0.372 N 
HETATM    5  H11 UNL     1      26.932   4.123  51.584  1.00  0.00     0.161 HD
BRANCH   4   6
HETATM    6  C7  UNL     1      26.524   2.090  51.992  1.00  0.00     0.029 A 
HETATM    7  C8  UNL     1      25.365   1.328  52.024  1.00  0.00     0.029 A 
HETATM    8  C9  UNL     1      25.303   0.275  52.909  1.00  0.00     0.003 A 
HETATM    9  C10 UNL     1      26.352  -0.032  53.748  1.00  0.00     0.007 A 
HETATM   10  C11 UNL     1      27.490   0.750  53.687  1.00  0.00    -0.054 A 
HETATM   11  C14 UNL     1      27.595   1.820  52.810  1.00  0.00     0.036 A 
BRANCH  10  12
HETATM   12  C12 UNL     1      28.587   0.369  54.617  1.00  0.00     0.070 C 
BRANCH  12  13
HETATM   13  C13 UNL     1      29.422  -0.686  53.930  1.00  0.00     0.226 C 
HETATM   14  F1  UNL     1      30.457  -0.045  53.260  1.00  0.00    -0.255 F 
ENDBRANCH  12  13
ENDBRANCH  10  12
ENDBRANCH   4   6
ENDBRANCH   3   4
ENDBRANCH   2   3
BRANCH   1  15
HETATM   15  C4  UNL     1      26.218   6.732  48.336  1.00  0.00     0.180 C 
HETATM   16  N2  UNL     1      24.976   6.963  49.079  1.00  0.00    -0.323 N 
HETATM   17  C2  UNL     1      25.449   7.578  50.294  1.00  0.00     0.204 C 
HETATM   18  N3  UNL     1      26.598   8.151  50.102  1.00  0.00    -0.282 NA
HETATM   19  C3  UNL     1      27.004   7.969  48.722  1.00  0.00     0.183 C 
BRANCH  16  20
HETATM   20  C1  UNL     1      23.571   6.745  48.895  1.00  0.00     0.201 C 
HETATM   21  N1  UNL     1      23.161   5.586  48.445  1.00  0.00    -0.295 NA
HETATM   22  H1  UNL     1      22.178   5.337  48.282  1.00  0.00     0.187 HD
ENDBRANCH  16  20
ENDBRANCH   1  15
BRANCH   1  23
HETATM   23  N4  UNL     1      28.237   5.740  48.863  1.00  0.00    -0.386 N 
HETATM   24  H7  UNL     1      28.748   6.332  49.561  1.00  0.00     0.157 HD
HETATM   25  H8  UNL     1      28.870   5.326  48.137  1.00  0.00     0.157 HD
ENDBRANCH   1  23
TORSDOF 8
ENDMDL
MODEL 9
REMARK VINA RESULT:      -6.3      3.734      7.344
REMARK  8 active torsions:
REMARK  status: ('A' for Active; 'I' for Inactive)
REMARK    1  A    between atoms: C1_2  and  N2_3 
REMARK    2  A    between atoms: C4_7  and  C5_8 
REMARK    3  A    between atoms: C5_8  and  N4_9 
REMARK    4  A    between atoms: N5_10  and  C6_11 
REMARK    5  A    between atoms: C6_11  and  N6_12 
REMARK    6  A    between atoms: N6_12  and  C7_13 
REMARK    7  A    between atoms: C11_17  and  C12_18 
REMARK    8  A    between atoms: C12_18  and  C13_19 
ROOT
HETATM    1  C5  UNL     1      23.940   4.080  49.702  1.00  0.00     0.119 C 
HETATM    2  N5  UNL     1      25.119   4.330  50.150  1.00  0.00    -0.256 NA
ENDROOT
BRANCH   2   3
HETATM    3  C6  UNL     1      26.289   3.535  49.961  1.00  0.00     0.272 C 
BRANCH   3   4
HETATM    4  N6  UNL     1      26.903   3.138  51.220  1.00  0.00    -0.372 N 
HETATM    5  H11 UNL     1      27.643   3.794  51.608  1.00  0.00     0.161 HD
BRANCH   4   6
HETATM    6  C7  UNL     1      26.632   1.978  51.991  1.00  0.00     0.029 A 
HETATM    7  C8  UNL     1      25.411   1.321  51.965  1.00  0.00     0.029 A 
HETATM    8  C9  UNL     1      25.256   0.203  52.754  1.00  0.00     0.003 A 
HETATM    9  C10 UNL     1      26.274  -0.268  53.555  1.00  0.00     0.007 A 
HETATM   10  C11 UNL     1      27.476   0.413  53.554  1.00  0.00    -0.054 A 
HETATM   11  C14 UNL     1      27.675   1.543  52.774  1.00  0.00     0.036 A 
BRANCH  10  12
HETATM   12  C12 UNL     1      28.535  -0.144  54.438  1.00  0.00     0.070 C 
BRANCH  12  13
HETATM   13  C13 UNL     1      29.846  -0.056  53.693  1.00  0.00     0.226 C 
HETATM   14  F1  UNL     1      29.967  -1.191  52.901  1.00  0.00    -0.255 F 
ENDBRANCH  12  13
ENDBRANCH  10  12
ENDBRANCH   4   6
ENDBRANCH   3   4
ENDBRANCH   2   3
BRANCH   1  15
HETATM   15  C4  UNL     1      22.796   4.983  49.964  1.00  0.00     0.180 C 
HETATM   16  N2  UNL     1      23.293   6.362  49.927  1.00  0.00    -0.323 N 
HETATM   17  C2  UNL     1      23.318   6.647  48.514  1.00  0.00     0.204 C 
HETATM   18  N3  UNL     1      22.476   5.890  47.878  1.00  0.00    -0.282 NA
HETATM   19  C3  UNL     1      21.802   5.018  48.820  1.00  0.00     0.183 C 
BRANCH  16  20
HETATM   20  C1  UNL     1      23.709   7.368  50.861  1.00  0.00     0.201 C 
HETATM   21  N1  UNL     1      24.436   7.018  51.891  1.00  0.00    -0.295 NA
HETATM   22  H1  UNL     1      24.780   7.665  52.610  1.00  0.00     0.187 HD
ENDBRANCH  16  20
ENDBRANCH   1  15
BRANCH   1  23
HETATM   23  N4  UNL     1      23.396   3.014  48.915  1.00  0.00    -0.386 N 
HETATM   24  H7  UNL     1      22.523   2.475  49.126  1.00  0.00     0.157 HD
HETATM   25  H8  UNL     1      23.870   2.697  48.035  1.00  0.00     0.157 HD
ENDBRANCH   1  23
TORSDOF 8
ENDMDL
