MODEL 1
REMARK VINA RESULT:      -8.2      0.000      0.000
REMARK  8 active torsions:
REMARK  status: ('A' for Active; 'I' for Inactive)
REMARK    1  A    between atoms: C4_4  and  N1_5 
REMARK    2  A    between atoms: C5_6  and  C7_10 
REMARK    3  A    between atoms: C7_10  and  C8_11 
REMARK    4  A    between atoms: C10_13  and  O1_14 
REMARK    5  A    between atoms: O1_14  and  C11_15 
REMARK    6  A    between atoms: C11_15  and  C12_16 
REMARK    7  A    between atoms: C12_16  and  C13_17 
REMARK    8  A    between atoms: C13_17  and  N4_18 
ROOT
HETATM    1  N1  UNL     1      25.567   2.973  51.720  1.00  0.00    -0.013 N 
HETATM    2  C5  UNL     1      25.840   3.906  50.141  1.00  0.00     0.202 A 
HETATM    3  N2  UNL     1      26.495   4.622  49.537  1.00  0.00     0.000 N 
HETATM    4  C6  UNL     1      26.939   5.676  49.098  1.00  0.00     0.134 A 
HETATM    5  N3  UNL     1      27.426   4.370  48.739  1.00  0.00    -0.217 NA
HETATM    6  C7  UNL     1      26.700   3.396  49.407  1.00  0.00     0.157 A 
HETATM    7  C8  UNL     1      25.379   3.374  50.568  1.00  0.00     0.202 A 
HETATM    8  C9  UNL     1      25.226   5.064  50.307  1.00  0.00     0.123 A 
HETATM    9  C10 UNL     1      25.689   6.211  49.773  1.00  0.00     0.063 A 
HETATM   10  H5  UNL     1      25.011   2.865  52.671  1.00  0.00     0.289 HD
ENDROOT
BRANCH   9  11
HETATM   11  O1  UNL     1      26.226   7.403  49.182  1.00  0.00    -0.357 OA
BRANCH  11  12
HETATM   12  C11 UNL     1      26.168   8.556  50.016  1.00  0.00     0.176 C 
BRANCH  12  13
HETATM   13  C12 UNL     1      27.449   9.271  50.202  1.00  0.00     0.046 C 
BRANCH  13  14
HETATM   14  C13 UNL     1      28.241   9.323  48.933  1.00  0.00     0.119 C 
BRANCH  14  15
HETATM   15  N4  UNL     1      29.588   8.925  49.107  1.00  0.00    -0.408 N 
HETATM   16  C14 UNL     1      30.547   9.991  48.971  1.00  0.00     0.143 C 
HETATM   17  C15 UNL     1      31.730   9.497  48.174  1.00  0.00     0.187 C 
HETATM   18  O2  UNL     1      32.348   8.378  48.689  1.00  0.00    -0.388 OA
HETATM   19  C16 UNL     1      31.460   7.488  49.318  1.00  0.00     0.187 C 
HETATM   20  C17 UNL     1      30.056   7.671  48.687  1.00  0.00     0.143 C 
ENDBRANCH  14  15
ENDBRANCH  13  14
ENDBRANCH  12  13
ENDBRANCH  11  12
ENDBRANCH   9  11
BRANCH   1  21
HETATM   21  C4  UNL     1      26.348   1.793  52.232  1.00  0.00     0.137 A 
HETATM   22  C3  UNL     1      26.164   0.477  52.126  1.00  0.00     0.045 A 
HETATM   23  C2  UNL     1      27.172  -0.280  52.648  1.00  0.00    -0.038 A 
HETATM   24  C1  UNL     1      26.863  -1.723  52.487  1.00  0.00     0.050 C 
HETATM   25  C20 UNL     1      28.298   0.218  53.245  1.00  0.00     0.040 A 
HETATM   26  C19 UNL     1      28.457   1.564  53.336  1.00  0.00     0.026 A 
HETATM   27 CL1  UNL     1      29.444  -0.964  53.842  1.00  0.00    -0.084 Cl
HETATM   28  C18 UNL     1      27.477   2.396  52.831  1.00  0.00     0.039 A 
ENDBRANCH   1  21
TORSDOF 8
ENDMDL
MODEL 2
REMARK VINA RESULT:      -8.0      6.562      8.948
REMARK  8 active torsions:
REMARK  status: ('A' for Active; 'I' for Inactive)
REMARK    1  A    between atoms: C4_4  and  N1_5 
REMARK    2  A    between atoms: C5_6  and  C7_10 
REMARK    3  A    between atoms: C7_10  and  C8_11 
REMARK    4  A    between atoms: C10_13  and  O1_14 
REMARK    5  A    between atoms: O1_14  and  C11_15 
REMARK    6  A    between atoms: C11_15  and  C12_16 
REMARK    7  A    between atoms: C12_16  and  C13_17 
REMARK    8  A    between atoms: C13_17  and  N4_18 
ROOT
HETATM    1  N1  UNL     1      24.333   0.267  52.883  1.00  0.00    -0.013 N 
HETATM    2  C5  UNL     1      22.869  -0.159  53.938  1.00  0.00     0.202 A 
HETATM    3  N2  UNL     1      22.116  -0.947  54.281  1.00  0.00     0.000 N 
HETATM    4  C6  UNL     1      21.100  -1.631  54.298  1.00  0.00     0.134 A 
HETATM    5  N3  UNL     1      22.172  -1.733  55.253  1.00  0.00    -0.217 NA
HETATM    6  C7  UNL     1      23.162  -0.812  54.951  1.00  0.00     0.157 A 
HETATM    7  C8  UNL     1      23.424   0.404  53.707  1.00  0.00     0.202 A 
HETATM    8  C9  UNL     1      21.811   0.117  53.197  1.00  0.00     0.123 A 
HETATM    9  C10 UNL     1      20.675  -0.604  53.263  1.00  0.00     0.063 A 
HETATM   10  H5  UNL     1      24.738   0.780  51.990  1.00  0.00     0.289 HD
ENDROOT
BRANCH   9  11
HETATM   11  O1  UNL     1      19.489  -1.406  53.372  1.00  0.00    -0.357 OA
BRANCH  11  12
HETATM   12  C11 UNL     1      18.315  -0.805  52.835  1.00  0.00     0.176 C 
BRANCH  12  13
HETATM   13  C12 UNL     1      18.471  -0.188  51.501  1.00  0.00     0.046 C 
BRANCH  13  14
HETATM   14  C13 UNL     1      18.015   1.237  51.496  1.00  0.00     0.119 C 
BRANCH  14  15
HETATM   15  N4  UNL     1      19.003   2.131  51.018  1.00  0.00    -0.408 N 
HETATM   16  C14 UNL     1      19.771   1.631  49.907  1.00  0.00     0.143 C 
HETATM   17  C15 UNL     1      21.225   1.981  50.111  1.00  0.00     0.187 C 
HETATM   18  O2  UNL     1      21.478   3.325  50.284  1.00  0.00    -0.388 OA
HETATM   19  C16 UNL     1      20.455   4.003  50.968  1.00  0.00     0.187 C 
HETATM   20  C17 UNL     1      19.713   2.985  51.873  1.00  0.00     0.143 C 
ENDBRANCH  14  15
ENDBRANCH  13  14
ENDBRANCH  12  13
ENDBRANCH  11  12
ENDBRANCH   9  11
BRANCH   1  21
HETATM   21  C4  UNL     1      25.753  -0.199  53.058  1.00  0.00     0.137 A 
HETATM   22  C3  UNL     1      26.348  -1.373  52.849  1.00  0.00     0.045 A 
HETATM   23  C2  UNL     1      27.701  -1.363  53.026  1.00  0.00    -0.038 A 
HETATM   24  C1  UNL     1      28.258  -2.717  52.780  1.00  0.00     0.050 C 
HETATM   25  C20 UNL     1      28.435  -0.269  53.393  1.00  0.00     0.040 A 
HETATM   26  C19 UNL     1      27.800   0.914  53.597  1.00  0.00     0.026 A 
HETATM   27 CL1  UNL     1      30.160  -0.517  53.562  1.00  0.00    -0.084 Cl
HETATM   28  C18 UNL     1      26.430   0.982  53.437  1.00  0.00     0.039 A 
ENDBRANCH   1  21
TORSDOF 8
ENDMDL
MODEL 3
REMARK VINA RESULT:      -8.0      3.980      8.123
REMARK  8 active torsions:
REMARK  status: ('A' for Active; 'I' for Inactive)
REMARK    1  A    between atoms: C4_4  and  N1_5 
REMARK    2  A    between atoms: C5_6  and  C7_10 
REMARK    3  A    between atoms: C7_10  and  C8_11 
REMARK    4  A    between atoms: C10_13  and  O1_14 
REMARK    5  A    between atoms: O1_14  and  C11_15 
REMARK    6  A    between atoms: C11_15  and  C12_16 
REMARK    7  A    between atoms: C12_16  and  C13_17 
REMARK    8  A    between atoms: C13_17  and  N4_18 
ROOT
HETATM    1  N1  UNL     1      27.031   4.242  49.683  1.00  0.00    -0.013 N 
HETATM    2  C5  UNL     1      25.502   3.274  50.081  1.00  0.00     0.202 A 
HETATM    3  N2  UNL     1      24.495   3.227  50.620  1.00  0.00     0.000 N 
HETATM    4  C6  UNL     1      23.681   3.023  51.513  1.00  0.00     0.134 A 
HETATM    5  N3  UNL     1      23.355   3.538  50.209  1.00  0.00    -0.217 NA
HETATM    6  C7  UNL     1      24.504   3.638  49.440  1.00  0.00     0.157 A 
HETATM    7  C8  UNL     1      26.217   3.315  49.676  1.00  0.00     0.202 A 
HETATM    8  C9  UNL     1      25.794   2.588  51.171  1.00  0.00     0.123 A 
HETATM    9  C10 UNL     1      24.880   2.318  52.123  1.00  0.00     0.063 A 
HETATM   10  H5  UNL     1      28.116   4.404  49.837  1.00  0.00     0.289 HD
ENDROOT
BRANCH   9  11
HETATM   11  O1  UNL     1      23.866   2.059  53.106  1.00  0.00    -0.357 OA
BRANCH  11  12
HETATM   12  C11 UNL     1      23.114   0.871  52.883  1.00  0.00     0.176 C 
BRANCH  12  13
HETATM   13  C12 UNL     1      23.884  -0.389  52.940  1.00  0.00     0.046 C 
BRANCH  13  14
HETATM   14  C13 UNL     1      24.639  -0.517  54.226  1.00  0.00     0.119 C 
BRANCH  14  15
HETATM   15  N4  UNL     1      26.041  -0.566  54.040  1.00  0.00    -0.408 N 
HETATM   16  C14 UNL     1      26.776   0.431  54.775  1.00  0.00     0.143 C 
HETATM   17  C15 UNL     1      27.857   1.004  53.892  1.00  0.00     0.187 C 
HETATM   18  O2  UNL     1      28.730   0.074  53.369  1.00  0.00    -0.388 OA
HETATM   19  C16 UNL     1      28.126  -1.163  53.085  1.00  0.00     0.187 C 
HETATM   20  C17 UNL     1      26.619  -0.920  52.812  1.00  0.00     0.143 C 
ENDBRANCH  14  15
ENDBRANCH  13  14
ENDBRANCH  12  13
ENDBRANCH  11  12
ENDBRANCH   9  11
BRANCH   1  21
HETATM   21  C4  UNL     1      27.141   5.458  48.803  1.00  0.00     0.137 A 
HETATM   22  C3  UNL     1      26.279   6.427  48.492  1.00  0.00     0.045 A 
HETATM   23  C2  UNL     1      26.804   7.430  47.732  1.00  0.00    -0.038 A 
HETATM   24  C1  UNL     1      25.762   8.445  47.437  1.00  0.00     0.050 C 
HETATM   25  C20 UNL     1      28.098   7.486  47.293  1.00  0.00     0.040 A 
HETATM   26  C19 UNL     1      28.953   6.485  47.627  1.00  0.00     0.026 A 
HETATM   27 CL1  UNL     1      28.526   8.880  46.323  1.00  0.00    -0.084 Cl
HETATM   28  C18 UNL     1      28.494   5.433  48.395  1.00  0.00     0.039 A 
ENDBRANCH   1  21
TORSDOF 8
ENDMDL
MODEL 4
REMARK VINA RESULT:      -7.9      2.899      4.287
REMARK  8 active torsions:
REMARK  status: ('A' for Active; 'I' for Inactive)
REMARK    1  A    between atoms: C4_4  and  N1_5 
REMARK    2  A    between atoms: C5_6  and  C7_10 
REMARK    3  A    between atoms: C7_10  and  C8_11 
REMARK    4  A    between atoms: C10_13  and  O1_14 
REMARK    5  A    between atoms: O1_14  and  C11_15 
REMARK    6  A    between atoms: C11_15  and  C12_16 
REMARK    7  A    between atoms: C12_16  and  C13_17 
REMARK    8  A    between atoms: C13_17  and  N4_18 
ROOT
HETATM    1  N1  UNL     1      25.587   2.816  53.273  1.00  0.00    -0.013 N 
HETATM    2  C5  UNL     1      23.806   2.880  52.762  1.00  0.00     0.202 A 
HETATM    3  N2  UNL     1      23.035   2.825  51.920  1.00  0.00     0.000 N 
HETATM    4  C6  UNL     1      22.299   3.195  51.013  1.00  0.00     0.134 A 
HETATM    5  N3  UNL     1      22.409   1.837  51.476  1.00  0.00    -0.217 NA
HETATM    6  C7  UNL     1      23.321   1.765  52.517  1.00  0.00     0.157 A 
HETATM    7  C8  UNL     1      24.360   2.899  53.371  1.00  0.00     0.202 A 
HETATM    8  C9  UNL     1      23.555   4.155  52.521  1.00  0.00     0.123 A 
HETATM    9  C10 UNL     1      22.701   4.554  51.560  1.00  0.00     0.063 A 
HETATM   10  H5  UNL     1      26.493   3.354  53.614  1.00  0.00     0.289 HD
ENDROOT
BRANCH   9  11
HETATM   11  O1  UNL     1      21.780   4.924  50.522  1.00  0.00    -0.357 OA
BRANCH  11  12
HETATM   12  C11 UNL     1      22.032   6.196  49.932  1.00  0.00     0.176 C 
BRANCH  12  13
HETATM   13  C12 UNL     1      22.923   6.185  48.753  1.00  0.00     0.046 C 
BRANCH  13  14
HETATM   14  C13 UNL     1      24.234   6.845  49.045  1.00  0.00     0.119 C 
BRANCH  14  15
HETATM   15  N4  UNL     1      25.341   5.988  48.840  1.00  0.00    -0.408 N 
HETATM   16  C14 UNL     1      25.069   4.595  49.079  1.00  0.00     0.143 C 
HETATM   17  C15 UNL     1      26.226   3.983  49.830  1.00  0.00     0.187 C 
HETATM   18  O2  UNL     1      27.452   4.119  49.214  1.00  0.00    -0.388 OA
HETATM   19  C16 UNL     1      27.590   5.322  48.502  1.00  0.00     0.187 C 
HETATM   20  C17 UNL     1      26.654   6.379  49.142  1.00  0.00     0.143 C 
ENDBRANCH  14  15
ENDBRANCH  13  14
ENDBRANCH  12  13
ENDBRANCH  11  12
ENDBRANCH   9  11
BRANCH   1  21
HETATM   21  C4  UNL     1      26.493   1.616  53.284  1.00  0.00     0.137 A 
HETATM   22  C3  UNL     1      26.294   0.333  52.979  1.00  0.00     0.045 A 
HETATM   23  C2  UNL     1      27.417  -0.440  53.015  1.00  0.00    -0.038 A 
HETATM   24  C1  UNL     1      27.082  -1.844  52.671  1.00  0.00     0.050 C 
HETATM   25  C20 UNL     1      28.668   0.011  53.337  1.00  0.00     0.040 A 
HETATM   26  C19 UNL     1      28.840   1.323  53.641  1.00  0.00     0.026 A 
HETATM   27 CL1  UNL     1      29.948  -1.184  53.317  1.00  0.00    -0.084 Cl
HETATM   28  C18 UNL     1      27.748   2.168  53.627  1.00  0.00     0.039 A 
ENDBRANCH   1  21
TORSDOF 8
ENDMDL
MODEL 5
REMARK VINA RESULT:      -7.9      1.375      1.787
REMARK  8 active torsions:
REMARK  status: ('A' for Active; 'I' for Inactive)
REMARK    1  A    between atoms: C4_4  and  N1_5 
REMARK    2  A    between atoms: C5_6  and  C7_10 
REMARK    3  A    between atoms: C7_10  and  C8_11 
REMARK    4  A    between atoms: C10_13  and  O1_14 
REMARK    5  A    between atoms: O1_14  and  C11_15 
REMARK    6  A    between atoms: C11_15  and  C12_16 
REMARK    7  A    between atoms: C12_16  and  C13_17 
REMARK    8  A    between atoms: C13_17  and  N4_18 
ROOT
HETATM    1  N1  UNL     1      25.568   2.982  51.642  1.00  0.00    -0.013 N 
HETATM    2  C5  UNL     1      25.876   3.907  50.066  1.00  0.00     0.202 A 
HETATM    3  N2  UNL     1      26.546   4.617  49.472  1.00  0.00     0.000 N 
HETATM    4  C6  UNL     1      27.003   5.668  49.037  1.00  0.00     0.134 A 
HETATM    5  N3  UNL     1      27.491   4.358  48.694  1.00  0.00    -0.217 NA
HETATM    6  C7  UNL     1      26.748   3.390  49.351  1.00  0.00     0.157 A 
HETATM    7  C8  UNL     1      25.404   3.379  50.486  1.00  0.00     0.202 A 
HETATM    8  C9  UNL     1      25.263   5.068  50.214  1.00  0.00     0.123 A 
HETATM    9  C10 UNL     1      25.741   6.211  49.684  1.00  0.00     0.063 A 
HETATM   10  H5  UNL     1      24.992   2.881  52.583  1.00  0.00     0.289 HD
ENDROOT
BRANCH   9  11
HETATM   11  O1  UNL     1      26.295   7.399  49.099  1.00  0.00    -0.357 OA
BRANCH  11  12
HETATM   12  C11 UNL     1      26.110   8.581  49.870  1.00  0.00     0.176 C 
BRANCH  12  13
HETATM   13  C12 UNL     1      27.350   9.230  50.344  1.00  0.00     0.046 C 
BRANCH  13  14
HETATM   14  C13 UNL     1      28.404   9.250  49.282  1.00  0.00     0.119 C 
BRANCH  14  15
HETATM   15  N4  UNL     1      29.015  10.518  49.135  1.00  0.00    -0.408 N 
HETATM   16  C14 UNL     1      28.137  11.550  48.648  1.00  0.00     0.143 C 
HETATM   17  C15 UNL     1      28.866  12.381  47.621  1.00  0.00     0.187 C 
HETATM   18  O2  UNL     1      30.045  12.944  48.064  1.00  0.00    -0.388 OA
HETATM   19  C16 UNL     1      30.736  12.141  48.987  1.00  0.00     0.187 C 
HETATM   20  C17 UNL     1      30.351  10.661  48.732  1.00  0.00     0.143 C 
ENDBRANCH  14  15
ENDBRANCH  13  14
ENDBRANCH  12  13
ENDBRANCH  11  12
ENDBRANCH   9  11
BRANCH   1  21
HETATM   21  C4  UNL     1      26.333   1.802  52.175  1.00  0.00     0.137 A 
HETATM   22  C3  UNL     1      26.146   0.486  52.073  1.00  0.00     0.045 A 
HETATM   23  C2  UNL     1      27.141  -0.272  52.617  1.00  0.00    -0.038 A 
HETATM   24  C1  UNL     1      26.828  -1.715  52.459  1.00  0.00     0.050 C 
HETATM   25  C20 UNL     1      28.257   0.224  53.234  1.00  0.00     0.040 A 
HETATM   26  C19 UNL     1      28.420   1.569  53.320  1.00  0.00     0.026 A 
HETATM   27 CL1  UNL     1      29.386  -0.960  53.858  1.00  0.00    -0.084 Cl
HETATM   28  C18 UNL     1      27.454   2.403  52.792  1.00  0.00     0.039 A 
ENDBRANCH   1  21
TORSDOF 8
ENDMDL
MODEL 6
REMARK VINA RESULT:      -7.6      4.789      9.133
REMARK  8 active torsions:
REMARK  status: ('A' for Active; 'I' for Inactive)
REMARK    1  A    between atoms: C4_4  and  N1_5 
REMARK    2  A    between atoms: C5_6  and  C7_10 
REMARK    3  A    between atoms: C7_10  and  C8_11 
REMARK    4  A    between atoms: C10_13  and  O1_14 
REMARK    5  A    between atoms: O1_14  and  C11_15 
REMARK    6  A    between atoms: C11_15  and  C12_16 
REMARK    7  A    between atoms: C12_16  and  C13_17 
REMARK    8  A    between atoms: C13_17  and  N4_18 
ROOT
HETATM    1  N1  UNL     1      24.541   3.216  49.742  1.00  0.00    -0.013 N 
HETATM    2  C5  UNL     1      24.133   2.689  51.472  1.00  0.00     0.202 A 
HETATM    3  N2  UNL     1      24.472   2.179  52.437  1.00  0.00     0.000 N 
HETATM    4  C6  UNL     1      24.676   1.288  53.253  1.00  0.00     0.134 A 
HETATM    5  N3  UNL     1      25.011   2.673  53.453  1.00  0.00    -0.217 NA
HETATM    6  C7  UNL     1      24.639   3.414  52.343  1.00  0.00     0.157 A 
HETATM    7  C8  UNL     1      23.896   3.075  50.785  1.00  0.00     0.202 A 
HETATM    8  C9  UNL     1      23.607   1.483  51.357  1.00  0.00     0.123 A 
HETATM    9  C10 UNL     1      23.787   0.524  52.286  1.00  0.00     0.063 A 
HETATM   10  H5  UNL     1      24.416   3.064  48.653  1.00  0.00     0.289 HD
ENDROOT
BRANCH   9  11
HETATM   11  O1  UNL     1      24.011  -0.461  53.306  1.00  0.00    -0.357 OA
BRANCH  11  12
HETATM   12  C11 UNL     1      22.924  -0.636  54.209  1.00  0.00     0.176 C 
BRANCH  12  13
HETATM   13  C12 UNL     1      21.591  -0.757  53.583  1.00  0.00     0.046 C 
BRANCH  13  14
HETATM   14  C13 UNL     1      20.662   0.320  54.049  1.00  0.00     0.119 C 
BRANCH  14  15
HETATM   15  N4  UNL     1      20.034   1.006  52.983  1.00  0.00    -0.408 N 
HETATM   16  C14 UNL     1      19.727   0.182  51.842  1.00  0.00     0.143 C 
HETATM   17  C15 UNL     1      20.066   0.936  50.579  1.00  0.00     0.187 C 
HETATM   18  O2  UNL     1      19.443   2.159  50.450  1.00  0.00    -0.388 OA
HETATM   19  C16 UNL     1      19.254   2.822  51.675  1.00  0.00     0.187 C 
HETATM   20  C17 UNL     1      20.342   2.337  52.667  1.00  0.00     0.143 C 
ENDBRANCH  14  15
ENDBRANCH  13  14
ENDBRANCH  12  13
ENDBRANCH  11  12
ENDBRANCH   9  11
BRANCH   1  21
HETATM   21  C4  UNL     1      25.491   4.302  49.316  1.00  0.00     0.137 A 
HETATM   22  C3  UNL     1      26.807   4.314  49.103  1.00  0.00     0.045 A 
HETATM   23  C2  UNL     1      27.291   5.491  48.612  1.00  0.00    -0.038 A 
HETATM   24  C1  UNL     1      28.760   5.400  48.422  1.00  0.00     0.050 C 
HETATM   25  C20 UNL     1      26.534   6.600  48.347  1.00  0.00     0.040 A 
HETATM   26  C19 UNL     1      25.196   6.555  48.573  1.00  0.00     0.026 A 
HETATM   27 CL1  UNL     1      27.395   7.993  47.726  1.00  0.00    -0.084 Cl
HETATM   28  C18 UNL     1      24.633   5.397  49.071  1.00  0.00     0.039 A 
ENDBRANCH   1  21
TORSDOF 8
ENDMDL
MODEL 7
REMARK VINA RESULT:      -7.5      3.722      8.624
REMARK  8 active torsions:
REMARK  status: ('A' for Active; 'I' for Inactive)
REMARK    1  A    between atoms: C4_4  and  N1_5 
REMARK    2  A    between atoms: C5_6  and  C7_10 
REMARK    3  A    between atoms: C7_10  and  C8_11 
REMARK    4  A    between atoms: C10_13  and  O1_14 
REMARK    5  A    between atoms: O1_14  and  C11_15 
REMARK    6  A    between atoms: C11_15  and  C12_16 
REMARK    7  A    between atoms: C12_16  and  C13_17 
REMARK    8  A    between atoms: C13_17  and  N4_18 
ROOT
HETATM    1  N1  UNL     1      29.583   6.665  48.485  1.00  0.00    -0.013 N 
HETATM    2  C5  UNL     1      27.804   6.217  48.222  1.00  0.00     0.202 A 
HETATM    3  N2  UNL     1      26.720   6.297  48.576  1.00  0.00     0.000 N 
HETATM    4  C6  UNL     1      25.688   6.029  49.179  1.00  0.00     0.134 A 
HETATM    5  N3  UNL     1      25.838   7.129  48.263  1.00  0.00    -0.217 NA
HETATM    6  C7  UNL     1      27.125   7.142  47.748  1.00  0.00     0.157 A 
HETATM    7  C8  UNL     1      28.582   6.177  47.956  1.00  0.00     0.202 A 
HETATM    8  C9  UNL     1      27.629   5.078  48.867  1.00  0.00     0.123 A 
HETATM    9  C10 UNL     1      26.472   4.764  49.480  1.00  0.00     0.063 A 
HETATM   10  H5  UNL     1      30.600   6.358  48.798  1.00  0.00     0.289 HD
ENDROOT
BRANCH   9  11
HETATM   11  O1  UNL     1      25.217   4.480  50.116  1.00  0.00    -0.357 OA
BRANCH  11  12
HETATM   12  C11 UNL     1      25.068   3.135  50.561  1.00  0.00     0.176 C 
BRANCH  12  13
HETATM   13  C12 UNL     1      26.317   2.463  50.979  1.00  0.00     0.046 C 
BRANCH  13  14
HETATM   14  C13 UNL     1      26.273   2.064  52.421  1.00  0.00     0.119 C 
BRANCH  14  15
HETATM   15  N4  UNL     1      27.079   0.936  52.706  1.00  0.00    -0.408 N 
HETATM   16  C14 UNL     1      26.708  -0.258  51.991  1.00  0.00     0.143 C 
HETATM   17  C15 UNL     1      26.773  -1.439  52.928  1.00  0.00     0.187 C 
HETATM   18  O2  UNL     1      27.993  -1.625  53.542  1.00  0.00    -0.388 OA
HETATM   19  C16 UNL     1      28.666  -0.424  53.824  1.00  0.00     0.187 C 
HETATM   20  C17 UNL     1      27.611   0.702  53.982  1.00  0.00     0.143 C 
ENDBRANCH  14  15
ENDBRANCH  13  14
ENDBRANCH  12  13
ENDBRANCH  11  12
ENDBRANCH   9  11
BRANCH   1  21
HETATM   21  C4  UNL     1      30.221   8.018  48.318  1.00  0.00     0.137 A 
HETATM   22  C3  UNL     1      30.017   9.191  48.918  1.00  0.00     0.045 A 
HETATM   23  C2  UNL     1      30.890  10.173  48.555  1.00  0.00    -0.038 A 
HETATM   24  C1  UNL     1      30.569  11.433  49.271  1.00  0.00     0.050 C 
HETATM   25  C20 UNL     1      31.906  10.024  47.650  1.00  0.00     0.040 A 
HETATM   26  C19 UNL     1      32.089   8.816  47.057  1.00  0.00     0.026 A 
HETATM   27 CL1  UNL     1      32.887  11.442  47.349  1.00  0.00    -0.084 Cl
HETATM   28  C18 UNL     1      31.243   7.772  47.374  1.00  0.00     0.039 A 
ENDBRANCH   1  21
TORSDOF 8
ENDMDL
MODEL 8
REMARK VINA RESULT:      -7.4      3.432      4.236
REMARK  8 active torsions:
REMARK  status: ('A' for Active; 'I' for Inactive)
REMARK    1  A    between atoms: C4_4  and  N1_5 
REMARK    2  A    between atoms: C5_6  and  C7_10 
REMARK    3  A    between atoms: C7_10  and  C8_11 
REMARK    4  A    between atoms: C10_13  and  O1_14 
REMARK    5  A    between atoms: O1_14  and  C11_15 
REMARK    6  A    between atoms: C11_15  and  C12_16 
REMARK    7  A    between atoms: C12_16  and  C13_17 
REMARK    8  A    between atoms: C13_17  and  N4_18 
ROOT
HETATM    1  N1  UNL     1      24.158   1.590  51.315  1.00  0.00    -0.013 N 
HETATM    2  C5  UNL     1      24.574   3.396  51.370  1.00  0.00     0.202 A 
HETATM    3  N2  UNL     1      24.305   4.464  51.064  1.00  0.00     0.000 N 
HETATM    4  C6  UNL     1      24.266   5.489  50.395  1.00  0.00     0.134 A 
HETATM    5  N3  UNL     1      23.608   5.314  51.663  1.00  0.00    -0.217 NA
HETATM    6  C7  UNL     1      23.864   4.043  52.155  1.00  0.00     0.157 A 
HETATM    7  C8  UNL     1      24.756   2.629  51.608  1.00  0.00     0.202 A 
HETATM    8  C9  UNL     1      25.370   3.605  50.338  1.00  0.00     0.123 A 
HETATM    9  C10 UNL     1      25.362   4.758  49.640  1.00  0.00     0.063 A 
HETATM   10  H5  UNL     1      24.379   0.580  50.917  1.00  0.00     0.289 HD
ENDROOT
BRANCH   9  11
HETATM   11  O1  UNL     1      25.312   6.005  48.932  1.00  0.00    -0.357 OA
BRANCH  11  12
HETATM   12  C11 UNL     1      26.556   6.695  48.859  1.00  0.00     0.176 C 
BRANCH  12  13
HETATM   13  C12 UNL     1      27.711   5.879  48.430  1.00  0.00     0.046 C 
BRANCH  13  14
HETATM   14  C13 UNL     1      28.758   6.712  47.760  1.00  0.00     0.119 C 
BRANCH  14  15
HETATM   15  N4  UNL     1      30.010   6.660  48.418  1.00  0.00    -0.408 N 
HETATM   16  C14 UNL     1      30.552   7.947  48.770  1.00  0.00     0.143 C 
HETATM   17  C15 UNL     1      32.031   7.962  48.468  1.00  0.00     0.187 C 
HETATM   18  O2  UNL     1      32.758   6.966  49.085  1.00  0.00    -0.388 OA
HETATM   19  C16 UNL     1      32.048   5.762  49.227  1.00  0.00     0.187 C 
HETATM   20  C17 UNL     1      30.976   5.692  48.109  1.00  0.00     0.143 C 
ENDBRANCH  14  15
ENDBRANCH  13  14
ENDBRANCH  12  13
ENDBRANCH  11  12
ENDBRANCH   9  11
BRANCH   1  21
HETATM   21  C4  UNL     1      23.009   0.894  51.992  1.00  0.00     0.137 A 
HETATM   22  C3  UNL     1      22.859   0.385  53.215  1.00  0.00     0.045 A 
HETATM   23  C2  UNL     1      21.604  -0.075  53.487  1.00  0.00    -0.038 A 
HETATM   24  C1  UNL     1      21.549  -0.627  54.864  1.00  0.00     0.050 C 
HETATM   25  C20 UNL     1      20.552  -0.048  52.612  1.00  0.00     0.040 A 
HETATM   26  C19 UNL     1      20.737   0.478  51.374  1.00  0.00     0.026 A 
HETATM   27 CL1  UNL     1      19.041  -0.708  53.199  1.00  0.00    -0.084 Cl
HETATM   28  C18 UNL     1      21.981   0.965  51.025  1.00  0.00     0.039 A 
ENDBRANCH   1  21
TORSDOF 8
ENDMDL
MODEL 9
REMARK VINA RESULT:      -7.4      2.775      4.269
REMARK  8 active torsions:
REMARK  status: ('A' for Active; 'I' for Inactive)
REMARK    1  A    between atoms: C4_4  and  N1_5 
REMARK    2  A    between atoms: C5_6  and  C7_10 
REMARK    3  A    between atoms: C7_10  and  C8_11 
REMARK    4  A    between atoms: C10_13  and  O1_14 
REMARK    5  A    between atoms: O1_14  and  C11_15 
REMARK    6  A    between atoms: C11_15  and  C12_16 
REMARK    7  A    between atoms: C12_16  and  C13_17 
REMARK    8  A    between atoms: C13_17  and  N4_18 
ROOT
HETATM    1  N1  UNL     1      25.889   2.497  52.935  1.00  0.00    -0.013 N 
HETATM    2  C5  UNL     1      24.059   2.733  52.760  1.00  0.00     0.202 A 
HETATM    3  N2  UNL     1      23.126   2.639  52.107  1.00  0.00     0.000 N 
HETATM    4  C6  UNL     1      22.260   2.940  51.294  1.00  0.00     0.134 A 
HETATM    5  N3  UNL     1      22.314   1.691  52.008  1.00  0.00    -0.217 NA
HETATM    6  C7  UNL     1      23.412   1.678  52.854  1.00  0.00     0.157 A 
HETATM    7  C8  UNL     1      24.727   2.782  53.238  1.00  0.00     0.202 A 
HETATM    8  C9  UNL     1      23.905   3.963  52.303  1.00  0.00     0.123 A 
HETATM    9  C10 UNL     1      22.916   4.300  51.453  1.00  0.00     0.063 A 
HETATM   10  H5  UNL     1      26.901   2.944  52.980  1.00  0.00     0.289 HD
ENDROOT
BRANCH   9  11
HETATM   11  O1  UNL     1      21.844   4.604  50.549  1.00  0.00    -0.357 OA
BRANCH  11  12
HETATM   12  C11 UNL     1      22.058   4.173  49.208  1.00  0.00     0.176 C 
BRANCH  12  13
HETATM   13  C12 UNL     1      23.335   4.600  48.600  1.00  0.00     0.046 C 
BRANCH  13  14
HETATM   14  C13 UNL     1      23.488   6.089  48.625  1.00  0.00     0.119 C 
BRANCH  14  15
HETATM   15  N4  UNL     1      24.840   6.503  48.697  1.00  0.00    -0.408 N 
HETATM   16  C14 UNL     1      25.347   6.652  50.036  1.00  0.00     0.143 C 
HETATM   17  C15 UNL     1      26.180   7.908  50.116  1.00  0.00     0.187 C 
HETATM   18  O2  UNL     1      27.221   7.970  49.214  1.00  0.00    -0.388 OA
HETATM   19  C16 UNL     1      26.933   7.355  47.984  1.00  0.00     0.187 C 
HETATM   20  C17 UNL     1      25.398   7.391  47.766  1.00  0.00     0.143 C 
ENDBRANCH  14  15
ENDBRANCH  13  14
ENDBRANCH  12  13
ENDBRANCH  11  12
ENDBRANCH   9  11
BRANCH   1  21
HETATM   21  C4  UNL     1      26.638   1.196  53.035  1.00  0.00     0.137 A 
HETATM   22  C3  UNL     1      26.362  -0.038  52.612  1.00  0.00     0.045 A 
HETATM   23  C2  UNL     1      27.366  -0.942  52.807  1.00  0.00    -0.038 A 
HETATM   24  C1  UNL     1      26.952  -2.278  52.311  1.00  0.00     0.050 C 
HETATM   25  C20 UNL     1      28.572  -0.661  53.388  1.00  0.00     0.040 A 
HETATM   26  C19 UNL     1      28.823   0.606  53.807  1.00  0.00     0.026 A 
HETATM   27 CL1  UNL     1      29.692  -1.999  53.530  1.00  0.00    -0.084 Cl
HETATM   28  C18 UNL     1      27.855   1.577  53.645  1.00  0.00     0.039 A 
ENDBRANCH   1  21
TORSDOF 8
ENDMDL
