MODEL 1
REMARK VINA RESULT:      -9.7      0.000      0.000
REMARK  2 active torsions:
REMARK  status: ('A' for Active; 'I' for Inactive)
REMARK    1  A    between atoms: C2_2  and  C3_3 
REMARK    2  A    between atoms: N2_20  and  C17_21 
ROOT
HETATM    1  C3  UNL     1      22.134   5.448  49.871  1.00  0.00     0.130 C 
HETATM    2  C4  UNL     1      21.822   4.023  49.529  1.00  0.00     0.045 C 
HETATM    3  C5  UNL     1      22.004   2.687  49.313  1.00  0.00     0.127 C 
HETATM    4  F1  UNL     1      21.708   1.409  49.005  1.00  0.00    -0.205 F 
HETATM    5  C6  UNL     1      23.409   2.751  49.617  1.00  0.00     0.031 A 
HETATM    6  C7  UNL     1      24.626   3.260  49.329  1.00  0.00     0.049 A 
HETATM    7  C8  UNL     1      25.887   3.286  49.796  1.00  0.00     0.065 A 
HETATM    8  C9  UNL     1      26.202   2.612  50.949  1.00  0.00    -0.026 A 
HETATM    9  C10 UNL     1      24.926   2.235  51.005  1.00  0.00     0.040 A 
HETATM   10  C11 UNL     1      23.560   2.047  50.733  1.00  0.00     0.049 A 
HETATM   11  N1  UNL     1      23.066   1.166  51.705  1.00  0.00    -0.315 N 
HETATM   12  C12 UNL     1      22.556   0.256  52.709  1.00  0.00     0.301 C 
HETATM   13  O1  UNL     1      21.424   0.067  52.505  1.00  0.00    -0.258 OA
HETATM   14  C13 UNL     1      23.642  -0.029  53.522  1.00  0.00    -0.005 C 
HETATM   15  C14 UNL     1      24.549  -0.257  54.174  1.00  0.00    -0.095 C 
HETATM   16  C15 UNL     1      25.674  -0.518  54.964  1.00  0.00     0.114 C 
HETATM   17  C16 UNL     1      26.913   0.269  54.559  1.00  0.00     0.129 C 
HETATM   18  N2  UNL     1      27.465   0.073  53.291  1.00  0.00    -0.412 N 
HETATM   19  C19 UNL     1      26.972   0.701  52.149  1.00  0.00     0.121 C 
HETATM   20  C20 UNL     1      27.167   2.191  51.988  1.00  0.00     0.060 C 
HETATM   21  N3  UNL     1      27.081   3.945  49.393  1.00  0.00    -0.242 NA
HETATM   22  C21 UNL     1      26.839   5.226  49.093  1.00  0.00     0.234 C 
HETATM   23  N4  UNL     1      25.460   5.302  49.329  1.00  0.00    -0.237 NA
HETATM   24  C22 UNL     1      24.616   6.158  48.867  1.00  0.00     0.204 C 
HETATM   25  N5  UNL     1      23.218   6.073  49.219  1.00  0.00    -0.373 N 
HETATM   26  H8  UNL     1      22.177   1.324  51.178  1.00  0.00     0.170 HD
HETATM   27  H24 UNL     1      22.836   6.934  48.715  1.00  0.00     0.161 HD
ENDROOT
BRANCH   1  28
HETATM   28  C2  UNL     1      20.823   6.158  49.780  1.00  0.00    -0.008 C 
HETATM   29  C1  UNL     1      20.756   7.442  50.042  1.00  0.00     0.009 C 
ENDBRANCH   1  28
BRANCH  18  30
HETATM   30  C17 UNL     1      28.090  -1.208  53.083  1.00  0.00     0.112 C 
HETATM   31  C18 UNL     1      29.567  -1.001  53.458  1.00  0.00     0.026 C 
ENDBRANCH  18  30
TORSDOF 2
ENDMDL
MODEL 2
REMARK VINA RESULT:      -9.0      2.497      7.555
REMARK  2 active torsions:
REMARK  status: ('A' for Active; 'I' for Inactive)
REMARK    1  A    between atoms: C2_2  and  C3_3 
REMARK    2  A    between atoms: N2_20  and  C17_21 
ROOT
HETATM    1  C3  UNL     1      26.803   0.253  54.814  1.00  0.00     0.130 C 
HETATM    2  C4  UNL     1      26.949   0.200  53.324  1.00  0.00     0.045 C 
HETATM    3  C5  UNL     1      26.607   0.166  52.003  1.00  0.00     0.127 C 
HETATM    4  F1  UNL     1      26.754   0.119  50.664  1.00  0.00    -0.205 F 
HETATM    5  C6  UNL     1      25.197   0.197  52.288  1.00  0.00     0.031 A 
HETATM    6  C7  UNL     1      24.130  -0.382  52.879  1.00  0.00     0.049 A 
HETATM    7  C8  UNL     1      22.829  -0.160  53.140  1.00  0.00     0.065 A 
HETATM    8  C9  UNL     1      22.239   1.008  52.726  1.00  0.00    -0.026 A 
HETATM    9  C10 UNL     1      23.420   1.351  52.215  1.00  0.00     0.040 A 
HETATM   10  C11 UNL     1      24.768   1.364  51.819  1.00  0.00     0.049 A 
HETATM   11  N1  UNL     1      24.967   2.534  51.073  1.00  0.00    -0.315 N 
HETATM   12  C12 UNL     1      25.170   3.743  50.303  1.00  0.00     0.301 C 
HETATM   13  O1  UNL     1      26.280   3.778  49.946  1.00  0.00    -0.258 OA
HETATM   14  C13 UNL     1      23.940   4.381  50.301  1.00  0.00    -0.005 C 
HETATM   15  C14 UNL     1      22.917   4.886  50.303  1.00  0.00    -0.095 C 
HETATM   16  C15 UNL     1      21.656   5.490  50.325  1.00  0.00     0.114 C 
HETATM   17  C16 UNL     1      20.628   4.751  51.170  1.00  0.00     0.129 C 
HETATM   18  N2  UNL     1      20.260   3.450  50.817  1.00  0.00    -0.412 N 
HETATM   19  C19 UNL     1      21.014   2.333  51.167  1.00  0.00     0.121 C 
HETATM   20  C20 UNL     1      21.071   1.909  52.616  1.00  0.00     0.060 C 
HETATM   21  N3  UNL     1      21.824  -0.870  53.854  1.00  0.00    -0.242 NA
HETATM   22  C21 UNL     1      22.299  -1.317  55.022  1.00  0.00     0.234 C 
HETATM   23  N4  UNL     1      23.619  -0.851  54.974  1.00  0.00    -0.237 NA
HETATM   24  C22 UNL     1      24.643  -1.281  55.626  1.00  0.00     0.204 C 
HETATM   25  N5  UNL     1      25.940  -0.673  55.438  1.00  0.00    -0.373 N 
HETATM   26  H8  UNL     1      25.941   2.158  51.027  1.00  0.00     0.170 HD
HETATM   27  H24 UNL     1      26.521  -1.228  56.142  1.00  0.00     0.161 HD
ENDROOT
BRANCH   1  28
HETATM   28  C2  UNL     1      28.202   0.291  55.334  1.00  0.00    -0.008 C 
HETATM   29  C1  UNL     1      29.174   0.719  54.563  1.00  0.00     0.009 C 
ENDBRANCH   1  28
BRANCH  18  30
HETATM   30  C17 UNL     1      19.491   3.335  49.603  1.00  0.00     0.112 C 
HETATM   31  C18 UNL     1      20.223   2.275  48.764  1.00  0.00     0.026 C 
ENDBRANCH  18  30
TORSDOF 2
ENDMDL
MODEL 3
REMARK VINA RESULT:      -8.5      2.831      5.180
REMARK  2 active torsions:
REMARK  status: ('A' for Active; 'I' for Inactive)
REMARK    1  A    between atoms: C2_2  and  C3_3 
REMARK    2  A    between atoms: N2_20  and  C17_21 
ROOT
HETATM    1  C3  UNL     1      19.342   2.622  49.116  1.00  0.00     0.130 C 
HETATM    2  C4  UNL     1      20.060   3.660  49.923  1.00  0.00     0.045 C 
HETATM    3  C5  UNL     1      20.796   4.220  50.927  1.00  0.00     0.127 C 
HETATM    4  F1  UNL     1      21.439   5.164  51.642  1.00  0.00    -0.205 F 
HETATM    5  C6  UNL     1      20.935   2.970  51.627  1.00  0.00     0.031 A 
HETATM    6  C7  UNL     1      20.342   1.928  52.248  1.00  0.00     0.049 A 
HETATM    7  C8  UNL     1      20.631   0.733  52.795  1.00  0.00     0.065 A 
HETATM    8  C9  UNL     1      21.927   0.282  52.803  1.00  0.00    -0.026 A 
HETATM    9  C10 UNL     1      22.261   1.413  52.185  1.00  0.00     0.040 A 
HETATM   10  C11 UNL     1      22.228   2.675  51.567  1.00  0.00     0.049 A 
HETATM   11  N1  UNL     1      23.554   3.023  51.275  1.00  0.00    -0.315 N 
HETATM   12  C12 UNL     1      24.925   3.382  50.973  1.00  0.00     0.301 C 
HETATM   13  O1  UNL     1      24.935   4.434  50.470  1.00  0.00    -0.258 OA
HETATM   14  C13 UNL     1      25.684   2.310  51.415  1.00  0.00    -0.005 C 
HETATM   15  C14 UNL     1      26.291   1.422  51.793  1.00  0.00    -0.095 C 
HETATM   16  C15 UNL     1      27.016   0.319  52.257  1.00  0.00     0.114 C 
HETATM   17  C16 UNL     1      26.149  -0.814  52.789  1.00  0.00     0.129 C 
HETATM   18  N2  UNL     1      25.329  -0.588  53.896  1.00  0.00    -0.412 N 
HETATM   19  C19 UNL     1      24.078   0.017  53.797  1.00  0.00     0.121 C 
HETATM   20  C20 UNL     1      22.949  -0.736  53.133  1.00  0.00     0.060 C 
HETATM   21  N3  UNL     1      19.854  -0.308  53.372  1.00  0.00    -0.242 NA
HETATM   22  C21 UNL     1      18.776  -0.567  52.623  1.00  0.00     0.234 C 
HETATM   23  N4  UNL     1      18.940   0.359  51.584  1.00  0.00    -0.237 NA
HETATM   24  C22 UNL     1      18.048   0.829  50.784  1.00  0.00     0.204 C 
HETATM   25  N5  UNL     1      18.407   1.792  49.768  1.00  0.00    -0.373 N 
HETATM   26  H8  UNL     1      23.086   3.873  50.886  1.00  0.00     0.170 HD
HETATM   27  H24 UNL     1      17.466   1.922  49.280  1.00  0.00     0.161 HD
ENDROOT
BRANCH   1  28
HETATM   28  C2  UNL     1      18.836   3.354  47.916  1.00  0.00    -0.008 C 
HETATM   29  C1  UNL     1      19.565   3.405  46.826  1.00  0.00     0.009 C 
ENDBRANCH   1  28
BRANCH  18  30
HETATM   30  C17 UNL     1      26.021  -0.398  55.147  1.00  0.00     0.112 C 
HETATM   31  C18 UNL     1      25.051  -0.911  56.224  1.00  0.00     0.026 C 
ENDBRANCH  18  30
TORSDOF 2
ENDMDL
MODEL 4
REMARK VINA RESULT:      -8.4      2.913      6.998
REMARK  2 active torsions:
REMARK  status: ('A' for Active; 'I' for Inactive)
REMARK    1  A    between atoms: C2_2  and  C3_3 
REMARK    2  A    between atoms: N2_20  and  C17_21 
ROOT
HETATM    1  C3  UNL     1      26.352  -1.108  52.443  1.00  0.00     0.130 C 
HETATM    2  C4  UNL     1      25.555  -0.972  53.703  1.00  0.00     0.045 C 
HETATM    3  C5  UNL     1      24.638  -0.494  54.595  1.00  0.00     0.127 C 
HETATM    4  F1  UNL     1      23.927  -0.386  55.735  1.00  0.00    -0.205 F 
HETATM    5  C6  UNL     1      24.189   0.538  53.698  1.00  0.00     0.031 A 
HETATM    6  C7  UNL     1      24.483   1.635  52.969  1.00  0.00     0.049 A 
HETATM    7  C8  UNL     1      23.937   2.469  52.065  1.00  0.00     0.065 A 
HETATM    8  C9  UNL     1      22.648   2.267  51.642  1.00  0.00    -0.026 A 
HETATM    9  C10 UNL     1      22.609   1.215  52.457  1.00  0.00     0.040 A 
HETATM   10  C11 UNL     1      22.935   0.220  53.395  1.00  0.00     0.049 A 
HETATM   11  N1  UNL     1      21.779  -0.546  53.600  1.00  0.00    -0.315 N 
HETATM   12  C12 UNL     1      20.584  -1.336  53.811  1.00  0.00     0.301 C 
HETATM   13  O1  UNL     1      20.817  -2.166  54.597  1.00  0.00    -0.258 OA
HETATM   14  C13 UNL     1      19.629  -0.774  52.979  1.00  0.00    -0.005 C 
HETATM   15  C14 UNL     1      18.854  -0.293  52.294  1.00  0.00    -0.095 C 
HETATM   16  C15 UNL     1      17.923   0.309  51.442  1.00  0.00     0.114 C 
HETATM   17  C16 UNL     1      18.495   1.439  50.596  1.00  0.00     0.129 C 
HETATM   18  N2  UNL     1      19.006   2.575  51.227  1.00  0.00    -0.412 N 
HETATM   19  C19 UNL     1      20.293   2.628  51.757  1.00  0.00     0.121 C 
HETATM   20  C20 UNL     1      21.476   2.635  50.817  1.00  0.00     0.060 C 
HETATM   21  N3  UNL     1      24.421   3.581  51.321  1.00  0.00    -0.242 NA
HETATM   22  C21 UNL     1      25.627   3.318  50.807  1.00  0.00     0.234 C 
HETATM   23  N4  UNL     1      25.844   2.016  51.274  1.00  0.00    -0.237 NA
HETATM   24  C22 UNL     1      26.961   1.392  51.415  1.00  0.00     0.204 C 
HETATM   25  N5  UNL     1      26.988   0.040  51.924  1.00  0.00    -0.373 N 
HETATM   26  H8  UNL     1      22.419  -1.063  54.244  1.00  0.00     0.170 HD
HETATM   27  H24 UNL     1      28.034  -0.170  51.867  1.00  0.00     0.161 HD
ENDROOT
BRANCH   1  28
HETATM   28  C2  UNL     1      27.234  -2.291  52.674  1.00  0.00    -0.008 C 
HETATM   29  C1  UNL     1      28.488  -2.114  53.017  1.00  0.00     0.009 C 
ENDBRANCH   1  28
BRANCH  18  30
HETATM   30  C17 UNL     1      18.028   3.418  51.868  1.00  0.00     0.112 C 
HETATM   31  C18 UNL     1      17.417   4.257  50.734  1.00  0.00     0.026 C 
ENDBRANCH  18  30
TORSDOF 2
ENDMDL
MODEL 5
REMARK VINA RESULT:      -8.4      2.507      7.609
REMARK  2 active torsions:
REMARK  status: ('A' for Active; 'I' for Inactive)
REMARK    1  A    between atoms: C2_2  and  C3_3 
REMARK    2  A    between atoms: N2_20  and  C17_21 
ROOT
HETATM    1  C3  UNL     1      26.358   1.963  53.227  1.00  0.00     0.130 C 
HETATM    2  C4  UNL     1      26.679   2.272  51.797  1.00  0.00     0.045 C 
HETATM    3  C5  UNL     1      26.498   2.605  50.486  1.00  0.00     0.127 C 
HETATM    4  F1  UNL     1      26.803   2.882  49.203  1.00  0.00    -0.205 F 
HETATM    5  C6  UNL     1      25.070   2.705  50.629  1.00  0.00     0.031 A 
HETATM    6  C7  UNL     1      23.900   2.106  50.939  1.00  0.00     0.049 A 
HETATM    7  C8  UNL     1      22.597   2.385  51.119  1.00  0.00     0.065 A 
HETATM    8  C9  UNL     1      22.147   3.672  50.969  1.00  0.00    -0.026 A 
HETATM    9  C10 UNL     1      23.402   4.013  50.684  1.00  0.00     0.040 A 
HETATM   10  C11 UNL     1      24.786   3.989  50.440  1.00  0.00     0.049 A 
HETATM   11  N1  UNL     1      25.156   5.284  50.049  1.00  0.00    -0.315 N 
HETATM   12  C12 UNL     1      25.538   6.621  49.646  1.00  0.00     0.301 C 
HETATM   13  O1  UNL     1      26.682   6.633  49.422  1.00  0.00    -0.258 OA
HETATM   14  C13 UNL     1      24.365   7.359  49.689  1.00  0.00    -0.005 C 
HETATM   15  C14 UNL     1      23.389   7.947  49.722  1.00  0.00    -0.095 C 
HETATM   16  C15 UNL     1      22.181   8.650  49.777  1.00  0.00     0.114 C 
HETATM   17  C16 UNL     1      21.007   7.829  50.293  1.00  0.00     0.129 C 
HETATM   18  N2  UNL     1      20.593   6.702  49.579  1.00  0.00    -0.412 N 
HETATM   19  C19 UNL     1      21.217   5.463  49.697  1.00  0.00     0.121 C 
HETATM   20  C20 UNL     1      21.067   4.684  50.984  1.00  0.00     0.060 C 
HETATM   21  N3  UNL     1      21.465   1.623  51.521  1.00  0.00    -0.242 NA
HETATM   22  C21 UNL     1      21.761   0.851  52.573  1.00  0.00     0.234 C 
HETATM   23  N4  UNL     1      23.108   1.179  52.778  1.00  0.00    -0.237 NA
HETATM   24  C22 UNL     1      24.012   0.499  53.393  1.00  0.00     0.204 C 
HETATM   25  N5  UNL     1      25.362   1.001  53.499  1.00  0.00    -0.373 N 
HETATM   26  H8  UNL     1      26.100   4.836  50.003  1.00  0.00     0.170 HD
HETATM   27  H24 UNL     1      25.811   0.232  54.088  1.00  0.00     0.161 HD
ENDROOT
BRANCH   1  28
HETATM   28  C2  UNL     1      27.683   1.729  53.875  1.00  0.00    -0.008 C 
HETATM   29  C1  UNL     1      28.697   2.510  53.589  1.00  0.00     0.009 C 
ENDBRANCH   1  28
BRANCH  18  30
HETATM   30  C17 UNL     1      19.971   6.973  48.307  1.00  0.00     0.112 C 
HETATM   31  C18 UNL     1      20.748   6.121  47.290  1.00  0.00     0.026 C 
ENDBRANCH  18  30
TORSDOF 2
ENDMDL
MODEL 6
REMARK VINA RESULT:      -8.1      6.763     10.780
REMARK  2 active torsions:
REMARK  status: ('A' for Active; 'I' for Inactive)
REMARK    1  A    between atoms: C2_2  and  C3_3 
REMARK    2  A    between atoms: N2_20  and  C17_21 
ROOT
HETATM    1  C3  UNL     1      33.796   5.790  47.059  1.00  0.00     0.130 C 
HETATM    2  C4  UNL     1      33.048   5.623  48.345  1.00  0.00     0.045 C 
HETATM    3  C5  UNL     1      32.212   5.903  49.388  1.00  0.00     0.127 C 
HETATM    4  F1  UNL     1      31.545   5.737  50.547  1.00  0.00    -0.205 F 
HETATM    5  C6  UNL     1      31.864   7.196  48.863  1.00  0.00     0.031 A 
HETATM    6  C7  UNL     1      32.265   8.426  48.475  1.00  0.00     0.049 A 
HETATM    7  C8  UNL     1      31.797   9.543  47.889  1.00  0.00     0.065 A 
HETATM    8  C9  UNL     1      30.484   9.610  47.498  1.00  0.00    -0.026 A 
HETATM    9  C10 UNL     1      30.344   8.372  47.967  1.00  0.00     0.040 A 
HETATM   10  C11 UNL     1      30.576   7.114  48.550  1.00  0.00     0.049 A 
HETATM   11  N1  UNL     1      29.345   6.444  48.584  1.00  0.00    -0.315 N 
HETATM   12  C12 UNL     1      28.073   5.753  48.619  1.00  0.00     0.301 C 
HETATM   13  O1  UNL     1      28.227   4.707  49.111  1.00  0.00    -0.258 OA
HETATM   14  C13 UNL     1      27.169   6.633  48.044  1.00  0.00    -0.005 C 
HETATM   15  C14 UNL     1      26.439   7.374  47.577  1.00  0.00    -0.095 C 
HETATM   16  C15 UNL     1      25.563   8.295  46.994  1.00  0.00     0.114 C 
HETATM   17  C16 UNL     1      26.240   9.562  46.488  1.00  0.00     0.129 C 
HETATM   18  N2  UNL     1      26.893  10.398  47.397  1.00  0.00    -0.412 N 
HETATM   19  C19 UNL     1      28.189  10.158  47.846  1.00  0.00     0.121 C 
HETATM   20  C20 UNL     1      29.343  10.325  46.885  1.00  0.00     0.060 C 
HETATM   21  N3  UNL     1      32.387  10.771  47.481  1.00  0.00    -0.242 NA
HETATM   22  C21 UNL     1      33.544  10.553  46.845  1.00  0.00     0.234 C 
HETATM   23  N4  UNL     1      33.620   9.155  46.894  1.00  0.00    -0.237 NA
HETATM   24  C22 UNL     1      34.663   8.407  46.782  1.00  0.00     0.204 C 
HETATM   25  N5  UNL     1      34.546   6.969  46.866  1.00  0.00    -0.373 N 
HETATM   26  H8  UNL     1      29.936   5.695  49.010  1.00  0.00     0.170 HD
HETATM   27  H24 UNL     1      35.560   6.680  46.691  1.00  0.00     0.161 HD
ENDROOT
BRANCH   1  28
HETATM   28  C2  UNL     1      34.541   4.509  46.880  1.00  0.00    -0.008 C 
HETATM   29  C1  UNL     1      34.767   3.735  47.915  1.00  0.00     0.009 C 
ENDBRANCH   1  28
BRANCH  18  30
HETATM   30  C17 UNL     1      26.032  11.106  48.312  1.00  0.00     0.112 C 
HETATM   31  C18 UNL     1      26.315  12.596  48.060  1.00  0.00     0.026 C 
ENDBRANCH  18  30
TORSDOF 2
ENDMDL
MODEL 7
REMARK VINA RESULT:      -8.1      3.137      6.634
REMARK  2 active torsions:
REMARK  status: ('A' for Active; 'I' for Inactive)
REMARK    1  A    between atoms: C2_2  and  C3_3 
REMARK    2  A    between atoms: N2_20  and  C17_21 
ROOT
HETATM    1  C3  UNL     1      25.251   4.224  49.667  1.00  0.00     0.130 C 
HETATM    2  C4  UNL     1      24.954   3.689  51.034  1.00  0.00     0.045 C 
HETATM    3  C5  UNL     1      24.260   3.394  52.173  1.00  0.00     0.127 C 
HETATM    4  F1  UNL     1      24.008   2.907  53.403  1.00  0.00    -0.205 F 
HETATM    5  C6  UNL     1      23.062   4.036  51.700  1.00  0.00     0.031 A 
HETATM    6  C7  UNL     1      22.452   5.162  51.273  1.00  0.00     0.049 A 
HETATM    7  C8  UNL     1      21.287   5.590  50.756  1.00  0.00     0.065 A 
HETATM    8  C9  UNL     1      20.272   4.696  50.528  1.00  0.00    -0.026 A 
HETATM    9  C10 UNL     1      21.080   3.750  51.003  1.00  0.00     0.040 A 
HETATM   10  C11 UNL     1      22.176   3.058  51.546  1.00  0.00     0.049 A 
HETATM   11  N1  UNL     1      21.773   1.728  51.726  1.00  0.00    -0.315 N 
HETATM   12  C12 UNL     1      21.356   0.353  51.912  1.00  0.00     0.301 C 
HETATM   13  O1  UNL     1      22.241  -0.248  52.375  1.00  0.00    -0.258 OA
HETATM   14  C13 UNL     1      20.047   0.309  51.457  1.00  0.00    -0.005 C 
HETATM   15  C14 UNL     1      18.969   0.295  51.085  1.00  0.00    -0.095 C 
HETATM   16  C15 UNL     1      17.651   0.300  50.619  1.00  0.00     0.114 C 
HETATM   17  C16 UNL     1      17.201   1.635  50.042  1.00  0.00     0.129 C 
HETATM   18  N2  UNL     1      17.163   2.761  50.869  1.00  0.00    -0.412 N 
HETATM   19  C19 UNL     1      18.292   3.524  51.156  1.00  0.00     0.121 C 
HETATM   20  C20 UNL     1      18.907   4.366  50.062  1.00  0.00     0.060 C 
HETATM   21  N3  UNL     1      20.811   6.845  50.285  1.00  0.00    -0.242 NA
HETATM   22  C21 UNL     1      21.726   7.440  49.512  1.00  0.00     0.234 C 
HETATM   23  N4  UNL     1      22.761   6.497  49.543  1.00  0.00    -0.237 NA
HETATM   24  C22 UNL     1      24.013   6.675  49.301  1.00  0.00     0.204 C 
HETATM   25  N5  UNL     1      24.943   5.572  49.391  1.00  0.00    -0.373 N 
HETATM   26  H8  UNL     1      22.755   1.636  52.073  1.00  0.00     0.170 HD
HETATM   27  H24 UNL     1      25.848   6.054  49.092  1.00  0.00     0.161 HD
ENDROOT
BRANCH   1  28
HETATM   28  C2  UNL     1      26.659   3.809  49.392  1.00  0.00    -0.008 C 
HETATM   29  C1  UNL     1      27.477   4.637  48.786  1.00  0.00     0.009 C 
ENDBRANCH   1  28
BRANCH  18  30
HETATM   30  C17 UNL     1      16.141   2.744  51.885  1.00  0.00     0.112 C 
HETATM   31  C18 UNL     1      15.899   4.221  52.236  1.00  0.00     0.026 C 
ENDBRANCH  18  30
TORSDOF 2
ENDMDL
MODEL 8
REMARK VINA RESULT:      -8.0      2.718      4.515
REMARK  2 active torsions:
REMARK  status: ('A' for Active; 'I' for Inactive)
REMARK    1  A    between atoms: C2_2  and  C3_3 
REMARK    2  A    between atoms: N2_20  and  C17_21 
ROOT
HETATM    1  C3  UNL     1      21.499   4.564  48.053  1.00  0.00     0.130 C 
HETATM    2  C4  UNL     1      22.529   5.259  48.890  1.00  0.00     0.045 C 
HETATM    3  C5  UNL     1      23.336   5.546  49.954  1.00  0.00     0.127 C 
HETATM    4  F1  UNL     1      24.266   6.180  50.694  1.00  0.00    -0.205 F 
HETATM    5  C6  UNL     1      22.814   4.460  50.741  1.00  0.00     0.031 A 
HETATM    6  C7  UNL     1      21.750   3.877  51.333  1.00  0.00     0.049 A 
HETATM    7  C8  UNL     1      21.401   2.755  51.988  1.00  0.00     0.065 A 
HETATM    8  C9  UNL     1      22.336   1.775  52.209  1.00  0.00    -0.026 A 
HETATM    9  C10 UNL     1      23.213   2.554  51.578  1.00  0.00     0.040 A 
HETATM   10  C11 UNL     1      23.826   3.612  50.886  1.00  0.00     0.049 A 
HETATM   11  N1  UNL     1      25.185   3.291  50.766  1.00  0.00    -0.315 N 
HETATM   12  C12 UNL     1      26.589   2.959  50.643  1.00  0.00     0.301 C 
HETATM   13  O1  UNL     1      27.132   3.825  50.083  1.00  0.00    -0.258 OA
HETATM   14  C13 UNL     1      26.722   1.722  51.254  1.00  0.00    -0.005 C 
HETATM   15  C14 UNL     1      26.812   0.708  51.769  1.00  0.00    -0.095 C 
HETATM   16  C15 UNL     1      26.898  -0.537  52.399  1.00  0.00     0.114 C 
HETATM   17  C16 UNL     1      25.559  -1.090  52.869  1.00  0.00     0.129 C 
HETATM   18  N2  UNL     1      24.829  -0.388  53.831  1.00  0.00    -0.412 N 
HETATM   19  C19 UNL     1      24.014   0.696  53.517  1.00  0.00     0.121 C 
HETATM   20  C20 UNL     1      22.737   0.455  52.744  1.00  0.00     0.060 C 
HETATM   21  N3  UNL     1      20.179   2.250  52.510  1.00  0.00    -0.242 NA
HETATM   22  C21 UNL     1      19.183   2.413  51.631  1.00  0.00     0.234 C 
HETATM   23  N4  UNL     1      19.857   3.035  50.572  1.00  0.00    -0.237 NA
HETATM   24  C22 UNL     1      19.366   3.756  49.625  1.00  0.00     0.204 C 
HETATM   25  N5  UNL     1      20.227   4.326  48.614  1.00  0.00    -0.373 N 
HETATM   26  H8  UNL     1      25.201   4.207  50.263  1.00  0.00     0.170 HD
HETATM   27  H24 UNL     1      19.505   4.804  47.989  1.00  0.00     0.161 HD
ENDROOT
BRANCH   1  28
HETATM   28  C2  UNL     1      21.509   5.295  46.751  1.00  0.00    -0.008 C 
HETATM   29  C1  UNL     1      21.674   4.632  45.630  1.00  0.00     0.009 C 
ENDBRANCH   1  28
BRANCH  18  30
HETATM   30  C17 UNL     1      25.402  -0.380  55.154  1.00  0.00     0.112 C 
HETATM   31  C18 UNL     1      24.514  -1.323  55.982  1.00  0.00     0.026 C 
ENDBRANCH  18  30
TORSDOF 2
ENDMDL
MODEL 9
REMARK VINA RESULT:      -8.0      3.150      7.845
REMARK  2 active torsions:
REMARK  status: ('A' for Active; 'I' for Inactive)
REMARK    1  A    between atoms: C2_2  and  C3_3 
REMARK    2  A    between atoms: N2_20  and  C17_21 
ROOT
HETATM    1  C3  UNL     1      25.492   2.872  52.692  1.00  0.00     0.130 C 
HETATM    2  C4  UNL     1      26.143   2.504  51.395  1.00  0.00     0.045 C 
HETATM    3  C5  UNL     1      26.417   2.488  50.057  1.00  0.00     0.127 C 
HETATM    4  F1  UNL     1      27.015   2.148  48.898  1.00  0.00    -0.205 F 
HETATM    5  C6  UNL     1      25.391   3.450  49.756  1.00  0.00     0.031 A 
HETATM    6  C7  UNL     1      24.082   3.780  49.780  1.00  0.00     0.049 A 
HETATM    7  C8  UNL     1      23.258   4.814  49.529  1.00  0.00     0.065 A 
HETATM    8  C9  UNL     1      23.774   6.007  49.090  1.00  0.00    -0.026 A 
HETATM    9  C10 UNL     1      24.977   5.439  49.149  1.00  0.00     0.040 A 
HETATM   10  C11 UNL     1      26.035   4.531  49.331  1.00  0.00     0.049 A 
HETATM   11  N1  UNL     1      27.206   5.174  48.907  1.00  0.00    -0.315 N 
HETATM   12  C12 UNL     1      28.415   5.840  48.468  1.00  0.00     0.301 C 
HETATM   13  O1  UNL     1      29.313   5.108  48.594  1.00  0.00    -0.258 OA
HETATM   14  C13 UNL     1      28.006   7.103  48.068  1.00  0.00    -0.005 C 
HETATM   15  C14 UNL     1      27.649   8.134  47.736  1.00  0.00    -0.095 C 
HETATM   16  C15 UNL     1      27.190   9.394  47.341  1.00  0.00     0.114 C 
HETATM   17  C16 UNL     1      25.704   9.619  47.586  1.00  0.00     0.129 C 
HETATM   18  N2  UNL     1      24.772   8.811  46.929  1.00  0.00    -0.412 N 
HETATM   19  C19 UNL     1      24.422   7.541  47.383  1.00  0.00     0.121 C 
HETATM   20  C20 UNL     1      23.617   7.412  48.656  1.00  0.00     0.060 C 
HETATM   21  N3  UNL     1      21.859   5.025  49.670  1.00  0.00    -0.242 NA
HETATM   22  C21 UNL     1      21.427   4.569  50.851  1.00  0.00     0.234 C 
HETATM   23  N4  UNL     1      22.617   4.078  51.403  1.00  0.00    -0.237 NA
HETATM   24  C22 UNL     1      22.764   3.206  52.339  1.00  0.00     0.204 C 
HETATM   25  N5  UNL     1      24.085   2.815  52.776  1.00  0.00    -0.373 N 
HETATM   26  H8  UNL     1      27.630   4.265  49.199  1.00  0.00     0.170 HD
HETATM   27  H24 UNL     1      23.837   2.138  53.565  1.00  0.00     0.161 HD
ENDROOT
BRANCH   1  28
HETATM   28  C2  UNL     1      26.237   2.096  53.727  1.00  0.00    -0.008 C 
HETATM   29  C1  UNL     1      27.539   1.957  53.629  1.00  0.00     0.009 C 
ENDBRANCH   1  28
BRANCH  18  30
HETATM   30  C17 UNL     1      24.669   9.020  45.507  1.00  0.00     0.112 C 
HETATM   31  C18 UNL     1      24.033   7.733  44.957  1.00  0.00     0.026 C 
ENDBRANCH  18  30
TORSDOF 2
ENDMDL
