MODEL 1
REMARK VINA RESULT:      -7.6      0.000      0.000
REMARK  0 active torsions:
REMARK  status: ('A' for Active; 'I' for Inactive)
ROOT
HETATM    1  O1  UNL     1      23.854   4.297  51.398  1.00  0.00     0.000 OA
HETATM    2  C1  UNL     1      23.386   5.199  52.104  1.00  0.00     0.275 A 
HETATM    3  C2  UNL     1      24.191   5.588  50.982  1.00  0.00     0.003 A 
HETATM    4  C3  UNL     1      24.857   5.885  50.061  1.00  0.00    -0.040 A 
HETATM    5  C4  UNL     1      25.629   6.202  49.010  1.00  0.00    -0.005 A 
HETATM    6  C5  UNL     1      26.171   5.028  49.299  1.00  0.00     0.067 A 
HETATM    7  C6  UNL     1      26.590   3.741  49.795  1.00  0.00     0.020 C 
HETATM    8  C7  UNL     1      26.210   2.932  50.706  1.00  0.00     0.077 C 
HETATM    9  C8  UNL     1      25.681   2.134  51.740  1.00  0.00     0.067 C 
HETATM   10 BR1  UNL     1      27.415   1.898  52.686  1.00  0.00    -0.046 Br
HETATM   11  C9  UNL     1      24.685   1.547  52.267  1.00  0.00     0.098 C 
HETATM   12  N1  UNL     1      24.203   0.619  53.164  1.00  0.00    -0.349 N 
HETATM   13  C10 UNL     1      22.879   0.172  52.906  1.00  0.00     0.207 C 
HETATM   14  N2  UNL     1      22.153   0.591  51.897  1.00  0.00    -0.244 NA
HETATM   15  C11 UNL     1      22.653   1.557  50.945  1.00  0.00     0.102 C 
HETATM   16  C12 UNL     1      22.117   1.623  49.742  1.00  0.00     0.034 C 
HETATM   17  C13 UNL     1      22.835   2.682  49.026  1.00  0.00     0.231 C 
HETATM   18  O2  UNL     1      24.136   2.839  49.247  1.00  0.00    -0.271 OA
HETATM   19  N3  UNL     1      24.716   2.727  50.423  1.00  0.00    -0.206 N 
HETATM   20  C14 UNL     1      23.730   2.331  51.464  1.00  0.00     0.344 C 
HETATM   21  N4  UNL     1      23.361   3.649  52.067  1.00  0.00     0.148 N 
HETATM   22  H4  UNL     1      24.901   0.395  53.890  1.00  0.00     0.166 HD
HETATM   23  H9  UNL     1      22.799   3.122  52.859  1.00  0.00     0.322 HD
ENDROOT
TORSDOF 0
ENDMDL
MODEL 2
REMARK VINA RESULT:      -7.6      2.019      3.217
REMARK  0 active torsions:
REMARK  status: ('A' for Active; 'I' for Inactive)
ROOT
HETATM    1  O1  UNL     1      23.592   3.802  52.376  1.00  0.00     0.000 OA
HETATM    2  C1  UNL     1      23.341   4.735  53.150  1.00  0.00     0.275 A 
HETATM    3  C2  UNL     1      22.448   4.533  52.045  1.00  0.00     0.003 A 
HETATM    4  C3  UNL     1      21.732   4.353  51.131  1.00  0.00    -0.040 A 
HETATM    5  C4  UNL     1      20.933   4.136  50.074  1.00  0.00    -0.005 A 
HETATM    6  C5  UNL     1      22.064   3.684  49.555  1.00  0.00     0.067 A 
HETATM    7  C6  UNL     1      23.395   3.248  49.211  1.00  0.00     0.020 C 
HETATM    8  C7  UNL     1      24.522   3.158  49.805  1.00  0.00     0.077 C 
HETATM    9  C8  UNL     1      25.696   3.107  50.581  1.00  0.00     0.067 C 
HETATM   10 BR1  UNL     1      26.814   4.108  49.275  1.00  0.00    -0.046 Br
HETATM   11  C9  UNL     1      26.294   2.726  51.635  1.00  0.00     0.098 C 
HETATM   12  N1  UNL     1      27.478   2.512  52.307  1.00  0.00    -0.349 N 
HETATM   13  C10 UNL     1      27.387   1.615  53.405  1.00  0.00     0.207 C 
HETATM   14  N2  UNL     1      26.275   1.020  53.769  1.00  0.00    -0.244 NA
HETATM   15  C11 UNL     1      25.031   1.230  53.064  1.00  0.00     0.102 C 
HETATM   16  C12 UNL     1      24.075   0.326  53.148  1.00  0.00     0.034 C 
HETATM   17  C13 UNL     1      22.962   0.823  52.333  1.00  0.00     0.231 C 
HETATM   18  O2  UNL     1      23.231   1.489  51.214  1.00  0.00    -0.271 OA
HETATM   19  N3  UNL     1      24.210   2.357  51.076  1.00  0.00    -0.206 N 
HETATM   20  C14 UNL     1      25.021   2.444  52.321  1.00  0.00     0.344 C 
HETATM   21  N4  UNL     1      24.419   3.630  53.006  1.00  0.00     0.148 N 
HETATM   22  H4  UNL     1      28.253   3.049  51.889  1.00  0.00     0.166 HD
HETATM   23  H9  UNL     1      25.231   3.600  53.755  1.00  0.00     0.322 HD
ENDROOT
TORSDOF 0
ENDMDL
MODEL 3
REMARK VINA RESULT:      -7.5      1.552      4.589
REMARK  0 active torsions:
REMARK  status: ('A' for Active; 'I' for Inactive)
ROOT
HETATM    1  O1  UNL     1      22.658   2.316  49.979  1.00  0.00     0.000 OA
HETATM    2  C1  UNL     1      22.349   1.939  48.842  1.00  0.00     0.275 A 
HETATM    3  C2  UNL     1      21.809   1.208  49.951  1.00  0.00     0.003 A 
HETATM    4  C3  UNL     1      21.380   0.619  50.873  1.00  0.00    -0.040 A 
HETATM    5  C4  UNL     1      20.910  -0.044  51.941  1.00  0.00    -0.005 A 
HETATM    6  C5  UNL     1      22.051   0.378  52.465  1.00  0.00     0.067 A 
HETATM    7  C6  UNL     1      23.329   0.947  52.815  1.00  0.00     0.020 C 
HETATM    8  C7  UNL     1      24.193   1.698  52.249  1.00  0.00     0.077 C 
HETATM    9  C8  UNL     1      25.055   2.534  51.512  1.00  0.00     0.067 C 
HETATM   10 BR1  UNL     1      26.665   1.395  51.764  1.00  0.00    -0.046 Br
HETATM   11  C9  UNL     1      25.235   3.596  50.837  1.00  0.00     0.098 C 
HETATM   12  N1  UNL     1      26.107   4.504  50.279  1.00  0.00    -0.349 N 
HETATM   13  C10 UNL     1      25.540   5.772  49.982  1.00  0.00     0.207 C 
HETATM   14  N2  UNL     1      24.287   6.081  50.216  1.00  0.00    -0.244 NA
HETATM   15  C11 UNL     1      23.365   5.139  50.810  1.00  0.00     0.102 C 
HETATM   16  C12 UNL     1      22.289   5.584  51.429  1.00  0.00     0.034 C 
HETATM   17  C13 UNL     1      21.574   4.400  51.916  1.00  0.00     0.231 C 
HETATM   18  O2  UNL     1      22.275   3.356  52.346  1.00  0.00    -0.271 OA
HETATM   19  N3  UNL     1      23.383   2.917  51.789  1.00  0.00    -0.206 N 
HETATM   20  C14 UNL     1      23.786   3.788  50.652  1.00  0.00     0.344 C 
HETATM   21  N4  UNL     1      23.217   3.056  49.477  1.00  0.00     0.148 N 
HETATM   22  H4  UNL     1      27.052   4.103  50.170  1.00  0.00     0.166 HD
HETATM   23  H9  UNL     1      23.750   3.746  48.799  1.00  0.00     0.322 HD
ENDROOT
TORSDOF 0
ENDMDL
MODEL 4
REMARK VINA RESULT:      -7.0      2.032      2.553
REMARK  0 active torsions:
REMARK  status: ('A' for Active; 'I' for Inactive)
ROOT
HETATM    1  O1  UNL     1      24.173   5.871  50.486  1.00  0.00     0.000 OA
HETATM    2  C1  UNL     1      24.314   6.989  50.997  1.00  0.00     0.275 A 
HETATM    3  C2  UNL     1      25.361   6.519  50.136  1.00  0.00     0.003 A 
HETATM    4  C3  UNL     1      26.209   6.113  49.431  1.00  0.00    -0.040 A 
HETATM    5  C4  UNL     1      27.170   5.624  48.631  1.00  0.00    -0.005 A 
HETATM    6  C5  UNL     1      26.713   4.475  49.105  1.00  0.00     0.067 A 
HETATM    7  C6  UNL     1      26.053   3.365  49.746  1.00  0.00     0.020 C 
HETATM    8  C7  UNL     1      25.066   3.208  50.541  1.00  0.00     0.077 C 
HETATM    9  C8  UNL     1      23.958   3.181  51.410  1.00  0.00     0.067 C 
HETATM   10 BR1  UNL     1      24.863   2.106  52.817  1.00  0.00    -0.046 Br
HETATM   11  C9  UNL     1      22.752   3.499  51.655  1.00  0.00     0.098 C 
HETATM   12  N1  UNL     1      21.615   3.317  52.411  1.00  0.00    -0.349 N 
HETATM   13  C10 UNL     1      20.416   3.777  51.805  1.00  0.00     0.207 C 
HETATM   14  N2  UNL     1      20.366   4.331  50.616  1.00  0.00    -0.244 NA
HETATM   15  C11 UNL     1      21.552   4.517  49.811  1.00  0.00     0.102 C 
HETATM   16  C12 UNL     1      21.437   4.648  48.504  1.00  0.00     0.034 C 
HETATM   17  C13 UNL     1      22.797   4.815  47.983  1.00  0.00     0.231 C 
HETATM   18  O2  UNL     1      23.793   4.148  48.558  1.00  0.00    -0.271 OA
HETATM   19  N3  UNL     1      23.912   3.950  49.853  1.00  0.00    -0.206 N 
HETATM   20  C14 UNL     1      22.747   4.513  50.586  1.00  0.00     0.344 C 
HETATM   21  N4  UNL     1      23.259   5.853  51.010  1.00  0.00     0.148 N 
HETATM   22  H4  UNL     1      21.829   2.863  53.313  1.00  0.00     0.166 HD
HETATM   23  H9  UNL     1      22.355   5.995  51.630  1.00  0.00     0.322 HD
ENDROOT
TORSDOF 0
ENDMDL
MODEL 5
REMARK VINA RESULT:      -6.9      2.989      5.374
REMARK  0 active torsions:
REMARK  status: ('A' for Active; 'I' for Inactive)
ROOT
HETATM    1  O1  UNL     1      21.347   1.402  50.447  1.00  0.00     0.000 OA
HETATM    2  C1  UNL     1      21.672   1.121  49.286  1.00  0.00     0.275 A 
HETATM    3  C2  UNL     1      20.288   0.984  49.637  1.00  0.00     0.003 A 
HETATM    4  C3  UNL     1      19.160   0.875  49.946  1.00  0.00    -0.040 A 
HETATM    5  C4  UNL     1      17.878   0.748  50.324  1.00  0.00    -0.005 A 
HETATM    6  C5  UNL     1      18.447   0.509  51.496  1.00  0.00     0.067 A 
HETATM    7  C6  UNL     1      19.282   0.287  52.651  1.00  0.00     0.020 C 
HETATM    8  C7  UNL     1      20.531   0.328  52.911  1.00  0.00     0.077 C 
HETATM    9  C8  UNL     1      21.929   0.415  53.059  1.00  0.00     0.067 C 
HETATM   10 BR1  UNL     1      22.135  -1.393  53.862  1.00  0.00    -0.046 Br
HETATM   11  C9  UNL     1      23.003   1.083  52.931  1.00  0.00     0.098 C 
HETATM   12  N1  UNL     1      24.334   1.247  53.245  1.00  0.00    -0.349 N 
HETATM   13  C10 UNL     1      24.839   2.559  53.039  1.00  0.00     0.207 C 
HETATM   14  N2  UNL     1      24.113   3.556  52.589  1.00  0.00    -0.244 NA
HETATM   15  C11 UNL     1      22.713   3.397  52.267  1.00  0.00     0.102 C 
HETATM   16  C12 UNL     1      21.925   4.454  52.254  1.00  0.00     0.034 C 
HETATM   17  C13 UNL     1      20.587   3.968  51.900  1.00  0.00     0.231 C 
HETATM   18  O2  UNL     1      20.195   2.779  52.347  1.00  0.00    -0.271 OA
HETATM   19  N3  UNL     1      20.968   1.717  52.426  1.00  0.00    -0.206 N 
HETATM   20  C14 UNL     1      22.360   2.041  52.013  1.00  0.00     0.344 C 
HETATM   21  N4  UNL     1      22.371   1.616  50.579  1.00  0.00     0.148 N 
HETATM   22  H4  UNL     1      24.753   0.369  53.589  1.00  0.00     0.166 HD
HETATM   23  H9  UNL     1      23.463   1.781  50.546  1.00  0.00     0.322 HD
ENDROOT
TORSDOF 0
ENDMDL
MODEL 6
REMARK VINA RESULT:      -6.8      8.969     10.648
REMARK  0 active torsions:
REMARK  status: ('A' for Active; 'I' for Inactive)
ROOT
HETATM    1  O1  UNL     1      33.215   7.466  46.219  1.00  0.00     0.000 OA
HETATM    2  C1  UNL     1      33.333   7.559  44.990  1.00  0.00     0.275 A 
HETATM    3  C2  UNL     1      33.013   8.754  45.717  1.00  0.00     0.003 A 
HETATM    4  C3  UNL     1      32.747   9.720  46.330  1.00  0.00    -0.040 A 
HETATM    5  C4  UNL     1      32.433  10.809  47.050  1.00  0.00    -0.005 A 
HETATM    6  C5  UNL     1      31.871   9.897  47.829  1.00  0.00     0.067 A 
HETATM    7  C6  UNL     1      31.347   8.740  48.511  1.00  0.00     0.020 C 
HETATM    8  C7  UNL     1      31.376   7.474  48.342  1.00  0.00     0.077 C 
HETATM    9  C8  UNL     1      31.493   6.103  48.039  1.00  0.00     0.067 C 
HETATM   10 BR1  UNL     1      29.540   5.738  48.115  1.00  0.00    -0.046 Br
HETATM   11  C9  UNL     1      32.228   5.100  47.781  1.00  0.00     0.098 C 
HETATM   12  N1  UNL     1      32.362   3.733  47.672  1.00  0.00    -0.349 N 
HETATM   13  C10 UNL     1      33.699   3.257  47.735  1.00  0.00     0.207 C 
HETATM   14  N2  UNL     1      34.743   4.037  47.889  1.00  0.00    -0.244 NA
HETATM   15  C11 UNL     1      34.613   5.471  48.015  1.00  0.00     0.102 C 
HETATM   16  C12 UNL     1      35.572   6.162  48.597  1.00  0.00     0.034 C 
HETATM   17  C13 UNL     1      35.146   7.565  48.571  1.00  0.00     0.231 C 
HETATM   18  O2  UNL     1      33.856   7.849  48.724  1.00  0.00    -0.271 OA
HETATM   19  N3  UNL     1      32.869   7.150  48.204  1.00  0.00    -0.206 N 
HETATM   20  C14 UNL     1      33.387   5.959  47.479  1.00  0.00     0.344 C 
HETATM   21  N4  UNL     1      33.436   6.446  46.065  1.00  0.00     0.148 N 
HETATM   22  H4  UNL     1      31.446   3.270  47.562  1.00  0.00     0.166 HD
HETATM   23  H9  UNL     1      33.665   5.420  45.727  1.00  0.00     0.322 HD
ENDROOT
TORSDOF 0
ENDMDL
MODEL 7
REMARK VINA RESULT:      -6.8      2.796      4.018
REMARK  0 active torsions:
REMARK  status: ('A' for Active; 'I' for Inactive)
ROOT
HETATM    1  O1  UNL     1      21.618   2.881  52.000  1.00  0.00     0.000 OA
HETATM    2  C1  UNL     1      21.293   3.997  52.425  1.00  0.00     0.275 A 
HETATM    3  C2  UNL     1      22.694   3.702  52.346  1.00  0.00     0.003 A 
HETATM    4  C3  UNL     1      23.837   3.438  52.277  1.00  0.00    -0.040 A 
HETATM    5  C4  UNL     1      25.137   3.111  52.199  1.00  0.00    -0.005 A 
HETATM    6  C5  UNL     1      24.647   1.898  52.404  1.00  0.00     0.067 A 
HETATM    7  C6  UNL     1      23.892   0.690  52.628  1.00  0.00     0.020 C 
HETATM    8  C7  UNL     1      22.658   0.376  52.730  1.00  0.00     0.077 C 
HETATM    9  C8  UNL     1      21.267   0.170  52.815  1.00  0.00     0.067 C 
HETATM   10 BR1  UNL     1      21.337  -0.792  54.554  1.00  0.00    -0.046 Br
HETATM   11  C9  UNL     1      20.109   0.304  52.309  1.00  0.00     0.098 C 
HETATM   12  N1  UNL     1      18.780  -0.057  52.294  1.00  0.00    -0.349 N 
HETATM   13  C10 UNL     1      18.095   0.236  51.085  1.00  0.00     0.207 C 
HETATM   14  N2  UNL     1      18.662   0.802  50.046  1.00  0.00    -0.244 NA
HETATM   15  C11 UNL     1      20.058   1.175  50.047  1.00  0.00     0.102 C 
HETATM   16  C12 UNL     1      20.695   1.315  48.900  1.00  0.00     0.034 C 
HETATM   17  C13 UNL     1      22.073   1.689  49.236  1.00  0.00     0.231 C 
HETATM   18  O2  UNL     1      22.638   1.161  50.317  1.00  0.00    -0.271 OA
HETATM   19  N3  UNL     1      22.020   0.956  51.460  1.00  0.00    -0.206 N 
HETATM   20  C14 UNL     1      20.583   1.329  51.361  1.00  0.00     0.344 C 
HETATM   21  N4  UNL     1      20.579   2.720  51.912  1.00  0.00     0.148 N 
HETATM   22  H4  UNL     1      18.496  -0.494  53.185  1.00  0.00     0.166 HD
HETATM   23  H9  UNL     1      19.475   2.715  51.897  1.00  0.00     0.322 HD
ENDROOT
TORSDOF 0
ENDMDL
MODEL 8
REMARK VINA RESULT:      -6.7      2.522      5.061
REMARK  0 active torsions:
REMARK  status: ('A' for Active; 'I' for Inactive)
ROOT
HETATM    1  O1  UNL     1      24.043   4.387  51.507  1.00  0.00     0.000 OA
HETATM    2  C1  UNL     1      23.891   5.001  52.570  1.00  0.00     0.275 A 
HETATM    3  C2  UNL     1      23.660   3.586  52.585  1.00  0.00     0.003 A 
HETATM    4  C3  UNL     1      23.471   2.426  52.576  1.00  0.00    -0.040 A 
HETATM    5  C4  UNL     1      23.252   1.102  52.539  1.00  0.00    -0.005 A 
HETATM    6  C5  UNL     1      22.925   1.385  51.287  1.00  0.00     0.067 A 
HETATM    7  C6  UNL     1      22.630   1.927  49.984  1.00  0.00     0.020 C 
HETATM    8  C7  UNL     1      22.700   3.071  49.419  1.00  0.00     0.077 C 
HETATM    9  C8  UNL     1      22.835   4.382  48.923  1.00  0.00     0.067 C 
HETATM   10 BR1  UNL     1      20.968   4.507  48.248  1.00  0.00    -0.046 Br
HETATM   11  C9  UNL     1      23.558   5.408  48.726  1.00  0.00     0.098 C 
HETATM   12  N1  UNL     1      23.750   6.609  48.080  1.00  0.00    -0.349 N 
HETATM   13  C10 UNL     1      25.096   7.061  48.045  1.00  0.00     0.207 C 
HETATM   14  N2  UNL     1      26.099   6.401  48.575  1.00  0.00    -0.244 NA
HETATM   15  C11 UNL     1      25.911   5.135  49.246  1.00  0.00     0.102 C 
HETATM   16  C12 UNL     1      26.928   4.304  49.366  1.00  0.00     0.034 C 
HETATM   17  C13 UNL     1      26.420   3.128  50.079  1.00  0.00     0.231 C 
HETATM   18  O2  UNL     1      25.177   2.720  49.844  1.00  0.00    -0.271 OA
HETATM   19  N3  UNL     1      24.148   3.519  49.664  1.00  0.00    -0.206 N 
HETATM   20  C14 UNL     1      24.571   4.945  49.691  1.00  0.00     0.344 C 
HETATM   21  N4  UNL     1      24.288   5.331  51.108  1.00  0.00     0.148 N 
HETATM   22  H4  UNL     1      22.862   6.990  47.717  1.00  0.00     0.166 HD
HETATM   23  H9  UNL     1      24.503   6.385  50.856  1.00  0.00     0.322 HD
ENDROOT
TORSDOF 0
ENDMDL
MODEL 9
REMARK VINA RESULT:      -6.7      2.290      4.761
REMARK  0 active torsions:
REMARK  status: ('A' for Active; 'I' for Inactive)
ROOT
HETATM    1  O1  UNL     1      23.239   4.504  49.455  1.00  0.00     0.000 OA
HETATM    2  C1  UNL     1      22.599   4.196  48.441  1.00  0.00     0.275 A 
HETATM    3  C2  UNL     1      21.929   4.087  49.705  1.00  0.00     0.003 A 
HETATM    4  C3  UNL     1      21.400   4.001  50.750  1.00  0.00    -0.040 A 
HETATM    5  C4  UNL     1      20.819   3.899  51.956  1.00  0.00    -0.005 A 
HETATM    6  C5  UNL     1      22.071   3.674  52.328  1.00  0.00     0.067 A 
HETATM    7  C6  UNL     1      23.487   3.462  52.491  1.00  0.00     0.020 C 
HETATM    8  C7  UNL     1      24.520   3.489  51.740  1.00  0.00     0.077 C 
HETATM    9  C8  UNL     1      25.569   3.558  50.802  1.00  0.00     0.067 C 
HETATM   10 BR1  UNL     1      26.309   1.763  51.231  1.00  0.00    -0.046 Br
HETATM   11  C9  UNL     1      26.192   4.208  49.905  1.00  0.00     0.098 C 
HETATM   12  N1  UNL     1      27.319   4.358  49.126  1.00  0.00    -0.349 N 
HETATM   13  C10 UNL     1      27.500   5.657  48.583  1.00  0.00     0.207 C 
HETATM   14  N2  UNL     1      26.676   6.657  48.794  1.00  0.00    -0.244 NA
HETATM   15  C11 UNL     1      25.497   6.513  49.618  1.00  0.00     0.102 C 
HETATM   16  C12 UNL     1      24.954   7.581  50.168  1.00  0.00     0.034 C 
HETATM   17  C13 UNL     1      23.794   7.108  50.932  1.00  0.00     0.231 C 
HETATM   18  O2  UNL     1      23.867   5.934  51.551  1.00  0.00    -0.271 OA
HETATM   19  N3  UNL     1      24.449   4.862  51.058  1.00  0.00    -0.206 N 
HETATM   20  C14 UNL     1      25.077   5.158  49.742  1.00  0.00     0.344 C 
HETATM   21  N4  UNL     1      24.024   4.705  48.780  1.00  0.00     0.148 N 
HETATM   22  H4  UNL     1      27.858   3.480  49.068  1.00  0.00     0.166 HD
HETATM   23  H9  UNL     1      24.733   4.853  47.946  1.00  0.00     0.322 HD
ENDROOT
TORSDOF 0
ENDMDL
