MODEL 1
REMARK VINA RESULT:      -7.2      0.000      0.000
REMARK  4 active torsions:
REMARK  status: ('A' for Active; 'I' for Inactive)
REMARK    1  A    between atoms: C4_5  and  C5_6 
REMARK    2  A    between atoms: N1_8  and  C7_9 
REMARK    3  A    between atoms: C7_9  and  C8_10 
REMARK    4  A    between atoms: C8_10  and  N2_11 
ROOT
HETATM    1  C5  UNL     1      21.685  -0.747  53.803  1.00  0.00     0.084 A 
HETATM    2  C6  UNL     1      22.986  -0.419  53.488  1.00  0.00     0.124 A 
HETATM    3  N1  UNL     1      23.846  -0.796  54.453  1.00  0.00    -0.347 N 
HETATM    4  C13 UNL     1      23.076  -1.376  55.401  1.00  0.00     0.210 A 
HETATM    5  N3  UNL     1      21.783  -1.350  55.018  1.00  0.00    -0.242 NA
ENDROOT
BRANCH   3   6
HETATM    6  C7  UNL     1      25.275  -0.668  54.564  1.00  0.00     0.159 C 
BRANCH   6   7
HETATM    7  C8  UNL     1      25.946  -0.666  53.214  1.00  0.00     0.292 C 
BRANCH   7   8
HETATM    8  N2  UNL     1      27.269  -0.076  53.228  1.00  0.00     0.094 N 
HETATM    9  C9  UNL     1      27.291   1.148  52.481  1.00  0.00     0.298 C 
HETATM   10  C10 UNL     1      27.328   2.296  53.479  1.00  0.00     0.198 C 
HETATM   11  O1  UNL     1      28.564   2.281  54.096  1.00  0.00    -0.388 OA
HETATM   12  C11 UNL     1      28.973   1.037  54.522  1.00  0.00     0.198 C 
HETATM   13  C12 UNL     1      27.817   0.047  54.557  1.00  0.00     0.298 C 
ENDBRANCH   7   8
ENDBRANCH   6   7
ENDBRANCH   3   6
BRANCH   1  14
HETATM   14  C4  UNL     1      20.473  -0.508  53.020  1.00  0.00    -0.006 A 
HETATM   15  C3  UNL     1      20.481   0.255  51.856  1.00  0.00     0.017 A 
HETATM   16  C2  UNL     1      19.290   0.447  51.152  1.00  0.00     0.043 A 
HETATM   17  C1  UNL     1      18.152  -0.138  51.655  1.00  0.00     0.116 A 
HETATM   18  F1  UNL     1      16.966   0.033  50.986  1.00  0.00    -0.206 F 
HETATM   19  C15 UNL     1      18.079  -0.902  52.799  1.00  0.00     0.043 A 
HETATM   20  C14 UNL     1      19.294  -1.068  53.471  1.00  0.00     0.017 A 
ENDBRANCH   1  14
TORSDOF 4
ENDMDL
MODEL 2
REMARK VINA RESULT:      -7.0      3.946      7.113
REMARK  4 active torsions:
REMARK  status: ('A' for Active; 'I' for Inactive)
REMARK    1  A    between atoms: C4_5  and  C5_6 
REMARK    2  A    between atoms: N1_8  and  C7_9 
REMARK    3  A    between atoms: C7_9  and  C8_10 
REMARK    4  A    between atoms: C8_10  and  N2_11 
ROOT
HETATM    1  C5  UNL     1      24.563  -0.621  54.143  1.00  0.00     0.084 A 
HETATM    2  C6  UNL     1      23.617  -0.160  53.252  1.00  0.00     0.124 A 
HETATM    3  N1  UNL     1      22.364  -0.411  53.675  1.00  0.00    -0.347 N 
HETATM    4  C13 UNL     1      22.515  -1.045  54.860  1.00  0.00     0.210 A 
HETATM    5  N3  UNL     1      23.827  -1.173  55.145  1.00  0.00    -0.242 NA
ENDROOT
BRANCH   3   6
HETATM    6  C7  UNL     1      21.081  -0.121  53.092  1.00  0.00     0.159 C 
BRANCH   6   7
HETATM    7  C8  UNL     1      20.883   1.358  52.877  1.00  0.00     0.292 C 
BRANCH   7   8
HETATM    8  N2  UNL     1      20.824   1.734  51.479  1.00  0.00     0.094 N 
HETATM    9  C9  UNL     1      21.771   2.771  51.188  1.00  0.00     0.298 C 
HETATM   10  C10 UNL     1      22.932   2.136  50.438  1.00  0.00     0.198 C 
HETATM   11  O1  UNL     1      22.476   1.765  49.187  1.00  0.00    -0.388 OA
HETATM   12  C11 UNL     1      21.269   1.103  49.195  1.00  0.00     0.198 C 
HETATM   13  C12 UNL     1      20.910   0.604  50.587  1.00  0.00     0.298 C 
ENDBRANCH   7   8
ENDBRANCH   6   7
ENDBRANCH   3   6
BRANCH   1  14
HETATM   14  C4  UNL     1      26.020  -0.540  54.044  1.00  0.00    -0.006 A 
HETATM   15  C3  UNL     1      26.777   0.257  54.897  1.00  0.00     0.017 A 
HETATM   16  C2  UNL     1      28.167   0.291  54.752  1.00  0.00     0.043 A 
HETATM   17  C1  UNL     1      28.721  -0.477  53.756  1.00  0.00     0.116 A 
HETATM   18  F1  UNL     1      30.083  -0.464  53.587  1.00  0.00    -0.206 F 
HETATM   19  C15 UNL     1      28.026  -1.283  52.881  1.00  0.00     0.043 A 
HETATM   20  C14 UNL     1      26.640  -1.287  53.063  1.00  0.00     0.017 A 
ENDBRANCH   1  14
TORSDOF 4
ENDMDL
MODEL 3
REMARK VINA RESULT:      -6.9      4.251      7.824
REMARK  4 active torsions:
REMARK  status: ('A' for Active; 'I' for Inactive)
REMARK    1  A    between atoms: C4_5  and  C5_6 
REMARK    2  A    between atoms: N1_8  and  C7_9 
REMARK    3  A    between atoms: C7_9  and  C8_10 
REMARK    4  A    between atoms: C8_10  and  N2_11 
ROOT
HETATM    1  C5  UNL     1      26.002   1.339  52.980  1.00  0.00     0.084 A 
HETATM    2  C6  UNL     1      25.009   1.067  52.064  1.00  0.00     0.124 A 
HETATM    3  N1  UNL     1      24.009   1.966  52.125  1.00  0.00    -0.347 N 
HETATM    4  C13 UNL     1      24.374   2.828  53.101  1.00  0.00     0.210 A 
HETATM    5  N3  UNL     1      25.564   2.459  53.615  1.00  0.00    -0.242 NA
ENDROOT
BRANCH   3   6
HETATM    6  C7  UNL     1      22.784   2.089  51.379  1.00  0.00     0.159 C 
BRANCH   6   7
HETATM    7  C8  UNL     1      21.938   0.844  51.480  1.00  0.00     0.292 C 
BRANCH   7   8
HETATM    8  N2  UNL     1      21.765   0.374  52.839  1.00  0.00     0.094 N 
HETATM    9  C9  UNL     1      20.448   0.676  53.320  1.00  0.00     0.298 C 
HETATM   10  C10 UNL     1      19.649  -0.620  53.316  1.00  0.00     0.198 C 
HETATM   11  O1  UNL     1      20.165  -1.439  54.301  1.00  0.00    -0.388 OA
HETATM   12  C11 UNL     1      21.540  -1.525  54.308  1.00  0.00     0.198 C 
HETATM   13  C12 UNL     1      22.142  -1.008  53.010  1.00  0.00     0.298 C 
ENDBRANCH   7   8
ENDBRANCH   6   7
ENDBRANCH   3   6
BRANCH   1  14
HETATM   14  C4  UNL     1      27.242   0.602  53.220  1.00  0.00    -0.006 A 
HETATM   15  C3  UNL     1      27.366  -0.754  52.931  1.00  0.00     0.017 A 
HETATM   16  C2  UNL     1      28.578  -1.402  53.183  1.00  0.00     0.043 A 
HETATM   17  C1  UNL     1      29.602  -0.653  53.713  1.00  0.00     0.116 A 
HETATM   18  F1  UNL     1      30.805  -1.261  53.973  1.00  0.00    -0.206 F 
HETATM   19  C15 UNL     1      29.541   0.689  54.022  1.00  0.00     0.043 A 
HETATM   20  C14 UNL     1      28.310   1.296  53.753  1.00  0.00     0.017 A 
ENDBRANCH   1  14
TORSDOF 4
ENDMDL
MODEL 4
REMARK VINA RESULT:      -6.8      4.586      7.317
REMARK  4 active torsions:
REMARK  status: ('A' for Active; 'I' for Inactive)
REMARK    1  A    between atoms: C4_5  and  C5_6 
REMARK    2  A    between atoms: N1_8  and  C7_9 
REMARK    3  A    between atoms: C7_9  and  C8_10 
REMARK    4  A    between atoms: C8_10  and  N2_11 
ROOT
HETATM    1  C5  UNL     1      25.044  -0.128  53.649  1.00  0.00     0.084 A 
HETATM    2  C6  UNL     1      24.374   0.815  52.900  1.00  0.00     0.124 A 
HETATM    3  N1  UNL     1      23.039   0.708  53.035  1.00  0.00    -0.347 N 
HETATM    4  C13 UNL     1      22.856  -0.325  53.889  1.00  0.00     0.210 A 
HETATM    5  N3  UNL     1      24.051  -0.828  54.259  1.00  0.00    -0.242 NA
ENDROOT
BRANCH   3   6
HETATM    6  C7  UNL     1      21.955   1.459  52.459  1.00  0.00     0.159 C 
BRANCH   6   7
HETATM    7  C8  UNL     1      22.444   2.467  51.450  1.00  0.00     0.292 C 
BRANCH   7   8
HETATM    8  N2  UNL     1      22.203   3.840  51.845  1.00  0.00     0.094 N 
HETATM    9  C9  UNL     1      23.408   4.451  52.328  1.00  0.00     0.298 C 
HETATM   10  C10 UNL     1      23.912   5.392  51.243  1.00  0.00     0.198 C 
HETATM   11  O1  UNL     1      23.032   6.453  51.159  1.00  0.00    -0.388 OA
HETATM   12  C11 UNL     1      21.703   6.090  51.137  1.00  0.00     0.198 C 
HETATM   13  C12 UNL     1      21.530   4.610  50.828  1.00  0.00     0.298 C 
ENDBRANCH   7   8
ENDBRANCH   6   7
ENDBRANCH   3   6
BRANCH   1  14
HETATM   14  C4  UNL     1      26.487  -0.335  53.768  1.00  0.00    -0.006 A 
HETATM   15  C3  UNL     1      27.261   0.356  54.695  1.00  0.00     0.017 A 
HETATM   16  C2  UNL     1      28.636   0.113  54.760  1.00  0.00     0.043 A 
HETATM   17  C1  UNL     1      29.160  -0.812  53.888  1.00  0.00     0.116 A 
HETATM   18  F1  UNL     1      30.507  -1.072  53.927  1.00  0.00    -0.206 F 
HETATM   19  C15 UNL     1      28.448  -1.527  52.950  1.00  0.00     0.043 A 
HETATM   20  C14 UNL     1      27.077  -1.252  52.920  1.00  0.00     0.017 A 
ENDBRANCH   1  14
TORSDOF 4
ENDMDL
MODEL 5
REMARK VINA RESULT:      -6.7      5.535      7.885
REMARK  4 active torsions:
REMARK  status: ('A' for Active; 'I' for Inactive)
REMARK    1  A    between atoms: C4_5  and  C5_6 
REMARK    2  A    between atoms: N1_8  and  C7_9 
REMARK    3  A    between atoms: C7_9  and  C8_10 
REMARK    4  A    between atoms: C8_10  and  N2_11 
ROOT
HETATM    1  C5  UNL     1      25.375   4.302  49.664  1.00  0.00     0.084 A 
HETATM    2  C6  UNL     1      25.615   3.204  50.462  1.00  0.00     0.124 A 
HETATM    3  N1  UNL     1      24.473   2.637  50.893  1.00  0.00    -0.347 N 
HETATM    4  C13 UNL     1      23.485   3.390  50.359  1.00  0.00     0.210 A 
HETATM    5  N3  UNL     1      24.018   4.386  49.623  1.00  0.00    -0.242 NA
ENDROOT
BRANCH   3   6
HETATM    6  C7  UNL     1      24.230   1.493  51.732  1.00  0.00     0.159 C 
BRANCH   6   7
HETATM    7  C8  UNL     1      25.270   1.359  52.815  1.00  0.00     0.292 C 
BRANCH   7   8
HETATM    8  N2  UNL     1      26.324   0.421  52.489  1.00  0.00     0.094 N 
HETATM    9  C9  UNL     1      27.590   0.885  52.978  1.00  0.00     0.298 C 
HETATM   10  C10 UNL     1      27.939   0.058  54.208  1.00  0.00     0.198 C 
HETATM   11  O1  UNL     1      28.215  -1.229  53.788  1.00  0.00    -0.388 OA
HETATM   12  C11 UNL     1      27.301  -1.745  52.896  1.00  0.00     0.198 C 
HETATM   13  C12 UNL     1      26.015  -0.933  52.876  1.00  0.00     0.298 C 
ENDBRANCH   7   8
ENDBRANCH   6   7
ENDBRANCH   3   6
BRANCH   1  14
HETATM   14  C4  UNL     1      26.345   5.179  49.008  1.00  0.00    -0.006 A 
HETATM   15  C3  UNL     1      26.010   6.455  48.567  1.00  0.00     0.017 A 
HETATM   16  C2  UNL     1      26.983   7.245  47.949  1.00  0.00     0.043 A 
HETATM   17  C1  UNL     1      28.240   6.710  47.806  1.00  0.00     0.116 A 
HETATM   18  F1  UNL     1      29.218   7.461  47.201  1.00  0.00    -0.206 F 
HETATM   19  C15 UNL     1      28.633   5.455  48.220  1.00  0.00     0.043 A 
HETATM   20  C14 UNL     1      27.628   4.700  48.834  1.00  0.00     0.017 A 
ENDBRANCH   1  14
TORSDOF 4
ENDMDL
MODEL 6
REMARK VINA RESULT:      -6.6      4.364      8.057
REMARK  4 active torsions:
REMARK  status: ('A' for Active; 'I' for Inactive)
REMARK    1  A    between atoms: C4_5  and  C5_6 
REMARK    2  A    between atoms: N1_8  and  C7_9 
REMARK    3  A    between atoms: C7_9  and  C8_10 
REMARK    4  A    between atoms: C8_10  and  N2_11 
ROOT
HETATM    1  C5  UNL     1      25.538   0.246  52.875  1.00  0.00     0.084 A 
HETATM    2  C6  UNL     1      24.344  -0.278  53.322  1.00  0.00     0.124 A 
HETATM    3  N1  UNL     1      23.286   0.395  52.835  1.00  0.00    -0.347 N 
HETATM    4  C13 UNL     1      23.817   1.370  52.062  1.00  0.00     0.210 A 
HETATM    5  N3  UNL     1      25.163   1.285  52.082  1.00  0.00    -0.242 NA
ENDROOT
BRANCH   3   6
HETATM    6  C7  UNL     1      21.870   0.217  53.020  1.00  0.00     0.159 C 
BRANCH   6   7
HETATM    7  C8  UNL     1      21.112   0.356  51.724  1.00  0.00     0.292 C 
BRANCH   7   8
HETATM    8  N2  UNL     1      19.985   1.262  51.809  1.00  0.00     0.094 N 
HETATM    9  C9  UNL     1      20.265   2.343  52.708  1.00  0.00     0.298 C 
HETATM   10  C10 UNL     1      20.538   3.582  51.866  1.00  0.00     0.198 C 
HETATM   11  O1  UNL     1      19.349   3.963  51.276  1.00  0.00    -0.388 OA
HETATM   12  C11 UNL     1      18.642   2.930  50.700  1.00  0.00     0.198 C 
HETATM   13  C12 UNL     1      19.506   1.691  50.517  1.00  0.00     0.298 C 
ENDBRANCH   7   8
ENDBRANCH   6   7
ENDBRANCH   3   6
BRANCH   1  14
HETATM   14  C4  UNL     1      26.897  -0.203  53.177  1.00  0.00    -0.006 A 
HETATM   15  C3  UNL     1      27.377  -1.441  52.764  1.00  0.00     0.017 A 
HETATM   16  C2  UNL     1      28.686  -1.813  53.083  1.00  0.00     0.043 A 
HETATM   17  C1  UNL     1      29.443  -0.919  53.803  1.00  0.00     0.116 A 
HETATM   18  F1  UNL     1      30.732  -1.254  54.133  1.00  0.00    -0.206 F 
HETATM   19  C15 UNL     1      29.025   0.320  54.241  1.00  0.00     0.043 A 
HETATM   20  C14 UNL     1      27.710   0.649  53.898  1.00  0.00     0.017 A 
ENDBRANCH   1  14
TORSDOF 4
ENDMDL
MODEL 7
REMARK VINA RESULT:      -6.6      5.443      7.821
REMARK  4 active torsions:
REMARK  status: ('A' for Active; 'I' for Inactive)
REMARK    1  A    between atoms: C4_5  and  C5_6 
REMARK    2  A    between atoms: N1_8  and  C7_9 
REMARK    3  A    between atoms: C7_9  and  C8_10 
REMARK    4  A    between atoms: C8_10  and  N2_11 
ROOT
HETATM    1  C5  UNL     1      26.063   1.824  52.640  1.00  0.00     0.084 A 
HETATM    2  C6  UNL     1      25.553   2.038  51.378  1.00  0.00     0.124 A 
HETATM    3  N1  UNL     1      24.454   2.815  51.405  1.00  0.00    -0.347 N 
HETATM    4  C13 UNL     1      24.262   3.102  52.712  1.00  0.00     0.210 A 
HETATM    5  N3  UNL     1      25.221   2.512  53.455  1.00  0.00    -0.242 NA
ENDROOT
BRANCH   3   6
HETATM    6  C7  UNL     1      23.597   3.299  50.355  1.00  0.00     0.159 C 
BRANCH   6   7
HETATM    7  C8  UNL     1      24.353   4.136  49.354  1.00  0.00     0.292 C 
BRANCH   7   8
HETATM    8  N2  UNL     1      25.209   5.132  49.965  1.00  0.00     0.094 N 
HETATM    9  C9  UNL     1      26.513   5.120  49.369  1.00  0.00     0.298 C 
HETATM   10  C10 UNL     1      26.613   6.336  48.459  1.00  0.00     0.198 C 
HETATM   11  O1  UNL     1      26.643   7.462  49.259  1.00  0.00    -0.388 OA
HETATM   12  C11 UNL     1      25.694   7.475  50.258  1.00  0.00     0.198 C 
HETATM   13  C12 UNL     1      24.605   6.441  50.013  1.00  0.00     0.298 C 
ENDBRANCH   7   8
ENDBRANCH   6   7
ENDBRANCH   3   6
BRANCH   1  14
HETATM   14  C4  UNL     1      27.238   1.041  53.024  1.00  0.00    -0.006 A 
HETATM   15  C3  UNL     1      28.363   1.625  53.597  1.00  0.00     0.017 A 
HETATM   16  C2  UNL     1      29.453   0.823  53.943  1.00  0.00     0.043 A 
HETATM   17  C1  UNL     1      29.355  -0.525  53.693  1.00  0.00     0.116 A 
HETATM   18  F1  UNL     1      30.410  -1.340  54.021  1.00  0.00    -0.206 F 
HETATM   19  C15 UNL     1      28.271  -1.162  53.129  1.00  0.00     0.043 A 
HETATM   20  C14 UNL     1      27.204  -0.321  52.799  1.00  0.00     0.017 A 
ENDBRANCH   1  14
TORSDOF 4
ENDMDL
MODEL 8
REMARK VINA RESULT:      -6.6      4.991      7.578
REMARK  4 active torsions:
REMARK  status: ('A' for Active; 'I' for Inactive)
REMARK    1  A    between atoms: C4_5  and  C5_6 
REMARK    2  A    between atoms: N1_8  and  C7_9 
REMARK    3  A    between atoms: C7_9  and  C8_10 
REMARK    4  A    between atoms: C8_10  and  N2_11 
ROOT
HETATM    1  C5  UNL     1      25.203   0.158  53.326  1.00  0.00     0.084 A 
HETATM    2  C6  UNL     1      24.689   1.334  52.823  1.00  0.00     0.124 A 
HETATM    3  N1  UNL     1      23.344   1.344  52.845  1.00  0.00    -0.347 N 
HETATM    4  C13 UNL     1      22.994   0.149  53.373  1.00  0.00     0.210 A 
HETATM    5  N3  UNL     1      24.101  -0.564  53.663  1.00  0.00    -0.242 NA
ENDROOT
BRANCH   3   6
HETATM    6  C7  UNL     1      22.387   2.336  52.432  1.00  0.00     0.159 C 
BRANCH   6   7
HETATM    7  C8  UNL     1      22.906   3.177  51.293  1.00  0.00     0.292 C 
BRANCH   7   8
HETATM    8  N2  UNL     1      22.778   4.601  51.523  1.00  0.00     0.094 N 
HETATM    9  C9  UNL     1      23.907   5.308  50.993  1.00  0.00     0.298 C 
HETATM   10  C10 UNL     1      23.459   5.996  49.712  1.00  0.00     0.198 C 
HETATM   11  O1  UNL     1      22.587   7.010  50.058  1.00  0.00    -0.388 OA
HETATM   12  C11 UNL     1      21.622   6.643  50.970  1.00  0.00     0.198 C 
HETATM   13  C12 UNL     1      21.508   5.131  51.091  1.00  0.00     0.298 C 
ENDBRANCH   7   8
ENDBRANCH   6   7
ENDBRANCH   3   6
BRANCH   1  14
HETATM   14  C4  UNL     1      26.606  -0.233  53.469  1.00  0.00    -0.006 A 
HETATM   15  C3  UNL     1      27.139  -1.334  52.806  1.00  0.00     0.017 A 
HETATM   16  C2  UNL     1      28.487  -1.656  52.983  1.00  0.00     0.043 A 
HETATM   17  C1  UNL     1      29.228  -0.854  53.818  1.00  0.00     0.116 A 
HETATM   18  F1  UNL     1      30.555  -1.144  54.014  1.00  0.00    -0.206 F 
HETATM   19  C15 UNL     1      28.759   0.247  54.502  1.00  0.00     0.043 A 
HETATM   20  C14 UNL     1      27.405   0.531  54.295  1.00  0.00     0.017 A 
ENDBRANCH   1  14
TORSDOF 4
ENDMDL
MODEL 9
REMARK VINA RESULT:      -6.5      4.494      8.032
REMARK  4 active torsions:
REMARK  status: ('A' for Active; 'I' for Inactive)
REMARK    1  A    between atoms: C4_5  and  C5_6 
REMARK    2  A    between atoms: N1_8  and  C7_9 
REMARK    3  A    between atoms: C7_9  and  C8_10 
REMARK    4  A    between atoms: C8_10  and  N2_11 
ROOT
HETATM    1  C5  UNL     1      26.383   2.346  51.417  1.00  0.00     0.084 A 
HETATM    2  C6  UNL     1      25.007   2.351  51.345  1.00  0.00     0.124 A 
HETATM    3  N1  UNL     1      24.556   3.192  50.395  1.00  0.00    -0.347 N 
HETATM    4  C13 UNL     1      25.670   3.733  49.851  1.00  0.00     0.210 A 
HETATM    5  N3  UNL     1      26.765   3.231  50.458  1.00  0.00    -0.242 NA
ENDROOT
BRANCH   3   6
HETATM    6  C7  UNL     1      23.224   3.524  49.964  1.00  0.00     0.159 C 
BRANCH   6   7
HETATM    7  C8  UNL     1      22.447   2.301  49.549  1.00  0.00     0.292 C 
BRANCH   7   8
HETATM    8  N2  UNL     1      21.319   2.014  50.412  1.00  0.00     0.094 N 
HETATM    9  C9  UNL     1      21.368   0.662  50.885  1.00  0.00     0.298 C 
HETATM   10  C10 UNL     1      21.814   0.699  52.340  1.00  0.00     0.198 C 
HETATM   11  O1  UNL     1      20.791   1.256  53.082  1.00  0.00    -0.388 OA
HETATM   12  C11 UNL     1      20.252   2.401  52.539  1.00  0.00     0.198 C 
HETATM   13  C12 UNL     1      21.150   2.990  51.461  1.00  0.00     0.298 C 
ENDBRANCH   7   8
ENDBRANCH   6   7
ENDBRANCH   3   6
BRANCH   1  14
HETATM   14  C4  UNL     1      27.243   1.572  52.312  1.00  0.00    -0.006 A 
HETATM   15  C3  UNL     1      28.164   2.177  53.161  1.00  0.00     0.017 A 
HETATM   16  C2  UNL     1      28.957   1.383  53.993  1.00  0.00     0.043 A 
HETATM   17  C1  UNL     1      28.782   0.021  53.928  1.00  0.00     0.116 A 
HETATM   18  F1  UNL     1      29.546  -0.787  54.733  1.00  0.00    -0.206 F 
HETATM   19  C15 UNL     1      27.889  -0.637  53.110  1.00  0.00     0.043 A 
HETATM   20  C14 UNL     1      27.117   0.197  52.295  1.00  0.00     0.017 A 
ENDBRANCH   1  14
TORSDOF 4
ENDMDL
