MODEL 1
REMARK VINA RESULT:      -7.7      0.000      0.000
REMARK  7 active torsions:
REMARK  status: ('A' for Active; 'I' for Inactive)
REMARK    1  A    between atoms: O1_2  and  C2_3 
REMARK    2  A    between atoms: C2_3  and  C3_5 
REMARK    3  A    between atoms: C3_5  and  O3_24 
REMARK    4  A    between atoms: C4_6  and  C5_7 
REMARK    5  A    between atoms: C8_12  and  N3_13 
REMARK    6  A    between atoms: N3_13  and  C9_14 
REMARK    7  A    between atoms: C12_17  and  N4_18 
REMARK       I    between atoms: N4_18  and  C13_19 
ROOT
HETATM    1  C5  UNL     1      25.887   1.374  51.843  1.00  0.00     0.030 A 
HETATM    2  C6  UNL     1      26.275   2.426  51.025  1.00  0.00     0.133 A 
HETATM    3  N1  UNL     1      25.487   3.519  50.852  1.00  0.00    -0.253 NA
HETATM    4  C7  UNL     1      24.298   3.614  51.476  1.00  0.00     0.234 A 
HETATM    5  N2  UNL     1      23.868   2.607  52.293  1.00  0.00    -0.224 NA
HETATM    6  C8  UNL     1      24.665   1.508  52.463  1.00  0.00     0.141 A 
ENDROOT
BRANCH   6   7
HETATM    7  N3  UNL     1      24.004   0.622  53.358  1.00  0.00    -0.340 N 
HETATM    8  H8  UNL     1      24.479   0.140  54.154  1.00  0.00     0.167 HD
BRANCH   7   9
HETATM    9  C9  UNL     1      22.599   0.385  53.144  1.00  0.00     0.033 A 
HETATM   10  C10 UNL     1      22.127   0.307  51.842  1.00  0.00     0.032 A 
HETATM   11  C11 UNL     1      20.757   0.052  51.710  1.00  0.00     0.032 A 
HETATM   12  C12 UNL     1      19.899  -0.117  52.785  1.00  0.00     0.034 A 
HETATM   13  C15 UNL     1      20.403  -0.033  54.068  1.00  0.00     0.032 A 
HETATM   14  C16 UNL     1      21.756   0.219  54.232  1.00  0.00     0.032 A 
BRANCH  12  15
HETATM   15  N4  UNL     1      18.552  -0.372  52.418  1.00  0.00    -0.328 N 
HETATM   16  C13 UNL     1      17.529  -1.293  52.779  1.00  0.00     0.218 C 
HETATM   17  C14 UNL     1      16.245  -1.102  52.047  1.00  0.00     0.117 C 
HETATM   18  O2  UNL     1      17.852  -2.121  53.651  1.00  0.00    -0.274 OA
HETATM   19  H11 UNL     1      18.416   0.379  51.693  1.00  0.00     0.169 HD
ENDBRANCH  12  15
ENDBRANCH   7   9
ENDBRANCH   6   7
BRANCH   1  20
HETATM   20  C4  UNL     1      26.612   0.145  52.084  1.00  0.00     0.054 C 
HETATM   21  C3  UNL     1      27.287  -0.280  53.144  1.00  0.00     0.106 C 
BRANCH  21  22
HETATM   22  C2  UNL     1      27.622   0.234  54.494  1.00  0.00     0.364 C 
HETATM   23  F1  UNL     1      26.613  -0.098  55.378  1.00  0.00    -0.212 F 
BRANCH  22  24
HETATM   24  O1  UNL     1      27.806   1.614  54.520  1.00  0.00    -0.356 OA
HETATM   25  C1  UNL     1      29.020   1.983  53.948  1.00  0.00     0.205 C 
ENDBRANCH  22  24
ENDBRANCH  21  22
BRANCH  21  26
HETATM   26  O3  UNL     1      27.889  -1.533  53.103  1.00  0.00    -0.355 OA
HETATM   27  C17 UNL     1      29.248  -1.736  53.353  1.00  0.00     0.209 C 
ENDBRANCH  21  26
ENDBRANCH   1  20
TORSDOF 7
ENDMDL
MODEL 2
REMARK VINA RESULT:      -7.6      3.138      7.415
REMARK  7 active torsions:
REMARK  status: ('A' for Active; 'I' for Inactive)
REMARK    1  A    between atoms: O1_2  and  C2_3 
REMARK    2  A    between atoms: C2_3  and  C3_5 
REMARK    3  A    between atoms: C3_5  and  O3_24 
REMARK    4  A    between atoms: C4_6  and  C5_7 
REMARK    5  A    between atoms: C8_12  and  N3_13 
REMARK    6  A    between atoms: N3_13  and  C9_14 
REMARK    7  A    between atoms: C12_17  and  N4_18 
REMARK       I    between atoms: N4_18  and  C13_19 
ROOT
HETATM    1  C5  UNL     1      21.765   1.272  49.904  1.00  0.00     0.030 A 
HETATM    2  C6  UNL     1      21.407   1.240  48.564  1.00  0.00     0.133 A 
HETATM    3  N1  UNL     1      21.909   2.133  47.672  1.00  0.00    -0.253 NA
HETATM    4  C7  UNL     1      22.778   3.081  48.066  1.00  0.00     0.234 A 
HETATM    5  N2  UNL     1      23.165   3.158  49.374  1.00  0.00    -0.224 NA
HETATM    6  C8  UNL     1      22.655   2.257  50.269  1.00  0.00     0.141 A 
ENDROOT
BRANCH   6   7
HETATM    7  N3  UNL     1      23.217   2.540  51.544  1.00  0.00    -0.340 N 
HETATM    8  H8  UNL     1      22.821   3.241  52.210  1.00  0.00     0.167 HD
BRANCH   7   9
HETATM    9  C9  UNL     1      24.398   1.811  51.928  1.00  0.00     0.033 A 
HETATM   10  C10 UNL     1      25.617   2.181  51.379  1.00  0.00     0.032 A 
HETATM   11  C11 UNL     1      26.726   1.444  51.815  1.00  0.00     0.032 A 
HETATM   12  C12 UNL     1      26.647   0.408  52.733  1.00  0.00     0.034 A 
HETATM   13  C15 UNL     1      25.418   0.067  53.259  1.00  0.00     0.032 A 
HETATM   14  C16 UNL     1      24.301   0.777  52.847  1.00  0.00     0.032 A 
BRANCH  12  15
HETATM   15  N4  UNL     1      27.896  -0.194  53.035  1.00  0.00    -0.328 N 
HETATM   16  C13 UNL     1      28.858  -0.133  54.082  1.00  0.00     0.218 C 
HETATM   17  C14 UNL     1      30.040  -1.019  53.880  1.00  0.00     0.117 C 
HETATM   18  O2  UNL     1      28.575   0.646  55.010  1.00  0.00    -0.274 OA
HETATM   19  H11 UNL     1      28.010  -0.810  52.189  1.00  0.00     0.169 HD
ENDBRANCH  12  15
ENDBRANCH   7   9
ENDBRANCH   6   7
BRANCH   1  20
HETATM   20  C4  UNL     1      21.279   0.407  50.958  1.00  0.00     0.054 C 
HETATM   21  C3  UNL     1      20.328   0.582  51.866  1.00  0.00     0.106 C 
BRANCH  21  22
HETATM   22  C2  UNL     1      19.370   1.650  52.240  1.00  0.00     0.364 C 
HETATM   23  F1  UNL     1      18.476   1.852  51.205  1.00  0.00    -0.212 F 
BRANCH  22  24
HETATM   24  O1  UNL     1      19.993   2.859  52.539  1.00  0.00    -0.356 OA
HETATM   25  C1  UNL     1      19.682   3.845  51.605  1.00  0.00     0.205 C 
ENDBRANCH  22  24
ENDBRANCH  21  22
BRANCH  21  26
HETATM   26  O3  UNL     1      20.060  -0.441  52.768  1.00  0.00    -0.355 OA
HETATM   27  C17 UNL     1      18.765  -0.821  53.130  1.00  0.00     0.209 C 
ENDBRANCH  21  26
ENDBRANCH   1  20
TORSDOF 7
ENDMDL
MODEL 3
REMARK VINA RESULT:      -7.6      4.040      7.181
REMARK  7 active torsions:
REMARK  status: ('A' for Active; 'I' for Inactive)
REMARK    1  A    between atoms: O1_2  and  C2_3 
REMARK    2  A    between atoms: C2_3  and  C3_5 
REMARK    3  A    between atoms: C3_5  and  O3_24 
REMARK    4  A    between atoms: C4_6  and  C5_7 
REMARK    5  A    between atoms: C8_12  and  N3_13 
REMARK    6  A    between atoms: N3_13  and  C9_14 
REMARK    7  A    between atoms: C12_17  and  N4_18 
REMARK       I    between atoms: N4_18  and  C13_19 
ROOT
HETATM    1  C5  UNL     1      23.020   3.790  49.362  1.00  0.00     0.030 A 
HETATM    2  C6  UNL     1      22.641   3.655  48.034  1.00  0.00     0.133 A 
HETATM    3  N1  UNL     1      22.108   2.499  47.561  1.00  0.00    -0.253 NA
HETATM    4  C7  UNL     1      21.929   1.442  48.374  1.00  0.00     0.234 A 
HETATM    5  N2  UNL     1      22.284   1.521  49.691  1.00  0.00    -0.224 NA
HETATM    6  C8  UNL     1      22.822   2.687  50.163  1.00  0.00     0.141 A 
ENDROOT
BRANCH   6   7
HETATM    7  N3  UNL     1      23.092   2.517  51.548  1.00  0.00    -0.340 N 
HETATM    8  H8  UNL     1      22.483   2.895  52.309  1.00  0.00     0.167 HD
BRANCH   7   9
HETATM    9  C9  UNL     1      24.273   1.777  51.911  1.00  0.00     0.033 A 
HETATM   10  C10 UNL     1      25.510   2.260  51.513  1.00  0.00     0.032 A 
HETATM   11  C11 UNL     1      26.616   1.503  51.921  1.00  0.00     0.032 A 
HETATM   12  C12 UNL     1      26.517   0.342  52.671  1.00  0.00     0.034 A 
HETATM   13  C15 UNL     1      25.269  -0.111  53.050  1.00  0.00     0.032 A 
HETATM   14  C16 UNL     1      24.155   0.616  52.662  1.00  0.00     0.032 A 
BRANCH  12  15
HETATM   15  N4  UNL     1      27.766  -0.259  52.976  1.00  0.00    -0.328 N 
HETATM   16  C13 UNL     1      28.758  -0.148  53.991  1.00  0.00     0.218 C 
HETATM   17  C14 UNL     1      29.922  -1.061  53.812  1.00  0.00     0.117 C 
HETATM   18  O2  UNL     1      28.510   0.691  54.876  1.00  0.00    -0.274 OA
HETATM   19  H11 UNL     1      27.848  -0.927  52.166  1.00  0.00     0.169 HD
ENDBRANCH  12  15
ENDBRANCH   7   9
ENDBRANCH   6   7
BRANCH   1  20
HETATM   20  C4  UNL     1      23.628   4.947  49.982  1.00  0.00     0.054 C 
HETATM   21  C3  UNL     1      24.787   5.553  49.758  1.00  0.00     0.106 C 
BRANCH  21  22
HETATM   22  C2  UNL     1      25.946   5.374  48.850  1.00  0.00     0.364 C 
HETATM   23  F1  UNL     1      26.567   4.172  49.126  1.00  0.00    -0.212 F 
BRANCH  22  24
HETATM   24  O1  UNL     1      26.882   6.400  48.956  1.00  0.00    -0.356 OA
HETATM   25  C1  UNL     1      28.080   6.072  48.326  1.00  0.00     0.205 C 
ENDBRANCH  22  24
ENDBRANCH  21  22
BRANCH  21  26
HETATM   26  O3  UNL     1      25.120   6.674  50.510  1.00  0.00    -0.355 OA
HETATM   27  C17 UNL     1      24.181   7.620  50.929  1.00  0.00     0.209 C 
ENDBRANCH  21  26
ENDBRANCH   1  20
TORSDOF 7
ENDMDL
MODEL 4
REMARK VINA RESULT:      -7.5      3.867      8.062
REMARK  7 active torsions:
REMARK  status: ('A' for Active; 'I' for Inactive)
REMARK    1  A    between atoms: O1_2  and  C2_3 
REMARK    2  A    between atoms: C2_3  and  C3_5 
REMARK    3  A    between atoms: C3_5  and  O3_24 
REMARK    4  A    between atoms: C4_6  and  C5_7 
REMARK    5  A    between atoms: C8_12  and  N3_13 
REMARK    6  A    between atoms: N3_13  and  C9_14 
REMARK    7  A    between atoms: C12_17  and  N4_18 
REMARK       I    between atoms: N4_18  and  C13_19 
ROOT
HETATM    1  C5  UNL     1      25.428   1.979  52.596  1.00  0.00     0.030 A 
HETATM    2  C6  UNL     1      25.888   1.795  53.892  1.00  0.00     0.133 A 
HETATM    3  N1  UNL     1      27.197   1.962  54.213  1.00  0.00    -0.253 NA
HETATM    4  C7  UNL     1      28.094   2.316  53.274  1.00  0.00     0.234 A 
HETATM    5  N2  UNL     1      27.695   2.510  51.981  1.00  0.00    -0.224 NA
HETATM    6  C8  UNL     1      26.375   2.339  51.663  1.00  0.00     0.141 A 
ENDROOT
BRANCH   6   7
HETATM    7  N3  UNL     1      26.220   2.609  50.276  1.00  0.00    -0.340 N 
HETATM    8  H8  UNL     1      26.089   1.867  49.552  1.00  0.00     0.167 HD
BRANCH   7   9
HETATM    9  C9  UNL     1      26.246   3.987  49.859  1.00  0.00     0.033 A 
HETATM   10  C10 UNL     1      25.279   4.851  50.351  1.00  0.00     0.032 A 
HETATM   11  C11 UNL     1      25.379   6.180  49.922  1.00  0.00     0.032 A 
HETATM   12  C12 UNL     1      26.366   6.638  49.062  1.00  0.00     0.034 A 
HETATM   13  C15 UNL     1      27.312   5.751  48.591  1.00  0.00     0.032 A 
HETATM   14  C16 UNL     1      27.240   4.427  48.997  1.00  0.00     0.032 A 
BRANCH  12  15
HETATM   15  N4  UNL     1      26.279   8.023  48.765  1.00  0.00    -0.328 N 
HETATM   16  C13 UNL     1      26.697   9.246  49.362  1.00  0.00     0.218 C 
HETATM   17  C14 UNL     1      26.325  10.464  48.587  1.00  0.00     0.117 C 
HETATM   18  O2  UNL     1      27.311   9.122  50.437  1.00  0.00    -0.274 OA
HETATM   19  H11 UNL     1      25.750   7.981  47.856  1.00  0.00     0.169 HD
ENDBRANCH  12  15
ENDBRANCH   7   9
ENDBRANCH   6   7
BRANCH   1  20
HETATM   20  C4  UNL     1      24.074   1.800  52.117  1.00  0.00     0.054 C 
HETATM   21  C3  UNL     1      23.134   0.928  52.456  1.00  0.00     0.106 C 
BRANCH  21  22
HETATM   22  C2  UNL     1      22.997  -0.206  53.403  1.00  0.00     0.364 C 
HETATM   23  F1  UNL     1      22.739  -1.366  52.699  1.00  0.00    -0.212 F 
BRANCH  22  24
HETATM   24  O1  UNL     1      21.985  -0.012  54.340  1.00  0.00    -0.356 OA
HETATM   25  C1  UNL     1      21.252  -1.177  54.555  1.00  0.00     0.205 C 
ENDBRANCH  22  24
ENDBRANCH  21  22
BRANCH  21  26
HETATM   26  O3  UNL     1      21.895   0.992  51.828  1.00  0.00    -0.355 OA
HETATM   27  C17 UNL     1      21.739   0.958  50.441  1.00  0.00     0.209 C 
ENDBRANCH  21  26
ENDBRANCH   1  20
TORSDOF 7
ENDMDL
MODEL 5
REMARK VINA RESULT:      -7.4      3.145      5.417
REMARK  7 active torsions:
REMARK  status: ('A' for Active; 'I' for Inactive)
REMARK    1  A    between atoms: O1_2  and  C2_3 
REMARK    2  A    between atoms: C2_3  and  C3_5 
REMARK    3  A    between atoms: C3_5  and  O3_24 
REMARK    4  A    between atoms: C4_6  and  C5_7 
REMARK    5  A    between atoms: C8_12  and  N3_13 
REMARK    6  A    between atoms: N3_13  and  C9_14 
REMARK    7  A    between atoms: C12_17  and  N4_18 
REMARK       I    between atoms: N4_18  and  C13_19 
ROOT
HETATM    1  C5  UNL     1      23.735  -0.185  53.437  1.00  0.00     0.030 A 
HETATM    2  C6  UNL     1      23.854  -0.767  54.691  1.00  0.00     0.133 A 
HETATM    3  N1  UNL     1      22.799  -1.374  55.295  1.00  0.00    -0.253 NA
HETATM    4  C7  UNL     1      21.600  -1.430  54.688  1.00  0.00     0.234 A 
HETATM    5  N2  UNL     1      21.428  -0.873  53.453  1.00  0.00    -0.224 NA
HETATM    6  C8  UNL     1      22.493  -0.261  52.849  1.00  0.00     0.141 A 
ENDROOT
BRANCH   6   7
HETATM    7  N3  UNL     1      22.061   0.221  51.583  1.00  0.00    -0.340 N 
HETATM    8  H8  UNL     1      21.717  -0.396  50.814  1.00  0.00     0.167 HD
BRANCH   7   9
HETATM    9  C9  UNL     1      22.104   1.644  51.363  1.00  0.00     0.033 A 
HETATM   10  C10 UNL     1      22.749   2.124  50.233  1.00  0.00     0.032 A 
HETATM   11  C11 UNL     1      22.731   3.515  50.070  1.00  0.00     0.032 A 
HETATM   12  C12 UNL     1      22.119   4.384  50.959  1.00  0.00     0.034 A 
HETATM   13  C15 UNL     1      21.486   3.872  52.074  1.00  0.00     0.032 A 
HETATM   14  C16 UNL     1      21.486   2.499  52.263  1.00  0.00     0.032 A 
BRANCH  12  15
HETATM   15  N4  UNL     1      22.219   5.752  50.594  1.00  0.00    -0.328 N 
HETATM   16  C13 UNL     1      23.154   6.811  50.764  1.00  0.00     0.218 C 
HETATM   17  C14 UNL     1      22.736   8.103  50.148  1.00  0.00     0.117 C 
HETATM   18  O2  UNL     1      24.181   6.508  51.398  1.00  0.00    -0.274 OA
HETATM   19  H11 UNL     1      21.308   5.870  50.079  1.00  0.00     0.169 HD
ENDBRANCH  12  15
ENDBRANCH   7   9
ENDBRANCH   6   7
BRANCH   1  20
HETATM   20  C4  UNL     1      24.764   0.520  52.703  1.00  0.00     0.054 C 
HETATM   21  C3  UNL     1      26.048   0.245  52.512  1.00  0.00     0.106 C 
BRANCH  21  22
HETATM   22  C2  UNL     1      27.001  -0.817  52.915  1.00  0.00     0.364 C 
HETATM   23  F1  UNL     1      26.494  -2.052  52.560  1.00  0.00    -0.212 F 
BRANCH  22  24
HETATM   24  O1  UNL     1      27.268  -0.817  54.282  1.00  0.00    -0.356 OA
HETATM   25  C1  UNL     1      28.367  -0.019  54.593  1.00  0.00     0.205 C 
ENDBRANCH  22  24
ENDBRANCH  21  22
BRANCH  21  26
HETATM   26  O3  UNL     1      26.816   1.109  51.739  1.00  0.00    -0.355 OA
HETATM   27  C17 UNL     1      26.331   2.317  51.232  1.00  0.00     0.209 C 
ENDBRANCH  21  26
ENDBRANCH   1  20
TORSDOF 7
ENDMDL
MODEL 6
REMARK VINA RESULT:      -7.4      1.955      2.478
REMARK  7 active torsions:
REMARK  status: ('A' for Active; 'I' for Inactive)
REMARK    1  A    between atoms: O1_2  and  C2_3 
REMARK    2  A    between atoms: C2_3  and  C3_5 
REMARK    3  A    between atoms: C3_5  and  O3_24 
REMARK    4  A    between atoms: C4_6  and  C5_7 
REMARK    5  A    between atoms: C8_12  and  N3_13 
REMARK    6  A    between atoms: N3_13  and  C9_14 
REMARK    7  A    between atoms: C12_17  and  N4_18 
REMARK       I    between atoms: N4_18  and  C13_19 
ROOT
HETATM    1  C5  UNL     1      25.777   2.097  52.302  1.00  0.00     0.030 A 
HETATM    2  C6  UNL     1      26.841   2.249  51.425  1.00  0.00     0.133 A 
HETATM    3  N1  UNL     1      26.794   3.137  50.397  1.00  0.00    -0.253 NA
HETATM    4  C7  UNL     1      25.705   3.901  50.200  1.00  0.00     0.234 A 
HETATM    5  N2  UNL     1      24.628   3.792  51.035  1.00  0.00    -0.224 NA
HETATM    6  C8  UNL     1      24.680   2.895  52.067  1.00  0.00     0.141 A 
ENDROOT
BRANCH   6   7
HETATM    7  N3  UNL     1      23.456   2.982  52.785  1.00  0.00    -0.340 N 
HETATM    8  H8  UNL     1      23.358   3.457  53.710  1.00  0.00     0.167 HD
BRANCH   7   9
HETATM    9  C9  UNL     1      22.291   2.378  52.190  1.00  0.00     0.033 A 
HETATM   10  C10 UNL     1      21.102   3.090  52.182  1.00  0.00     0.032 A 
HETATM   11  C11 UNL     1      20.018   2.452  51.566  1.00  0.00     0.032 A 
HETATM   12  C12 UNL     1      20.093   1.192  50.993  1.00  0.00     0.034 A 
HETATM   13  C15 UNL     1      21.293   0.511  51.019  1.00  0.00     0.032 A 
HETATM   14  C16 UNL     1      22.385   1.116  51.621  1.00  0.00     0.032 A 
BRANCH  12  15
HETATM   15  N4  UNL     1      18.875   0.742  50.421  1.00  0.00    -0.328 N 
HETATM   16  C13 UNL     1      17.827  -0.156  50.770  1.00  0.00     0.218 C 
HETATM   17  C14 UNL     1      16.739  -0.252  49.756  1.00  0.00     0.117 C 
HETATM   18  O2  UNL     1      17.970  -0.728  51.866  1.00  0.00    -0.274 OA
HETATM   19  H11 UNL     1      18.882   1.290  49.522  1.00  0.00     0.169 HD
ENDBRANCH  12  15
ENDBRANCH   7   9
ENDBRANCH   6   7
BRANCH   1  20
HETATM   20  C4  UNL     1      25.686   1.169  53.408  1.00  0.00     0.054 C 
HETATM   21  C3  UNL     1      26.279   0.002  53.624  1.00  0.00     0.106 C 
BRANCH  21  22
HETATM   22  C2  UNL     1      27.243  -0.872  52.913  1.00  0.00     0.364 C 
HETATM   23  F1  UNL     1      26.567  -1.925  52.328  1.00  0.00    -0.212 F 
BRANCH  22  24
HETATM   24  O1  UNL     1      28.234  -1.381  53.748  1.00  0.00    -0.356 OA
HETATM   25  C1  UNL     1      29.350  -0.550  53.792  1.00  0.00     0.205 C 
ENDBRANCH  22  24
ENDBRANCH  21  22
BRANCH  21  26
HETATM   26  O3  UNL     1      26.009  -0.685  54.802  1.00  0.00    -0.355 OA
HETATM   27  C17 UNL     1      24.729  -1.113  55.161  1.00  0.00     0.209 C 
ENDBRANCH  21  26
ENDBRANCH   1  20
TORSDOF 7
ENDMDL
MODEL 7
REMARK VINA RESULT:      -7.0      3.612      7.645
REMARK  7 active torsions:
REMARK  status: ('A' for Active; 'I' for Inactive)
REMARK    1  A    between atoms: O1_2  and  C2_3 
REMARK    2  A    between atoms: C2_3  and  C3_5 
REMARK    3  A    between atoms: C3_5  and  O3_24 
REMARK    4  A    between atoms: C4_6  and  C5_7 
REMARK    5  A    between atoms: C8_12  and  N3_13 
REMARK    6  A    between atoms: N3_13  and  C9_14 
REMARK    7  A    between atoms: C12_17  and  N4_18 
REMARK       I    between atoms: N4_18  and  C13_19 
ROOT
HETATM    1  C5  UNL     1      22.228   2.722  51.931  1.00  0.00     0.030 A 
HETATM    2  C6  UNL     1      21.130   3.160  52.657  1.00  0.00     0.133 A 
HETATM    3  N1  UNL     1      20.061   3.738  52.050  1.00  0.00    -0.253 NA
HETATM    4  C7  UNL     1      20.037   3.903  50.714  1.00  0.00     0.234 A 
HETATM    5  N2  UNL     1      21.092   3.489  49.952  1.00  0.00    -0.224 NA
HETATM    6  C8  UNL     1      22.167   2.909  50.569  1.00  0.00     0.141 A 
ENDROOT
BRANCH   6   7
HETATM    7  N3  UNL     1      23.113   2.562  49.565  1.00  0.00    -0.340 N 
HETATM    8  H8  UNL     1      23.025   1.722  48.949  1.00  0.00     0.167 HD
BRANCH   7   9
HETATM    9  C9  UNL     1      24.253   3.426  49.398  1.00  0.00     0.033 A 
HETATM   10  C10 UNL     1      24.047   4.722  48.949  1.00  0.00     0.032 A 
HETATM   11  C11 UNL     1      25.198   5.512  48.833  1.00  0.00     0.032 A 
HETATM   12  C12 UNL     1      26.473   5.062  49.138  1.00  0.00     0.034 A 
HETATM   13  C15 UNL     1      26.641   3.767  49.582  1.00  0.00     0.032 A 
HETATM   14  C16 UNL     1      25.522   2.959  49.708  1.00  0.00     0.032 A 
BRANCH  12  15
HETATM   15  N4  UNL     1      27.490   6.035  48.952  1.00  0.00    -0.328 N 
HETATM   16  C13 UNL     1      28.818   6.071  48.441  1.00  0.00     0.218 C 
HETATM   17  C14 UNL     1      29.455   7.418  48.485  1.00  0.00     0.117 C 
HETATM   18  O2  UNL     1      29.253   4.978  48.034  1.00  0.00    -0.274 OA
HETATM   19  H11 UNL     1      26.999   6.886  49.331  1.00  0.00     0.169 HD
ENDBRANCH  12  15
ENDBRANCH   7   9
ENDBRANCH   6   7
BRANCH   1  20
HETATM   20  C4  UNL     1      23.438   2.126  52.456  1.00  0.00     0.054 C 
HETATM   21  C3  UNL     1      23.683   0.909  52.924  1.00  0.00     0.106 C 
BRANCH  21  22
HETATM   22  C2  UNL     1      22.919  -0.344  53.137  1.00  0.00     0.364 C 
HETATM   23  F1  UNL     1      22.072  -0.557  52.067  1.00  0.00    -0.212 F 
BRANCH  22  24
HETATM   24  O1  UNL     1      22.169  -0.331  54.310  1.00  0.00    -0.356 OA
HETATM   25  C1  UNL     1      22.588  -1.315  55.202  1.00  0.00     0.205 C 
ENDBRANCH  22  24
ENDBRANCH  21  22
BRANCH  21  26
HETATM   26  O3  UNL     1      24.966   0.600  53.363  1.00  0.00    -0.355 OA
HETATM   27  C17 UNL     1      25.997   0.219  52.502  1.00  0.00     0.209 C 
ENDBRANCH  21  26
ENDBRANCH   1  20
TORSDOF 7
ENDMDL
MODEL 8
REMARK VINA RESULT:      -7.0      2.903      4.037
REMARK  7 active torsions:
REMARK  status: ('A' for Active; 'I' for Inactive)
REMARK    1  A    between atoms: O1_2  and  C2_3 
REMARK    2  A    between atoms: C2_3  and  C3_5 
REMARK    3  A    between atoms: C3_5  and  O3_24 
REMARK    4  A    between atoms: C4_6  and  C5_7 
REMARK    5  A    between atoms: C8_12  and  N3_13 
REMARK    6  A    between atoms: N3_13  and  C9_14 
REMARK    7  A    between atoms: C12_17  and  N4_18 
REMARK       I    between atoms: N4_18  and  C13_19 
ROOT
HETATM    1  C5  UNL     1      24.346  -0.113  53.953  1.00  0.00     0.030 A 
HETATM    2  C6  UNL     1      24.348  -0.874  55.114  1.00  0.00     0.133 A 
HETATM    3  N1  UNL     1      23.254  -1.579  55.503  1.00  0.00    -0.253 NA
HETATM    4  C7  UNL     1      22.129  -1.562  54.767  1.00  0.00     0.234 A 
HETATM    5  N2  UNL     1      22.072  -0.830  53.614  1.00  0.00    -0.224 NA
HETATM    6  C8  UNL     1      23.176  -0.120  53.227  1.00  0.00     0.141 A 
ENDROOT
BRANCH   6   7
HETATM    7  N3  UNL     1      22.866   0.538  52.005  1.00  0.00    -0.340 N 
HETATM    8  H8  UNL     1      23.541   0.640  51.214  1.00  0.00     0.167 HD
BRANCH   7   9
HETATM    9  C9  UNL     1      21.544   1.091  51.863  1.00  0.00     0.033 A 
HETATM   10  C10 UNL     1      21.228   2.250  52.556  1.00  0.00     0.032 A 
HETATM   11  C11 UNL     1      19.934   2.744  52.352  1.00  0.00     0.032 A 
HETATM   12  C12 UNL     1      19.003   2.140  51.520  1.00  0.00     0.034 A 
HETATM   13  C15 UNL     1      19.351   0.987  50.846  1.00  0.00     0.032 A 
HETATM   14  C16 UNL     1      20.626   0.473  51.027  1.00  0.00     0.032 A 
BRANCH  12  15
HETATM   15  N4  UNL     1      17.757   2.815  51.459  1.00  0.00    -0.328 N 
HETATM   16  C13 UNL     1      17.228   3.973  50.822  1.00  0.00     0.218 C 
HETATM   17  C14 UNL     1      15.789   4.231  51.116  1.00  0.00     0.117 C 
HETATM   18  O2  UNL     1      18.038   4.599  50.115  1.00  0.00    -0.274 OA
HETATM   19  H11 UNL     1      17.182   2.194  52.086  1.00  0.00     0.169 HD
ENDBRANCH  12  15
ENDBRANCH   7   9
ENDBRANCH   6   7
BRANCH   1  20
HETATM   20  C4  UNL     1      25.425   0.707  53.447  1.00  0.00     0.054 C 
HETATM   21  C3  UNL     1      26.615   0.385  52.958  1.00  0.00     0.106 C 
BRANCH  21  22
HETATM   22  C2  UNL     1      27.384  -0.858  52.707  1.00  0.00     0.364 C 
HETATM   23  F1  UNL     1      26.522  -1.860  52.303  1.00  0.00    -0.212 F 
BRANCH  22  24
HETATM   24  O1  UNL     1      28.090  -1.295  53.825  1.00  0.00    -0.356 OA
HETATM   25  C1  UNL     1      29.460  -1.344  53.583  1.00  0.00     0.205 C 
ENDBRANCH  22  24
ENDBRANCH  21  22
BRANCH  21  26
HETATM   26  O3  UNL     1      27.465   1.398  52.528  1.00  0.00    -0.355 OA
HETATM   27  C17 UNL     1      28.181   2.218  53.402  1.00  0.00     0.209 C 
ENDBRANCH  21  26
ENDBRANCH   1  20
TORSDOF 7
ENDMDL
MODEL 9
REMARK VINA RESULT:      -6.9      3.420      7.210
REMARK  7 active torsions:
REMARK  status: ('A' for Active; 'I' for Inactive)
REMARK    1  A    between atoms: O1_2  and  C2_3 
REMARK    2  A    between atoms: C2_3  and  C3_5 
REMARK    3  A    between atoms: C3_5  and  O3_24 
REMARK    4  A    between atoms: C4_6  and  C5_7 
REMARK    5  A    between atoms: C8_12  and  N3_13 
REMARK    6  A    between atoms: N3_13  and  C9_14 
REMARK    7  A    between atoms: C12_17  and  N4_18 
REMARK       I    between atoms: N4_18  and  C13_19 
ROOT
HETATM    1  C5  UNL     1      22.390   2.492  50.258  1.00  0.00     0.030 A 
HETATM    2  C6  UNL     1      21.580   2.154  49.182  1.00  0.00     0.133 A 
HETATM    3  N1  UNL     1      20.502   1.341  49.332  1.00  0.00    -0.253 NA
HETATM    4  C7  UNL     1      20.185   0.837  50.538  1.00  0.00     0.234 A 
HETATM    5  N2  UNL     1      20.948   1.138  51.631  1.00  0.00    -0.224 NA
HETATM    6  C8  UNL     1      22.033   1.957  51.475  1.00  0.00     0.141 A 
ENDROOT
BRANCH   6   7
HETATM    7  N3  UNL     1      22.644   2.122  52.748  1.00  0.00    -0.340 N 
HETATM    8  H8  UNL     1      22.181   2.593  53.558  1.00  0.00     0.167 HD
BRANCH   7   9
HETATM    9  C9  UNL     1      23.977   1.604  52.919  1.00  0.00     0.033 A 
HETATM   10  C10 UNL     1      24.203   0.255  52.689  1.00  0.00     0.032 A 
HETATM   11  C11 UNL     1      25.526  -0.174  52.851  1.00  0.00     0.032 A 
HETATM   12  C12 UNL     1      26.567   0.666  53.217  1.00  0.00     0.034 A 
HETATM   13  C15 UNL     1      26.306   2.003  53.439  1.00  0.00     0.032 A 
HETATM   14  C16 UNL     1      25.006   2.459  53.287  1.00  0.00     0.032 A 
BRANCH  12  15
HETATM   15  N4  UNL     1      27.826   0.019  53.317  1.00  0.00    -0.328 N 
HETATM   16  C13 UNL     1      28.938   0.032  54.204  1.00  0.00     0.218 C 
HETATM   17  C14 UNL     1      30.045  -0.887  53.814  1.00  0.00     0.117 C 
HETATM   18  O2  UNL     1      28.827   0.805  55.173  1.00  0.00    -0.274 OA
HETATM   19  H11 UNL     1      27.788  -0.587  52.456  1.00  0.00     0.169 HD
ENDBRANCH  12  15
ENDBRANCH   7   9
ENDBRANCH   6   7
BRANCH   1  20
HETATM   20  C4  UNL     1      23.580   3.314  50.228  1.00  0.00     0.054 C 
HETATM   21  C3  UNL     1      23.783   4.575  50.588  1.00  0.00     0.106 C 
BRANCH  21  22
HETATM   22  C2  UNL     1      22.975   5.686  51.147  1.00  0.00     0.364 C 
HETATM   23  F1  UNL     1      22.301   5.248  52.270  1.00  0.00    -0.212 F 
BRANCH  22  24
HETATM   24  O1  UNL     1      22.052   6.197  50.238  1.00  0.00    -0.356 OA
HETATM   25  C1  UNL     1      21.569   7.441  50.637  1.00  0.00     0.205 C 
ENDBRANCH  22  24
ENDBRANCH  21  22
BRANCH  21  26
HETATM   26  O3  UNL     1      25.056   5.118  50.457  1.00  0.00    -0.355 OA
HETATM   27  C17 UNL     1      25.543   5.646  49.259  1.00  0.00     0.209 C 
ENDBRANCH  21  26
ENDBRANCH   1  20
TORSDOF 7
ENDMDL
