MODEL 1
REMARK VINA RESULT:      -8.8      0.000      0.000
REMARK  4 active torsions:
REMARK  status: ('A' for Active; 'I' for Inactive)
REMARK    1  A    between atoms: C2_2  and  O1_3 
REMARK    2  A    between atoms: O1_3  and  C3_4 
REMARK    3  A    between atoms: C7_10  and  N3_11 
REMARK    4  A    between atoms: N3_11  and  C8_12 
ROOT
HETATM    1  C3  UNL     1      20.254  -0.384  53.228  1.00  0.00     0.107 A 
HETATM    2  C4  UNL     1      20.865  -0.946  54.326  1.00  0.00     0.072 A 
HETATM    3  C5  UNL     1      22.256  -0.876  54.414  1.00  0.00     0.077 A 
HETATM    4  N1  UNL     1      22.937  -1.402  55.439  1.00  0.00    -0.241 NA
HETATM    5  C6  UNL     1      24.283  -1.354  55.541  1.00  0.00     0.236 A 
HETATM    6  N2  UNL     1      24.935  -0.737  54.541  1.00  0.00    -0.223 NA
HETATM    7  C7  UNL     1      24.293  -0.193  53.488  1.00  0.00     0.144 A 
HETATM    8  C14 UNL     1      22.920  -0.248  53.395  1.00  0.00     0.075 A 
HETATM    9  C15 UNL     1      22.369   0.334  52.275  1.00  0.00     0.121 A 
HETATM   10  C16 UNL     1      20.979   0.250  52.211  1.00  0.00     0.136 A 
HETATM   11  O2  UNL     1      20.361   0.825  51.092  1.00  0.00    -0.344 OA
HETATM   12  C17 UNL     1      21.186   1.109  49.982  1.00  0.00     0.202 C 
HETATM   13  C18 UNL     1      22.439   1.835  50.436  1.00  0.00     0.202 C 
HETATM   14  O3  UNL     1      23.142   0.950  51.301  1.00  0.00    -0.345 OA
ENDROOT
BRANCH   7  15
HETATM   15  N3  UNL     1      25.208   0.385  52.559  1.00  0.00    -0.340 N 
HETATM   16  H8  UNL     1      24.819   0.612  51.633  1.00  0.00     0.167 HD
BRANCH  15  17
HETATM   17  C8  UNL     1      26.541   0.591  53.004  1.00  0.00     0.035 A 
HETATM   18  C9  UNL     1      26.831   1.899  53.335  1.00  0.00     0.029 A 
HETATM   19  C10 UNL     1      28.099   2.218  53.762  1.00  0.00     0.004 A 
HETATM   20  C11 UNL     1      29.020   1.187  53.838  1.00  0.00     0.024 A 
HETATM   21  C12 UNL     1      28.746  -0.117  53.514  1.00  0.00     0.036 A 
HETATM   22 CL1  UNL     1      29.923  -1.424  53.610  1.00  0.00    -0.084 Cl
HETATM   23  C13 UNL     1      27.453  -0.437  53.078  1.00  0.00     0.053 A 
ENDBRANCH  15  17
ENDBRANCH   7  15
BRANCH   1  24
HETATM   24  O1  UNL     1      18.874  -0.437  53.102  1.00  0.00    -0.348 OA
BRANCH  24  25
HETATM   25  C2  UNL     1      18.156  -1.573  53.472  1.00  0.00     0.171 C 
HETATM   26  C1  UNL     1      16.780  -1.645  52.806  1.00  0.00     0.034 C 
ENDBRANCH  24  25
ENDBRANCH   1  24
TORSDOF 4
ENDMDL
MODEL 2
REMARK VINA RESULT:      -8.4      1.748      3.357
REMARK  4 active torsions:
REMARK  status: ('A' for Active; 'I' for Inactive)
REMARK    1  A    between atoms: C2_2  and  O1_3 
REMARK    2  A    between atoms: O1_3  and  C3_4 
REMARK    3  A    between atoms: C7_10  and  N3_11 
REMARK    4  A    between atoms: N3_11  and  C8_12 
ROOT
HETATM    1  C3  UNL     1      21.475   0.528  51.434  1.00  0.00     0.107 A 
HETATM    2  C4  UNL     1      22.179   1.402  50.637  1.00  0.00     0.072 A 
HETATM    3  C5  UNL     1      23.440   1.817  51.070  1.00  0.00     0.077 A 
HETATM    4  N1  UNL     1      24.193   2.671  50.367  1.00  0.00    -0.241 NA
HETATM    5  C6  UNL     1      25.412   3.093  50.769  1.00  0.00     0.236 A 
HETATM    6  N2  UNL     1      25.854   2.607  51.941  1.00  0.00    -0.223 NA
HETATM    7  C7  UNL     1      25.132   1.745  52.684  1.00  0.00     0.144 A 
HETATM    8  C14 UNL     1      23.891   1.322  52.264  1.00  0.00     0.075 A 
HETATM    9  C15 UNL     1      23.237   0.446  53.102  1.00  0.00     0.121 A 
HETATM   10  C16 UNL     1      21.981   0.048  52.648  1.00  0.00     0.136 A 
HETATM   11  O2  UNL     1      21.267  -0.843  53.462  1.00  0.00    -0.344 OA
HETATM   12  C17 UNL     1      21.701  -0.974  54.799  1.00  0.00     0.202 C 
HETATM   13  C18 UNL     1      23.206  -1.170  54.842  1.00  0.00     0.202 C 
HETATM   14  O3  UNL     1      23.793   0.006  54.295  1.00  0.00    -0.345 OA
ENDROOT
BRANCH   7  15
HETATM   15  N3  UNL     1      25.813   1.393  53.886  1.00  0.00    -0.340 N 
HETATM   16  H8  UNL     1      25.347   1.674  54.761  1.00  0.00     0.167 HD
BRANCH  15  17
HETATM   17  C8  UNL     1      27.044   0.696  53.755  1.00  0.00     0.035 A 
HETATM   18  C9  UNL     1      28.160   1.469  54.000  1.00  0.00     0.029 A 
HETATM   19  C10 UNL     1      29.408   0.903  53.885  1.00  0.00     0.004 A 
HETATM   20  C11 UNL     1      29.466  -0.434  53.527  1.00  0.00     0.024 A 
HETATM   21  C12 UNL     1      28.365  -1.214  53.282  1.00  0.00     0.036 A 
HETATM   22 CL1  UNL     1      28.446  -2.913  52.825  1.00  0.00    -0.084 Cl
HETATM   23  C13 UNL     1      27.097  -0.632  53.400  1.00  0.00     0.053 A 
ENDBRANCH  15  17
ENDBRANCH   7  15
BRANCH   1  24
HETATM   24  O1  UNL     1      20.216   0.096  51.041  1.00  0.00    -0.348 OA
BRANCH  24  25
HETATM   25  C2  UNL     1      19.061   0.751  51.464  1.00  0.00     0.171 C 
HETATM   26  C1  UNL     1      17.984  -0.215  51.964  1.00  0.00     0.034 C 
ENDBRANCH  24  25
ENDBRANCH   1  24
TORSDOF 4
ENDMDL
MODEL 3
REMARK VINA RESULT:      -8.3      2.267      3.785
REMARK  4 active torsions:
REMARK  status: ('A' for Active; 'I' for Inactive)
REMARK    1  A    between atoms: C2_2  and  O1_3 
REMARK    2  A    between atoms: O1_3  and  C3_4 
REMARK    3  A    between atoms: C7_10  and  N3_11 
REMARK    4  A    between atoms: N3_11  and  C8_12 
ROOT
HETATM    1  C3  UNL     1      21.452   2.590  52.456  1.00  0.00     0.107 A 
HETATM    2  C4  UNL     1      22.385   3.271  51.708  1.00  0.00     0.072 A 
HETATM    3  C5  UNL     1      23.663   2.721  51.589  1.00  0.00     0.077 A 
HETATM    4  N1  UNL     1      24.636   3.316  50.890  1.00  0.00    -0.241 NA
HETATM    5  C6  UNL     1      25.882   2.808  50.767  1.00  0.00     0.236 A 
HETATM    6  N2  UNL     1      26.114   1.643  51.396  1.00  0.00    -0.223 NA
HETATM    7  C7  UNL     1      25.166   1.007  52.112  1.00  0.00     0.144 A 
HETATM    8  C14 UNL     1      23.899   1.534  52.228  1.00  0.00     0.075 A 
HETATM    9  C15 UNL     1      23.010   0.805  52.987  1.00  0.00     0.121 A 
HETATM   10  C16 UNL     1      21.743   1.376  53.091  1.00  0.00     0.136 A 
HETATM   11  O2  UNL     1      20.796   0.678  53.853  1.00  0.00    -0.344 OA
HETATM   12  C17 UNL     1      21.286  -0.320  54.723  1.00  0.00     0.202 C 
HETATM   13  C18 UNL     1      22.268  -1.215  53.990  1.00  0.00     0.202 C 
HETATM   14  O3  UNL     1      23.360  -0.394  53.591  1.00  0.00    -0.345 OA
ENDROOT
BRANCH   7  15
HETATM   15  N3  UNL     1      25.666  -0.197  52.690  1.00  0.00    -0.340 N 
HETATM   16  H8  UNL     1      24.991  -0.971  52.761  1.00  0.00     0.167 HD
BRANCH  15  17
HETATM   17  C8  UNL     1      27.027  -0.205  53.096  1.00  0.00     0.035 A 
HETATM   18  C9  UNL     1      27.684  -1.393  52.849  1.00  0.00     0.029 A 
HETATM   19  C10 UNL     1      29.003  -1.521  53.217  1.00  0.00     0.004 A 
HETATM   20  C11 UNL     1      29.600  -0.428  53.822  1.00  0.00     0.024 A 
HETATM   21  C12 UNL     1      28.960   0.759  54.073  1.00  0.00     0.036 A 
HETATM   22 CL1  UNL     1      29.725   2.146  54.845  1.00  0.00    -0.084 Cl
HETATM   23  C13 UNL     1      27.617   0.884  53.696  1.00  0.00     0.053 A 
ENDBRANCH  15  17
ENDBRANCH   7  15
BRANCH   1  24
HETATM   24  O1  UNL     1      20.173   3.106  52.602  1.00  0.00    -0.348 OA
BRANCH  24  25
HETATM   25  C2  UNL     1      19.403   3.457  51.495  1.00  0.00     0.171 C 
HETATM   26  C1  UNL     1      18.016   2.808  51.509  1.00  0.00     0.034 C 
ENDBRANCH  24  25
ENDBRANCH   1  24
TORSDOF 4
ENDMDL
MODEL 4
REMARK VINA RESULT:      -8.2      4.048      5.169
REMARK  4 active torsions:
REMARK  status: ('A' for Active; 'I' for Inactive)
REMARK    1  A    between atoms: C2_2  and  O1_3 
REMARK    2  A    between atoms: O1_3  and  C3_4 
REMARK    3  A    between atoms: C7_10  and  N3_11 
REMARK    4  A    between atoms: N3_11  and  C8_12 
ROOT
HETATM    1  C3  UNL     1      22.664   0.921  52.405  1.00  0.00     0.107 A 
HETATM    2  C4  UNL     1      23.840   0.963  53.120  1.00  0.00     0.072 A 
HETATM    3  C5  UNL     1      24.950   1.567  52.526  1.00  0.00     0.077 A 
HETATM    4  N1  UNL     1      26.136   1.646  53.140  1.00  0.00    -0.241 NA
HETATM    5  C6  UNL     1      27.226   2.218  52.584  1.00  0.00     0.236 A 
HETATM    6  N2  UNL     1      27.068   2.721  51.347  1.00  0.00    -0.223 NA
HETATM    7  C7  UNL     1      25.893   2.665  50.689  1.00  0.00     0.144 A 
HETATM    8  C14 UNL     1      24.790   2.080  51.268  1.00  0.00     0.075 A 
HETATM    9  C15 UNL     1      23.643   2.071  50.504  1.00  0.00     0.121 A 
HETATM   10  C16 UNL     1      22.550   1.462  51.119  1.00  0.00     0.136 A 
HETATM   11  O2  UNL     1      21.354   1.423  50.389  1.00  0.00    -0.344 OA
HETATM   12  C17 UNL     1      21.445   1.665  49.001  1.00  0.00     0.202 C 
HETATM   13  C18 UNL     1      22.286   2.902  48.741  1.00  0.00     0.202 C 
HETATM   14  O3  UNL     1      23.593   2.626  49.234  1.00  0.00    -0.345 OA
ENDROOT
BRANCH   7  15
HETATM   15  N3  UNL     1      25.991   3.252  49.393  1.00  0.00    -0.340 N 
HETATM   16  H8  UNL     1      25.898   2.601  48.601  1.00  0.00     0.167 HD
BRANCH  15  17
HETATM   17  C8  UNL     1      26.200   4.656  49.331  1.00  0.00     0.035 A 
HETATM   18  C9  UNL     1      27.346   5.028  48.659  1.00  0.00     0.029 A 
HETATM   19  C10 UNL     1      27.658   6.363  48.552  1.00  0.00     0.004 A 
HETATM   20  C11 UNL     1      26.785   7.267  49.133  1.00  0.00     0.024 A 
HETATM   21  C12 UNL     1      25.641   6.912  49.802  1.00  0.00     0.036 A 
HETATM   22 CL1  UNL     1      24.535   8.065  50.542  1.00  0.00    -0.084 Cl
HETATM   23  C13 UNL     1      25.329   5.550  49.910  1.00  0.00     0.053 A 
ENDBRANCH  15  17
ENDBRANCH   7  15
BRANCH   1  24
HETATM   24  O1  UNL     1      21.540   0.325  52.959  1.00  0.00    -0.348 OA
BRANCH  24  25
HETATM   25  C2  UNL     1      21.509  -0.057  54.299  1.00  0.00     0.171 C 
HETATM   26  C1  UNL     1      21.467  -1.576  54.480  1.00  0.00     0.034 C 
ENDBRANCH  24  25
ENDBRANCH   1  24
TORSDOF 4
ENDMDL
MODEL 5
REMARK VINA RESULT:      -8.1      3.710      7.093
REMARK  4 active torsions:
REMARK  status: ('A' for Active; 'I' for Inactive)
REMARK    1  A    between atoms: C2_2  and  O1_3 
REMARK    2  A    between atoms: O1_3  and  C3_4 
REMARK    3  A    between atoms: C7_10  and  N3_11 
REMARK    4  A    between atoms: N3_11  and  C8_12 
ROOT
HETATM    1  C3  UNL     1      26.295  -0.131  52.819  1.00  0.00     0.107 A 
HETATM    2  C4  UNL     1      25.418  -0.824  53.622  1.00  0.00     0.072 A 
HETATM    3  C5  UNL     1      24.099  -0.371  53.700  1.00  0.00     0.077 A 
HETATM    4  N1  UNL     1      23.179  -0.974  54.461  1.00  0.00    -0.241 NA
HETATM    5  C6  UNL     1      21.900  -0.550  54.559  1.00  0.00     0.236 A 
HETATM    6  N2  UNL     1      21.576   0.538  53.839  1.00  0.00    -0.223 NA
HETATM    7  C7  UNL     1      22.469   1.179  53.058  1.00  0.00     0.144 A 
HETATM    8  C14 UNL     1      23.770   0.737  52.966  1.00  0.00     0.075 A 
HETATM    9  C15 UNL     1      24.599   1.469  52.145  1.00  0.00     0.121 A 
HETATM   10  C16 UNL     1      25.909   0.997  52.086  1.00  0.00     0.136 A 
HETATM   11  O2  UNL     1      26.799   1.704  51.266  1.00  0.00    -0.344 OA
HETATM   12  C17 UNL     1      26.409   3.001  50.869  1.00  0.00     0.202 C 
HETATM   13  C18 UNL     1      24.980   2.982  50.356  1.00  0.00     0.202 C 
HETATM   14  O3  UNL     1      24.154   2.580  51.443  1.00  0.00    -0.345 OA
ENDROOT
BRANCH   7  15
HETATM   15  N3  UNL     1      21.884   2.308  52.414  1.00  0.00    -0.340 N 
HETATM   16  H8  UNL     1      22.370   3.205  52.558  1.00  0.00     0.167 HD
BRANCH  15  17
HETATM   17  C8  UNL     1      20.711   2.081  51.645  1.00  0.00     0.035 A 
HETATM   18  C9  UNL     1      20.908   1.284  50.536  1.00  0.00     0.029 A 
HETATM   19  C10 UNL     1      19.845   1.011  49.708  1.00  0.00     0.004 A 
HETATM   20  C11 UNL     1      18.620   1.562  50.047  1.00  0.00     0.024 A 
HETATM   21  C12 UNL     1      18.410   2.355  51.146  1.00  0.00     0.036 A 
HETATM   22 CL1  UNL     1      16.850   3.054  51.571  1.00  0.00    -0.084 Cl
HETATM   23  C13 UNL     1      19.496   2.630  51.986  1.00  0.00     0.053 A 
ENDBRANCH  15  17
ENDBRANCH   7  15
BRANCH   1  24
HETATM   24  O1  UNL     1      27.615  -0.547  52.719  1.00  0.00    -0.348 OA
BRANCH  24  25
HETATM   25  C2  UNL     1      28.477  -0.491  53.812  1.00  0.00     0.171 C 
HETATM   26  C1  UNL     1      29.907  -0.907  53.459  1.00  0.00     0.034 C 
ENDBRANCH  24  25
ENDBRANCH   1  24
TORSDOF 4
ENDMDL
MODEL 6
REMARK VINA RESULT:      -8.1      1.982      2.369
REMARK  4 active torsions:
REMARK  status: ('A' for Active; 'I' for Inactive)
REMARK    1  A    between atoms: C2_2  and  O1_3 
REMARK    2  A    between atoms: O1_3  and  C3_4 
REMARK    3  A    between atoms: C7_10  and  N3_11 
REMARK    4  A    between atoms: N3_11  and  C8_12 
ROOT
HETATM    1  C3  UNL     1      20.848   2.469  52.406  1.00  0.00     0.107 A 
HETATM    2  C4  UNL     1      20.954   1.448  53.324  1.00  0.00     0.072 A 
HETATM    3  C5  UNL     1      22.174   0.775  53.421  1.00  0.00     0.077 A 
HETATM    4  N1  UNL     1      22.368  -0.235  54.277  1.00  0.00    -0.241 NA
HETATM    5  C6  UNL     1      23.535  -0.905  54.384  1.00  0.00     0.236 A 
HETATM    6  N2  UNL     1      24.528  -0.507  53.571  1.00  0.00    -0.223 NA
HETATM    7  C7  UNL     1      24.380   0.505  52.693  1.00  0.00     0.144 A 
HETATM    8  C14 UNL     1      23.185   1.182  52.594  1.00  0.00     0.075 A 
HETATM    9  C15 UNL     1      23.142   2.194  51.660  1.00  0.00     0.121 A 
HETATM   10  C16 UNL     1      21.914   2.849  51.582  1.00  0.00     0.136 A 
HETATM   11  O2  UNL     1      21.810   3.888  50.647  1.00  0.00    -0.344 OA
HETATM   12  C17 UNL     1      22.801   3.946  49.643  1.00  0.00     0.202 C 
HETATM   13  C18 UNL     1      24.180   3.809  50.263  1.00  0.00     0.202 C 
HETATM   14  O3  UNL     1      24.235   2.524  50.872  1.00  0.00    -0.345 OA
ENDROOT
BRANCH   7  15
HETATM   15  N3  UNL     1      25.571   0.722  51.939  1.00  0.00    -0.340 N 
HETATM   16  H8  UNL     1      25.447   0.784  50.919  1.00  0.00     0.167 HD
BRANCH  15  17
HETATM   17  C8  UNL     1      26.787   0.833  52.665  1.00  0.00     0.035 A 
HETATM   18  C9  UNL     1      27.053   2.105  53.131  1.00  0.00     0.029 A 
HETATM   19  C10 UNL     1      28.213   2.334  53.832  1.00  0.00     0.004 A 
HETATM   20  C11 UNL     1      29.056   1.254  54.033  1.00  0.00     0.024 A 
HETATM   21  C12 UNL     1      28.804  -0.015  53.577  1.00  0.00     0.036 A 
HETATM   22 CL1  UNL     1      29.881  -1.385  53.834  1.00  0.00    -0.084 Cl
HETATM   23  C13 UNL     1      27.621  -0.243  52.862  1.00  0.00     0.053 A 
ENDBRANCH  15  17
ENDBRANCH   7  15
BRANCH   1  24
HETATM   24  O1  UNL     1      19.651   3.158  52.275  1.00  0.00    -0.348 OA
BRANCH  24  25
HETATM   25  C2  UNL     1      18.539   2.571  51.675  1.00  0.00     0.171 C 
HETATM   26  C1  UNL     1      18.581   2.650  50.147  1.00  0.00     0.034 C 
ENDBRANCH  24  25
ENDBRANCH   1  24
TORSDOF 4
ENDMDL
MODEL 7
REMARK VINA RESULT:      -7.9      3.992      7.341
REMARK  4 active torsions:
REMARK  status: ('A' for Active; 'I' for Inactive)
REMARK    1  A    between atoms: C2_2  and  O1_3 
REMARK    2  A    between atoms: O1_3  and  C3_4 
REMARK    3  A    between atoms: C7_10  and  N3_11 
REMARK    4  A    between atoms: N3_11  and  C8_12 
ROOT
HETATM    1  C3  UNL     1      26.562   0.486  53.396  1.00  0.00     0.107 A 
HETATM    2  C4  UNL     1      27.235   1.343  52.555  1.00  0.00     0.072 A 
HETATM    3  C5  UNL     1      26.492   2.064  51.618  1.00  0.00     0.077 A 
HETATM    4  N1  UNL     1      27.059   2.913  50.754  1.00  0.00    -0.241 NA
HETATM    5  C6  UNL     1      26.362   3.616  49.834  1.00  0.00     0.236 A 
HETATM    6  N2  UNL     1      25.033   3.422  49.819  1.00  0.00    -0.223 NA
HETATM    7  C7  UNL     1      24.416   2.578  50.670  1.00  0.00     0.144 A 
HETATM    8  C14 UNL     1      25.137   1.868  51.603  1.00  0.00     0.075 A 
HETATM    9  C15 UNL     1      24.407   1.029  52.417  1.00  0.00     0.121 A 
HETATM   10  C16 UNL     1      25.172   0.321  53.342  1.00  0.00     0.136 A 
HETATM   11  O2  UNL     1      24.484  -0.550  54.198  1.00  0.00    -0.344 OA
HETATM   12  C17 UNL     1      23.168  -0.903  53.826  1.00  0.00     0.202 C 
HETATM   13  C18 UNL     1      22.382   0.340  53.448  1.00  0.00     0.202 C 
HETATM   14  O3  UNL     1      23.029   0.911  52.315  1.00  0.00    -0.345 OA
ENDROOT
BRANCH   7  15
HETATM   15  N3  UNL     1      23.009   2.540  50.440  1.00  0.00    -0.340 N 
HETATM   16  H8  UNL     1      22.593   1.600  50.379  1.00  0.00     0.167 HD
BRANCH  15  17
HETATM   17  C8  UNL     1      22.336   3.786  50.328  1.00  0.00     0.035 A 
HETATM   18  C9  UNL     1      22.398   4.566  51.465  1.00  0.00     0.029 A 
HETATM   19  C10 UNL     1      21.766   5.787  51.476  1.00  0.00     0.004 A 
HETATM   20  C11 UNL     1      21.097   6.165  50.324  1.00  0.00     0.024 A 
HETATM   21  C12 UNL     1      21.028   5.401  49.187  1.00  0.00     0.036 A 
HETATM   22 CL1  UNL     1      20.174   5.886  47.725  1.00  0.00    -0.084 Cl
HETATM   23  C13 UNL     1      21.673   4.157  49.181  1.00  0.00     0.053 A 
ENDBRANCH  15  17
ENDBRANCH   7  15
BRANCH   1  24
HETATM   24  O1  UNL     1      27.265  -0.252  54.337  1.00  0.00    -0.348 OA
BRANCH  24  25
HETATM   25  C2  UNL     1      28.598   0.030  54.629  1.00  0.00     0.171 C 
HETATM   26  C1  UNL     1      29.572  -0.896  53.897  1.00  0.00     0.034 C 
ENDBRANCH  24  25
ENDBRANCH   1  24
TORSDOF 4
ENDMDL
MODEL 8
REMARK VINA RESULT:      -7.9      4.372      6.014
REMARK  4 active torsions:
REMARK  status: ('A' for Active; 'I' for Inactive)
REMARK    1  A    between atoms: C2_2  and  O1_3 
REMARK    2  A    between atoms: O1_3  and  C3_4 
REMARK    3  A    between atoms: C7_10  and  N3_11 
REMARK    4  A    between atoms: N3_11  and  C8_12 
ROOT
HETATM    1  C3  UNL     1      23.316   0.822  52.984  1.00  0.00     0.107 A 
HETATM    2  C4  UNL     1      22.458   1.250  51.996  1.00  0.00     0.072 A 
HETATM    3  C5  UNL     1      22.986   2.000  50.944  1.00  0.00     0.077 A 
HETATM    4  N1  UNL     1      22.228   2.466  49.945  1.00  0.00    -0.241 NA
HETATM    5  C6  UNL     1      22.715   3.200  48.921  1.00  0.00     0.236 A 
HETATM    6  N2  UNL     1      24.035   3.453  48.945  1.00  0.00    -0.223 NA
HETATM    7  C7  UNL     1      24.839   3.006  49.930  1.00  0.00     0.144 A 
HETATM    8  C14 UNL     1      24.331   2.257  50.968  1.00  0.00     0.075 A 
HETATM    9  C15 UNL     1      25.239   1.857  51.923  1.00  0.00     0.121 A 
HETATM   10  C16 UNL     1      24.686   1.111  52.962  1.00  0.00     0.136 A 
HETATM   11  O2  UNL     1      25.563   0.676  53.965  1.00  0.00    -0.344 OA
HETATM   12  C17 UNL     1      26.822   1.313  54.033  1.00  0.00     0.202 C 
HETATM   13  C18 UNL     1      27.448   1.380  52.652  1.00  0.00     0.202 C 
HETATM   14  O3  UNL     1      26.587   2.175  51.844  1.00  0.00    -0.345 OA
ENDROOT
BRANCH   7  15
HETATM   15  N3  UNL     1      26.189   3.421  49.732  1.00  0.00    -0.340 N 
HETATM   16  H8  UNL     1      26.899   2.681  49.820  1.00  0.00     0.167 HD
BRANCH  15  17
HETATM   17  C8  UNL     1      26.409   4.792  49.434  1.00  0.00     0.035 A 
HETATM   18  C9  UNL     1      27.484   5.024  48.600  1.00  0.00     0.029 A 
HETATM   19  C10 UNL     1      27.802   6.317  48.258  1.00  0.00     0.004 A 
HETATM   20  C11 UNL     1      27.007   7.324  48.779  1.00  0.00     0.024 A 
HETATM   21  C12 UNL     1      25.935   7.109  49.607  1.00  0.00     0.036 A 
HETATM   22 CL1  UNL     1      24.929   8.394  50.269  1.00  0.00    -0.084 Cl
HETATM   23  C13 UNL     1      25.616   5.789  49.954  1.00  0.00     0.053 A 
ENDBRANCH  15  17
ENDBRANCH   7  15
BRANCH   1  24
HETATM   24  O1  UNL     1      22.828   0.079  54.049  1.00  0.00    -0.348 OA
BRANCH  24  25
HETATM   25  C2  UNL     1      21.462  -0.138  54.215  1.00  0.00     0.171 C 
HETATM   26  C1  UNL     1      21.112  -1.621  54.360  1.00  0.00     0.034 C 
ENDBRANCH  24  25
ENDBRANCH   1  24
TORSDOF 4
ENDMDL
MODEL 9
REMARK VINA RESULT:      -7.6      3.992      7.184
REMARK  4 active torsions:
REMARK  status: ('A' for Active; 'I' for Inactive)
REMARK    1  A    between atoms: C2_2  and  O1_3 
REMARK    2  A    between atoms: O1_3  and  C3_4 
REMARK    3  A    between atoms: C7_10  and  N3_11 
REMARK    4  A    between atoms: N3_11  and  C8_12 
ROOT
HETATM    1  C3  UNL     1      26.165  -0.186  52.858  1.00  0.00     0.107 A 
HETATM    2  C4  UNL     1      26.901   0.713  52.120  1.00  0.00     0.072 A 
HETATM    3  C5  UNL     1      26.232   1.792  51.540  1.00  0.00     0.077 A 
HETATM    4  N1  UNL     1      26.862   2.711  50.799  1.00  0.00    -0.241 NA
HETATM    5  C6  UNL     1      26.235   3.759  50.222  1.00  0.00     0.236 A 
HETATM    6  N2  UNL     1      24.910   3.847  50.426  1.00  0.00    -0.223 NA
HETATM    7  C7  UNL     1      24.232   2.946  51.165  1.00  0.00     0.144 A 
HETATM    8  C14 UNL     1      24.882   1.882  51.749  1.00  0.00     0.075 A 
HETATM    9  C15 UNL     1      24.093   1.020  52.477  1.00  0.00     0.121 A 
HETATM   10  C16 UNL     1      24.784  -0.049  53.044  1.00  0.00     0.136 A 
HETATM   11  O2  UNL     1      24.032  -0.962  53.796  1.00  0.00    -0.344 OA
HETATM   12  C17 UNL     1      22.631  -0.931  53.622  1.00  0.00     0.202 C 
HETATM   13  C18 UNL     1      22.126   0.498  53.701  1.00  0.00     0.202 C 
HETATM   14  O3  UNL     1      22.726   1.211  52.625  1.00  0.00    -0.345 OA
ENDROOT
BRANCH   7  15
HETATM   15  N3  UNL     1      22.840   3.253  51.216  1.00  0.00    -0.340 N 
HETATM   16  H8  UNL     1      22.477   3.517  52.143  1.00  0.00     0.167 HD
BRANCH  15  17
HETATM   17  C8  UNL     1      22.112   3.170  49.999  1.00  0.00     0.035 A 
HETATM   18  C9  UNL     1      22.223   1.954  49.356  1.00  0.00     0.029 A 
HETATM   19  C10 UNL     1      21.573   1.766  48.159  1.00  0.00     0.004 A 
HETATM   20  C11 UNL     1      20.832   2.827  47.667  1.00  0.00     0.024 A 
HETATM   21  C12 UNL     1      20.712   4.040  48.296  1.00  0.00     0.036 A 
HETATM   22 CL1  UNL     1      19.769   5.387  47.663  1.00  0.00    -0.084 Cl
HETATM   23  C13 UNL     1      21.376   4.227  49.514  1.00  0.00     0.053 A 
ENDBRANCH  15  17
ENDBRANCH   7  15
BRANCH   1  24
HETATM   24  O1  UNL     1      26.793  -1.274  53.447  1.00  0.00    -0.348 OA
BRANCH  24  25
HETATM   25  C2  UNL     1      27.337  -2.300  52.676  1.00  0.00     0.171 C 
HETATM   26  C1  UNL     1      28.645  -2.845  53.256  1.00  0.00     0.034 C 
ENDBRANCH  24  25
ENDBRANCH   1  24
TORSDOF 4
ENDMDL
