MODEL 1
REMARK VINA RESULT:      -7.4      0.000      0.000
REMARK  10 active torsions:
REMARK  status: ('A' for Active; 'I' for Inactive)
REMARK    1  A    between atoms: C7_7  and  N1_8 
REMARK    2  A    between atoms: N1_8  and  C8_9 
REMARK    3  A    between atoms: C12_15  and  O1_16 
REMARK    4  A    between atoms: O1_16  and  C13_17 
REMARK    5  A    between atoms: C13_17  and  C14_18 
REMARK    6  A    between atoms: C14_18  and  O2_19 
REMARK    7  A    between atoms: C16_21  and  C17_22 
REMARK    8  A    between atoms: C17_22  and  C18_23 
REMARK    9  A    between atoms: C18_23  and  O3_24 
REMARK   10  A    between atoms: O3_24  and  C19_25 
ROOT
HETATM    1  C1  UNL     1      29.638  -2.149  53.360  1.00  0.00     0.018 C 
HETATM    2  C2  UNL     1      28.881  -1.210  53.317  1.00  0.00    -0.078 C 
HETATM    3  C3  UNL     1      27.996  -0.092  53.243  1.00  0.00     0.019 A 
HETATM    4  C4  UNL     1      28.366   1.211  53.500  1.00  0.00     0.021 A 
HETATM    5  C5  UNL     1      27.506   2.285  53.429  1.00  0.00     0.004 A 
HETATM    6  C6  UNL     1      26.178   2.026  53.074  1.00  0.00     0.029 A 
HETATM    7  C7  UNL     1      25.807   0.709  52.816  1.00  0.00     0.034 A 
HETATM    8  C22 UNL     1      26.692  -0.350  52.895  1.00  0.00     0.050 A 
ENDROOT
BRANCH   7   9
HETATM    9  N1  UNL     1      24.410   0.587  52.466  1.00  0.00    -0.344 N 
HETATM   10  H5  UNL     1      24.074   1.025  51.588  1.00  0.00     0.167 HD
BRANCH   9  11
HETATM   11  C8  UNL     1      23.636  -0.148  53.394  1.00  0.00     0.120 C 
HETATM   12  N2  UNL     1      24.094  -0.718  54.451  1.00  0.00    -0.228 NA
HETATM   13  C9  UNL     1      23.364  -1.437  55.422  1.00  0.00     0.235 C 
HETATM   14  N3  UNL     1      22.051  -1.547  55.309  1.00  0.00    -0.245 NA
HETATM   15  C10 UNL     1      21.484  -0.873  54.192  1.00  0.00     0.054 A 
HETATM   16  C11 UNL     1      20.258  -0.451  53.927  1.00  0.00     0.065 A 
HETATM   17  C21 UNL     1      22.282  -0.538  53.013  1.00  0.00     0.139 A 
HETATM   18  C12 UNL     1      20.290   0.187  52.635  1.00  0.00     0.074 A 
HETATM   19  C16 UNL     1      21.507   0.194  52.049  1.00  0.00    -0.027 A 
BRANCH  18  20
HETATM   20  O1  UNL     1      19.081   0.715  52.144  1.00  0.00    -0.349 OA
BRANCH  20  21
HETATM   21  C13 UNL     1      18.038  -0.186  51.768  1.00  0.00     0.201 C 
BRANCH  21  22
HETATM   22  C14 UNL     1      17.688  -0.037  50.328  1.00  0.00     0.193 C 
BRANCH  22  23
HETATM   23  O2  UNL     1      18.204   1.123  49.800  1.00  0.00    -0.394 OA
HETATM   24  C15 UNL     1      17.271   1.926  49.214  1.00  0.00     0.201 C 
ENDBRANCH  22  23
ENDBRANCH  21  22
ENDBRANCH  20  21
ENDBRANCH  18  20
BRANCH  19  25
HETATM   25  C17 UNL     1      21.655   0.832  50.720  1.00  0.00     0.064 C 
BRANCH  25  26
HETATM   26  C18 UNL     1      21.715   2.342  50.782  1.00  0.00     0.172 C 
BRANCH  26  27
HETATM   27  O3  UNL     1      22.857   2.866  51.295  1.00  0.00    -0.391 OA
BRANCH  27  28
HETATM   28  C19 UNL     1      23.581   3.747  50.570  1.00  0.00     0.163 C 
HETATM   29  C20 UNL     1      24.747   3.250  49.812  1.00  0.00     0.033 C 
ENDBRANCH  27  28
ENDBRANCH  26  27
ENDBRANCH  25  26
ENDBRANCH  19  25
ENDBRANCH   9  11
ENDBRANCH   7   9
TORSDOF 10
ENDMDL
MODEL 2
REMARK VINA RESULT:      -6.8      1.319      1.942
REMARK  10 active torsions:
REMARK  status: ('A' for Active; 'I' for Inactive)
REMARK    1  A    between atoms: C7_7  and  N1_8 
REMARK    2  A    between atoms: N1_8  and  C8_9 
REMARK    3  A    between atoms: C12_15  and  O1_16 
REMARK    4  A    between atoms: O1_16  and  C13_17 
REMARK    5  A    between atoms: C13_17  and  C14_18 
REMARK    6  A    between atoms: C14_18  and  O2_19 
REMARK    7  A    between atoms: C16_21  and  C17_22 
REMARK    8  A    between atoms: C17_22  and  C18_23 
REMARK    9  A    between atoms: C18_23  and  O3_24 
REMARK   10  A    between atoms: O3_24  and  C19_25 
ROOT
HETATM    1  C1  UNL     1      29.778   2.131  54.589  1.00  0.00     0.018 C 
HETATM    2  C2  UNL     1      28.943   1.405  54.106  1.00  0.00    -0.078 C 
HETATM    3  C3  UNL     1      27.953   0.535  53.557  1.00  0.00     0.019 A 
HETATM    4  C4  UNL     1      28.191  -0.766  53.168  1.00  0.00     0.021 A 
HETATM    5  C5  UNL     1      27.232  -1.599  52.637  1.00  0.00     0.004 A 
HETATM    6  C6  UNL     1      25.939  -1.083  52.488  1.00  0.00     0.029 A 
HETATM    7  C7  UNL     1      25.702   0.230  52.881  1.00  0.00     0.034 A 
HETATM    8  C22 UNL     1      26.685   1.045  53.412  1.00  0.00     0.050 A 
ENDROOT
BRANCH   7   9
HETATM    9  N1  UNL     1      24.331   0.632  52.669  1.00  0.00    -0.344 N 
HETATM   10  H5  UNL     1      24.132   1.408  52.010  1.00  0.00     0.167 HD
BRANCH   9  11
HETATM   11  C8  UNL     1      23.382  -0.111  53.409  1.00  0.00     0.120 C 
HETATM   12  N2  UNL     1      23.618  -0.714  54.519  1.00  0.00    -0.228 NA
HETATM   13  C9  UNL     1      22.705  -1.445  55.310  1.00  0.00     0.235 C 
HETATM   14  N3  UNL     1      21.438  -1.528  54.942  1.00  0.00    -0.245 NA
HETATM   15  C10 UNL     1      21.107  -0.817  53.755  1.00  0.00     0.054 A 
HETATM   16  C11 UNL     1      19.961  -0.367  53.269  1.00  0.00     0.065 A 
HETATM   17  C21 UNL     1      22.122  -0.468  52.762  1.00  0.00     0.139 A 
HETATM   18  C12 UNL     1      20.252   0.301  52.026  1.00  0.00     0.074 A 
HETATM   19  C16 UNL     1      21.559   0.301  51.687  1.00  0.00    -0.027 A 
BRANCH  18  20
HETATM   20  O1  UNL     1      19.167   0.863  51.324  1.00  0.00    -0.349 OA
BRANCH  20  21
HETATM   21  C13 UNL     1      18.758   2.194  51.640  1.00  0.00     0.201 C 
BRANCH  21  22
HETATM   22  C14 UNL     1      18.382   2.950  50.414  1.00  0.00     0.193 C 
BRANCH  22  23
HETATM   23  O2  UNL     1      19.257   3.984  50.170  1.00  0.00    -0.394 OA
HETATM   24  C15 UNL     1      18.650   5.143  49.791  1.00  0.00     0.201 C 
ENDBRANCH  22  23
ENDBRANCH  21  22
ENDBRANCH  20  21
ENDBRANCH  18  20
BRANCH  19  25
HETATM   25  C17 UNL     1      21.969   0.968  50.430  1.00  0.00     0.064 C 
BRANCH  25  26
HETATM   26  C18 UNL     1      22.271   2.441  50.601  1.00  0.00     0.172 C 
BRANCH  26  27
HETATM   27  O3  UNL     1      23.554   2.746  50.918  1.00  0.00    -0.391 OA
BRANCH  27  28
HETATM   28  C19 UNL     1      24.441   3.032  49.939  1.00  0.00     0.163 C 
HETATM   29  C20 UNL     1      25.870   3.157  50.293  1.00  0.00     0.033 C 
ENDBRANCH  27  28
ENDBRANCH  26  27
ENDBRANCH  25  26
ENDBRANCH  19  25
ENDBRANCH   9  11
ENDBRANCH   7   9
TORSDOF 10
ENDMDL
MODEL 3
REMARK VINA RESULT:      -6.7      0.917      1.090
REMARK  10 active torsions:
REMARK  status: ('A' for Active; 'I' for Inactive)
REMARK    1  A    between atoms: C7_7  and  N1_8 
REMARK    2  A    between atoms: N1_8  and  C8_9 
REMARK    3  A    between atoms: C12_15  and  O1_16 
REMARK    4  A    between atoms: O1_16  and  C13_17 
REMARK    5  A    between atoms: C13_17  and  C14_18 
REMARK    6  A    between atoms: C14_18  and  O2_19 
REMARK    7  A    between atoms: C16_21  and  C17_22 
REMARK    8  A    between atoms: C17_22  and  C18_23 
REMARK    9  A    between atoms: C18_23  and  O3_24 
REMARK   10  A    between atoms: O3_24  and  C19_25 
ROOT
HETATM    1  C1  UNL     1      29.690  -2.156  53.547  1.00  0.00     0.018 C 
HETATM    2  C2  UNL     1      28.927  -1.232  53.403  1.00  0.00    -0.078 C 
HETATM    3  C3  UNL     1      28.034  -0.134  53.210  1.00  0.00     0.019 A 
HETATM    4  C4  UNL     1      28.369   1.186  53.426  1.00  0.00     0.021 A 
HETATM    5  C5  UNL     1      27.503   2.241  53.240  1.00  0.00     0.004 A 
HETATM    6  C6  UNL     1      26.206   1.943  52.804  1.00  0.00     0.029 A 
HETATM    7  C7  UNL     1      25.872   0.609  52.588  1.00  0.00     0.034 A 
HETATM    8  C22 UNL     1      26.762  -0.431  52.783  1.00  0.00     0.050 A 
ENDROOT
BRANCH   7   9
HETATM    9  N1  UNL     1      24.506   0.447  52.146  1.00  0.00    -0.344 N 
HETATM   10  H5  UNL     1      24.256   0.725  51.179  1.00  0.00     0.167 HD
BRANCH   9  11
HETATM   11  C8  UNL     1      23.636  -0.097  53.120  1.00  0.00     0.120 C 
HETATM   12  N2  UNL     1      24.010  -0.714  54.183  1.00  0.00    -0.228 NA
HETATM   13  C9  UNL     1      23.188  -1.251  55.198  1.00  0.00     0.235 C 
HETATM   14  N3  UNL     1      21.876  -1.107  55.126  1.00  0.00    -0.245 NA
HETATM   15  C10 UNL     1      21.413  -0.367  54.002  1.00  0.00     0.054 A 
HETATM   16  C11 UNL     1      20.283   0.278  53.756  1.00  0.00     0.065 A 
HETATM   17  C21 UNL     1      22.220  -0.227  52.790  1.00  0.00     0.139 A 
HETATM   18  C12 UNL     1      20.394   0.860  52.443  1.00  0.00     0.074 A 
HETATM   19  C16 UNL     1      21.569   0.614  51.824  1.00  0.00    -0.027 A 
BRANCH  18  20
HETATM   20  O1  UNL     1      19.294   1.599  51.968  1.00  0.00    -0.349 OA
BRANCH  20  21
HETATM   21  C13 UNL     1      18.094   0.904  51.625  1.00  0.00     0.201 C 
BRANCH  21  22
HETATM   22  C14 UNL     1      17.884   0.883  50.151  1.00  0.00     0.193 C 
BRANCH  22  23
HETATM   23  O2  UNL     1      17.247  -0.269  49.748  1.00  0.00    -0.394 OA
HETATM   24  C15 UNL     1      15.890  -0.218  49.860  1.00  0.00     0.201 C 
ENDBRANCH  22  23
ENDBRANCH  21  22
ENDBRANCH  20  21
ENDBRANCH  18  20
BRANCH  19  25
HETATM   25  C17 UNL     1      21.792   1.173  50.470  1.00  0.00     0.064 C 
BRANCH  25  26
HETATM   26  C18 UNL     1      22.416   2.551  50.484  1.00  0.00     0.172 C 
BRANCH  26  27
HETATM   27  O3  UNL     1      21.578   3.574  50.788  1.00  0.00    -0.391 OA
BRANCH  27  28
HETATM   28  C19 UNL     1      21.928   4.474  51.735  1.00  0.00     0.163 C 
HETATM   29  C20 UNL     1      23.251   4.344  52.379  1.00  0.00     0.033 C 
ENDBRANCH  27  28
ENDBRANCH  26  27
ENDBRANCH  25  26
ENDBRANCH  19  25
ENDBRANCH   9  11
ENDBRANCH   7   9
TORSDOF 10
ENDMDL
MODEL 4
REMARK VINA RESULT:      -6.7      2.487      7.235
REMARK  10 active torsions:
REMARK  status: ('A' for Active; 'I' for Inactive)
REMARK    1  A    between atoms: C7_7  and  N1_8 
REMARK    2  A    between atoms: N1_8  and  C8_9 
REMARK    3  A    between atoms: C12_15  and  O1_16 
REMARK    4  A    between atoms: O1_16  and  C13_17 
REMARK    5  A    between atoms: C13_17  and  C14_18 
REMARK    6  A    between atoms: C14_18  and  O2_19 
REMARK    7  A    between atoms: C16_21  and  C17_22 
REMARK    8  A    between atoms: C17_22  and  C18_23 
REMARK    9  A    between atoms: C18_23  and  O3_24 
REMARK   10  A    between atoms: O3_24  and  C19_25 
ROOT
HETATM    1  C1  UNL     1      15.678   2.766  51.987  1.00  0.00     0.018 C 
HETATM    2  C2  UNL     1      16.861   2.829  51.757  1.00  0.00    -0.078 C 
HETATM    3  C3  UNL     1      18.265   2.911  51.509  1.00  0.00     0.019 A 
HETATM    4  C4  UNL     1      18.946   4.087  51.278  1.00  0.00     0.021 A 
HETATM    5  C5  UNL     1      20.301   4.159  51.037  1.00  0.00     0.004 A 
HETATM    6  C6  UNL     1      21.019   2.958  51.028  1.00  0.00     0.029 A 
HETATM    7  C7  UNL     1      20.328   1.773  51.260  1.00  0.00     0.034 A 
HETATM    8  C22 UNL     1      18.967   1.730  51.500  1.00  0.00     0.050 A 
ENDROOT
BRANCH   7   9
HETATM    9  N1  UNL     1      21.190   0.614  51.219  1.00  0.00    -0.344 N 
HETATM   10  H5  UNL     1      21.575   0.308  50.305  1.00  0.00     0.167 HD
BRANCH   9  11
HETATM   11  C8  UNL     1      21.421   0.010  52.477  1.00  0.00     0.120 C 
HETATM   12  N2  UNL     1      20.545  -0.637  53.158  1.00  0.00    -0.228 NA
HETATM   13  C9  UNL     1      20.729  -1.280  54.402  1.00  0.00     0.235 C 
HETATM   14  N3  UNL     1      21.922  -1.284  54.969  1.00  0.00    -0.245 NA
HETATM   15  C10 UNL     1      22.948  -0.640  54.221  1.00  0.00     0.054 A 
HETATM   16  C11 UNL     1      24.268  -0.727  54.249  1.00  0.00     0.065 A 
HETATM   17  C21 UNL     1      22.638   0.363  53.203  1.00  0.00     0.139 A 
HETATM   18  C12 UNL     1      24.781   0.158  53.235  1.00  0.00     0.074 A 
HETATM   19  C16 UNL     1      23.829   0.820  52.542  1.00  0.00    -0.027 A 
BRANCH  18  20
HETATM   20  O1  UNL     1      26.179   0.229  53.086  1.00  0.00    -0.349 OA
BRANCH  20  21
HETATM   21  C13 UNL     1      26.934   0.991  54.029  1.00  0.00     0.201 C 
BRANCH  21  22
HETATM   22  C14 UNL     1      27.943   0.145  54.724  1.00  0.00     0.193 C 
BRANCH  22  23
HETATM   23  O2  UNL     1      28.266  -0.968  53.984  1.00  0.00    -0.394 OA
HETATM   24  C15 UNL     1      29.571  -1.015  53.596  1.00  0.00     0.201 C 
ENDBRANCH  22  23
ENDBRANCH  21  22
ENDBRANCH  20  21
ENDBRANCH  18  20
BRANCH  19  25
HETATM   25  C17 UNL     1      24.248   1.751  51.468  1.00  0.00     0.064 C 
BRANCH  25  26
HETATM   26  C18 UNL     1      24.484   3.163  51.956  1.00  0.00     0.172 C 
BRANCH  26  27
HETATM   27  O3  UNL     1      24.769   4.078  50.995  1.00  0.00    -0.391 OA
BRANCH  27  28
HETATM   28  C19 UNL     1      25.202   3.670  49.782  1.00  0.00     0.163 C 
HETATM   29  C20 UNL     1      26.641   3.782  49.470  1.00  0.00     0.033 C 
ENDBRANCH  27  28
ENDBRANCH  26  27
ENDBRANCH  25  26
ENDBRANCH  19  25
ENDBRANCH   9  11
ENDBRANCH   7   9
TORSDOF 10
ENDMDL
MODEL 5
REMARK VINA RESULT:      -6.5      2.725      6.838
REMARK  10 active torsions:
REMARK  status: ('A' for Active; 'I' for Inactive)
REMARK    1  A    between atoms: C7_7  and  N1_8 
REMARK    2  A    between atoms: N1_8  and  C8_9 
REMARK    3  A    between atoms: C12_15  and  O1_16 
REMARK    4  A    between atoms: O1_16  and  C13_17 
REMARK    5  A    between atoms: C13_17  and  C14_18 
REMARK    6  A    between atoms: C14_18  and  O2_19 
REMARK    7  A    between atoms: C16_21  and  C17_22 
REMARK    8  A    between atoms: C17_22  and  C18_23 
REMARK    9  A    between atoms: C18_23  and  O3_24 
REMARK   10  A    between atoms: O3_24  and  C19_25 
ROOT
HETATM    1  C1  UNL     1      22.352   5.428  46.692  1.00  0.00     0.018 C 
HETATM    2  C2  UNL     1      22.128   4.481  47.407  1.00  0.00    -0.078 C 
HETATM    3  C3  UNL     1      21.887   3.358  48.255  1.00  0.00     0.019 A 
HETATM    4  C4  UNL     1      21.913   2.046  47.832  1.00  0.00     0.021 A 
HETATM    5  C5  UNL     1      21.678   0.966  48.655  1.00  0.00     0.004 A 
HETATM    6  C6  UNL     1      21.397   1.229  50.000  1.00  0.00     0.029 A 
HETATM    7  C7  UNL     1      21.370   2.554  50.423  1.00  0.00     0.034 A 
HETATM    8  C22 UNL     1      21.610   3.619  49.575  1.00  0.00     0.050 A 
ENDROOT
BRANCH   7   9
HETATM    9  N1  UNL     1      21.064   2.679  51.830  1.00  0.00    -0.344 N 
HETATM   10  H5  UNL     1      20.845   3.617  52.214  1.00  0.00     0.167 HD
BRANCH   9  11
HETATM   11  C8  UNL     1      21.097   1.460  52.546  1.00  0.00     0.120 C 
HETATM   12  N2  UNL     1      20.067   0.754  52.852  1.00  0.00    -0.228 NA
HETATM   13  C9  UNL     1      20.045  -0.479  53.539  1.00  0.00     0.235 C 
HETATM   14  N3  UNL     1      21.181  -1.046  53.909  1.00  0.00    -0.245 NA
HETATM   15  C10 UNL     1      22.357  -0.339  53.531  1.00  0.00     0.054 A 
HETATM   16  C11 UNL     1      23.620  -0.710  53.392  1.00  0.00     0.065 A 
HETATM   17  C21 UNL     1      22.330   1.093  53.237  1.00  0.00     0.139 A 
HETATM   18  C12 UNL     1      24.365   0.447  52.965  1.00  0.00     0.074 A 
HETATM   19  C16 UNL     1      23.621   1.565  52.819  1.00  0.00    -0.027 A 
BRANCH  18  20
HETATM   20  O1  UNL     1      25.748   0.284  52.753  1.00  0.00    -0.349 OA
BRANCH  20  21
HETATM   21  C13 UNL     1      26.599   0.094  53.884  1.00  0.00     0.201 C 
BRANCH  21  22
HETATM   22  C14 UNL     1      28.004   0.482  53.575  1.00  0.00     0.193 C 
BRANCH  22  23
HETATM   23  O2  UNL     1      28.902  -0.210  54.355  1.00  0.00    -0.394 OA
HETATM   24  C15 UNL     1      29.752  -1.004  53.645  1.00  0.00     0.201 C 
ENDBRANCH  22  23
ENDBRANCH  21  22
ENDBRANCH  20  21
ENDBRANCH  18  20
BRANCH  19  25
HETATM   25  C17 UNL     1      24.287   2.811  52.375  1.00  0.00     0.064 C 
BRANCH  25  26
HETATM   26  C18 UNL     1      23.865   4.032  53.163  1.00  0.00     0.172 C 
BRANCH  26  27
HETATM   27  O3  UNL     1      23.132   4.948  52.481  1.00  0.00    -0.391 OA
BRANCH  27  28
HETATM   28  C19 UNL     1      23.747   5.820  51.650  1.00  0.00     0.163 C 
HETATM   29  C20 UNL     1      22.913   6.710  50.817  1.00  0.00     0.033 C 
ENDBRANCH  27  28
ENDBRANCH  26  27
ENDBRANCH  25  26
ENDBRANCH  19  25
ENDBRANCH   9  11
ENDBRANCH   7   9
TORSDOF 10
ENDMDL
MODEL 6
REMARK VINA RESULT:      -6.5      3.074      8.014
REMARK  10 active torsions:
REMARK  status: ('A' for Active; 'I' for Inactive)
REMARK    1  A    between atoms: C7_7  and  N1_8 
REMARK    2  A    between atoms: N1_8  and  C8_9 
REMARK    3  A    between atoms: C12_15  and  O1_16 
REMARK    4  A    between atoms: O1_16  and  C13_17 
REMARK    5  A    between atoms: C13_17  and  C14_18 
REMARK    6  A    between atoms: C14_18  and  O2_19 
REMARK    7  A    between atoms: C16_21  and  C17_22 
REMARK    8  A    between atoms: C17_22  and  C18_23 
REMARK    9  A    between atoms: C18_23  and  O3_24 
REMARK   10  A    between atoms: O3_24  and  C19_25 
ROOT
HETATM    1  C1  UNL     1      19.199   3.594  47.535  1.00  0.00     0.018 C 
HETATM    2  C2  UNL     1      19.833   4.306  48.275  1.00  0.00    -0.078 C 
HETATM    3  C3  UNL     1      20.564   5.147  49.167  1.00  0.00     0.019 A 
HETATM    4  C4  UNL     1      20.338   6.498  49.322  1.00  0.00     0.021 A 
HETATM    5  C5  UNL     1      21.049   7.305  50.183  1.00  0.00     0.004 A 
HETATM    6  C6  UNL     1      22.060   6.706  50.942  1.00  0.00     0.029 A 
HETATM    7  C7  UNL     1      22.286   5.342  50.783  1.00  0.00     0.034 A 
HETATM    8  C22 UNL     1      21.557   4.556  49.910  1.00  0.00     0.050 A 
ENDROOT
BRANCH   7   9
HETATM    9  N1  UNL     1      23.358   4.858  51.623  1.00  0.00    -0.344 N 
HETATM   10  H5  UNL     1      23.221   4.841  52.651  1.00  0.00     0.167 HD
BRANCH   9  11
HETATM   11  C8  UNL     1      24.513   4.444  50.918  1.00  0.00     0.120 C 
HETATM   12  N2  UNL     1      25.163   5.165  50.077  1.00  0.00    -0.228 NA
HETATM   13  C9  UNL     1      26.333   4.812  49.369  1.00  0.00     0.235 C 
HETATM   14  N3  UNL     1      26.894   3.633  49.574  1.00  0.00    -0.245 NA
HETATM   15  C10 UNL     1      26.252   2.822  50.551  1.00  0.00     0.054 A 
HETATM   16  C11 UNL     1      26.665   1.793  51.274  1.00  0.00     0.065 A 
HETATM   17  C21 UNL     1      24.850   3.023  50.913  1.00  0.00     0.139 A 
HETATM   18  C12 UNL     1      25.567   1.388  52.116  1.00  0.00     0.074 A 
HETATM   19  C16 UNL     1      24.448   2.128  51.963  1.00  0.00    -0.027 A 
BRANCH  18  20
HETATM   20  O1  UNL     1      25.783   0.297  52.979  1.00  0.00    -0.349 OA
BRANCH  20  21
HETATM   21  C13 UNL     1      26.504  -0.835  52.491  1.00  0.00     0.201 C 
BRANCH  21  22
HETATM   22  C14 UNL     1      27.801  -0.999  53.203  1.00  0.00     0.193 C 
BRANCH  22  23
HETATM   23  O2  UNL     1      27.729  -0.534  54.496  1.00  0.00    -0.394 OA
HETATM   24  C15 UNL     1      28.742   0.312  54.836  1.00  0.00     0.201 C 
ENDBRANCH  22  23
ENDBRANCH  21  22
ENDBRANCH  20  21
ENDBRANCH  18  20
BRANCH  19  25
HETATM   25  C17 UNL     1      23.261   1.802  52.787  1.00  0.00     0.064 C 
BRANCH  25  26
HETATM   26  C18 UNL     1      22.415   0.689  52.209  1.00  0.00     0.172 C 
BRANCH  26  27
HETATM   27  O3  UNL     1      21.303   0.366  52.916  1.00  0.00    -0.391 OA
BRANCH  27  28
HETATM   28  C19 UNL     1      21.402   0.070  54.231  1.00  0.00     0.163 C 
HETATM   29  C20 UNL     1      21.946  -1.247  54.620  1.00  0.00     0.033 C 
ENDBRANCH  27  28
ENDBRANCH  26  27
ENDBRANCH  25  26
ENDBRANCH  19  25
ENDBRANCH   9  11
ENDBRANCH   7   9
TORSDOF 10
ENDMDL
MODEL 7
REMARK VINA RESULT:      -6.4      2.296      4.754
REMARK  10 active torsions:
REMARK  status: ('A' for Active; 'I' for Inactive)
REMARK    1  A    between atoms: C7_7  and  N1_8 
REMARK    2  A    between atoms: N1_8  and  C8_9 
REMARK    3  A    between atoms: C12_15  and  O1_16 
REMARK    4  A    between atoms: O1_16  and  C13_17 
REMARK    5  A    between atoms: C13_17  and  C14_18 
REMARK    6  A    between atoms: C14_18  and  O2_19 
REMARK    7  A    between atoms: C16_21  and  C17_22 
REMARK    8  A    between atoms: C17_22  and  C18_23 
REMARK    9  A    between atoms: C18_23  and  O3_24 
REMARK   10  A    between atoms: O3_24  and  C19_25 
ROOT
HETATM    1  C1  UNL     1      27.919   4.891  48.549  1.00  0.00     0.018 C 
HETATM    2  C2  UNL     1      26.799   4.992  48.987  1.00  0.00    -0.078 C 
HETATM    3  C3  UNL     1      25.467   5.092  49.492  1.00  0.00     0.019 A 
HETATM    4  C4  UNL     1      24.430   5.713  48.830  1.00  0.00     0.021 A 
HETATM    5  C5  UNL     1      23.147   5.809  49.324  1.00  0.00     0.004 A 
HETATM    6  C6  UNL     1      22.893   5.235  50.574  1.00  0.00     0.029 A 
HETATM    7  C7  UNL     1      23.942   4.609  51.240  1.00  0.00     0.034 A 
HETATM    8  C22 UNL     1      25.221   4.528  50.721  1.00  0.00     0.050 A 
ENDROOT
BRANCH   7   9
HETATM    9  N1  UNL     1      23.540   4.066  52.518  1.00  0.00    -0.344 N 
HETATM   10  H5  UNL     1      22.853   4.590  53.091  1.00  0.00     0.167 HD
BRANCH   9  11
HETATM   11  C8  UNL     1      24.152   2.834  52.849  1.00  0.00     0.120 C 
HETATM   12  N2  UNL     1      25.317   2.705  53.376  1.00  0.00    -0.228 NA
HETATM   13  C9  UNL     1      25.960   1.505  53.750  1.00  0.00     0.235 C 
HETATM   14  N3  UNL     1      25.336   0.349  53.600  1.00  0.00    -0.245 NA
HETATM   15  C10 UNL     1      24.013   0.442  53.085  1.00  0.00     0.054 A 
HETATM   16  C11 UNL     1      22.977  -0.381  53.119  1.00  0.00     0.065 A 
HETATM   17  C21 UNL     1      23.569   1.605  52.317  1.00  0.00     0.139 A 
HETATM   18  C12 UNL     1      21.886   0.268  52.438  1.00  0.00     0.074 A 
HETATM   19  C16 UNL     1      22.181   1.497  51.962  1.00  0.00    -0.027 A 
BRANCH  18  20
HETATM   20  O1  UNL     1      20.668  -0.434  52.351  1.00  0.00    -0.349 OA
BRANCH  20  21
HETATM   21  C13 UNL     1      19.825  -0.496  53.502  1.00  0.00     0.201 C 
BRANCH  21  22
HETATM   22  C14 UNL     1      18.461  -0.977  53.148  1.00  0.00     0.193 C 
BRANCH  22  23
HETATM   23  O2  UNL     1      18.067  -0.516  51.913  1.00  0.00    -0.394 OA
HETATM   24  C15 UNL     1      16.722  -0.335  51.793  1.00  0.00     0.201 C 
ENDBRANCH  22  23
ENDBRANCH  21  22
ENDBRANCH  20  21
ENDBRANCH  18  20
BRANCH  19  25
HETATM   25  C17 UNL     1      21.126   2.257  51.251  1.00  0.00     0.064 C 
BRANCH  25  26
HETATM   26  C18 UNL     1      20.250   3.076  52.173  1.00  0.00     0.172 C 
BRANCH  26  27
HETATM   27  O3  UNL     1      18.928   2.774  52.151  1.00  0.00    -0.391 OA
BRANCH  27  28
HETATM   28  C19 UNL     1      18.088   3.479  51.360  1.00  0.00     0.163 C 
HETATM   29  C20 UNL     1      16.646   3.474  51.679  1.00  0.00     0.033 C 
ENDBRANCH  27  28
ENDBRANCH  26  27
ENDBRANCH  25  26
ENDBRANCH  19  25
ENDBRANCH   9  11
ENDBRANCH   7   9
TORSDOF 10
ENDMDL
MODEL 8
REMARK VINA RESULT:      -6.3      2.268      3.954
REMARK  10 active torsions:
REMARK  status: ('A' for Active; 'I' for Inactive)
REMARK    1  A    between atoms: C7_7  and  N1_8 
REMARK    2  A    between atoms: N1_8  and  C8_9 
REMARK    3  A    between atoms: C12_15  and  O1_16 
REMARK    4  A    between atoms: O1_16  and  C13_17 
REMARK    5  A    between atoms: C13_17  and  C14_18 
REMARK    6  A    between atoms: C14_18  and  O2_19 
REMARK    7  A    between atoms: C16_21  and  C17_22 
REMARK    8  A    between atoms: C17_22  and  C18_23 
REMARK    9  A    between atoms: C18_23  and  O3_24 
REMARK   10  A    between atoms: O3_24  and  C19_25 
ROOT
HETATM    1  C1  UNL     1      29.509   0.397  53.531  1.00  0.00     0.018 C 
HETATM    2  C2  UNL     1      28.306   0.306  53.492  1.00  0.00    -0.078 C 
HETATM    3  C3  UNL     1      26.881   0.215  53.462  1.00  0.00     0.019 A 
HETATM    4  C4  UNL     1      26.124  -0.437  54.412  1.00  0.00     0.021 A 
HETATM    5  C5  UNL     1      24.750  -0.522  54.377  1.00  0.00     0.004 A 
HETATM    6  C6  UNL     1      24.092   0.095  53.306  1.00  0.00     0.029 A 
HETATM    7  C7  UNL     1      24.860   0.751  52.349  1.00  0.00     0.034 A 
HETATM    8  C22 UNL     1      26.239   0.821  52.409  1.00  0.00     0.050 A 
ENDROOT
BRANCH   7   9
HETATM    9  N1  UNL     1      24.054   1.337  51.302  1.00  0.00    -0.344 N 
HETATM   10  H5  UNL     1      23.609   0.713  50.603  1.00  0.00     0.167 HD
BRANCH   9  11
HETATM   11  C8  UNL     1      23.958   2.748  51.357  1.00  0.00     0.120 C 
HETATM   12  N2  UNL     1      24.899   3.565  51.044  1.00  0.00    -0.228 NA
HETATM   13  C9  UNL     1      24.849   4.976  51.055  1.00  0.00     0.235 C 
HETATM   14  N3  UNL     1      23.725   5.591  51.381  1.00  0.00    -0.245 NA
HETATM   15  C10 UNL     1      22.629   4.730  51.668  1.00  0.00     0.054 A 
HETATM   16  C11 UNL     1      21.319   4.919  51.681  1.00  0.00     0.065 A 
HETATM   17  C21 UNL     1      22.832   3.339  52.073  1.00  0.00     0.139 A 
HETATM   18  C12 UNL     1      20.704   3.664  52.031  1.00  0.00     0.074 A 
HETATM   19  C16 UNL     1      21.579   2.657  52.245  1.00  0.00    -0.027 A 
BRANCH  18  20
HETATM   20  O1  UNL     1      19.299   3.631  52.108  1.00  0.00    -0.349 OA
BRANCH  20  21
HETATM   21  C13 UNL     1      18.544   3.574  50.897  1.00  0.00     0.201 C 
BRANCH  21  22
HETATM   22  C14 UNL     1      17.243   4.285  51.036  1.00  0.00     0.193 C 
BRANCH  22  23
HETATM   23  O2  UNL     1      16.255   3.679  50.295  1.00  0.00    -0.394 OA
HETATM   24  C15 UNL     1      16.497   3.668  48.954  1.00  0.00     0.201 C 
ENDBRANCH  22  23
ENDBRANCH  21  22
ENDBRANCH  20  21
ENDBRANCH  18  20
BRANCH  19  25
HETATM   25  C17 UNL     1      21.052   1.320  52.603  1.00  0.00     0.064 C 
BRANCH  25  26
HETATM   26  C18 UNL     1      20.610   0.507  51.406  1.00  0.00     0.172 C 
BRANCH  26  27
HETATM   27  O3  UNL     1      21.504   0.422  50.389  1.00  0.00    -0.391 OA
BRANCH  27  28
HETATM   28  C19 UNL     1      21.141   0.786  49.139  1.00  0.00     0.163 C 
HETATM   29  C20 UNL     1      21.437   2.162  48.690  1.00  0.00     0.033 C 
ENDBRANCH  27  28
ENDBRANCH  26  27
ENDBRANCH  25  26
ENDBRANCH  19  25
ENDBRANCH   9  11
ENDBRANCH   7   9
TORSDOF 10
ENDMDL
MODEL 9
REMARK VINA RESULT:      -6.2      2.928      5.824
REMARK  10 active torsions:
REMARK  status: ('A' for Active; 'I' for Inactive)
REMARK    1  A    between atoms: C7_7  and  N1_8 
REMARK    2  A    between atoms: N1_8  and  C8_9 
REMARK    3  A    between atoms: C12_15  and  O1_16 
REMARK    4  A    between atoms: O1_16  and  C13_17 
REMARK    5  A    between atoms: C13_17  and  C14_18 
REMARK    6  A    between atoms: C14_18  and  O2_19 
REMARK    7  A    between atoms: C16_21  and  C17_22 
REMARK    8  A    between atoms: C17_22  and  C18_23 
REMARK    9  A    between atoms: C18_23  and  O3_24 
REMARK   10  A    between atoms: O3_24  and  C19_25 
ROOT
HETATM    1  C1  UNL     1      27.202   8.540  47.149  1.00  0.00     0.018 C 
HETATM    2  C2  UNL     1      26.642   7.853  47.969  1.00  0.00    -0.078 C 
HETATM    3  C3  UNL     1      25.958   7.047  48.929  1.00  0.00     0.019 A 
HETATM    4  C4  UNL     1      25.296   7.544  50.031  1.00  0.00     0.021 A 
HETATM    5  C5  UNL     1      24.639   6.761  50.955  1.00  0.00     0.004 A 
HETATM    6  C6  UNL     1      24.653   5.376  50.752  1.00  0.00     0.029 A 
HETATM    7  C7  UNL     1      25.323   4.877  49.639  1.00  0.00     0.034 A 
HETATM    8  C22 UNL     1      25.974   5.688  48.727  1.00  0.00     0.050 A 
ENDROOT
BRANCH   7   9
HETATM    9  N1  UNL     1      25.259   3.436  49.556  1.00  0.00    -0.344 N 
HETATM   10  H5  UNL     1      24.936   2.999  48.672  1.00  0.00     0.167 HD
BRANCH   9  11
HETATM   11  C8  UNL     1      25.664   2.763  50.732  1.00  0.00     0.120 C 
HETATM   12  N2  UNL     1      26.840   2.817  51.247  1.00  0.00    -0.228 NA
HETATM   13  C9  UNL     1      27.288   2.190  52.430  1.00  0.00     0.235 C 
HETATM   14  N3  UNL     1      26.444   1.478  53.157  1.00  0.00    -0.245 NA
HETATM   15  C10 UNL     1      25.108   1.445  52.668  1.00  0.00     0.054 A 
HETATM   16  C11 UNL     1      23.948   1.171  53.244  1.00  0.00     0.065 A 
HETATM   17  C21 UNL     1      24.799   1.714  51.264  1.00  0.00     0.139 A 
HETATM   18  C12 UNL     1      22.923   1.319  52.243  1.00  0.00     0.074 A 
HETATM   19  C16 UNL     1      23.382   1.684  51.027  1.00  0.00    -0.027 A 
BRANCH  18  20
HETATM   20  O1  UNL     1      21.594   1.071  52.637  1.00  0.00    -0.349 OA
BRANCH  20  21
HETATM   21  C13 UNL     1      21.348   0.557  53.947  1.00  0.00     0.201 C 
BRANCH  21  22
HETATM   22  C14 UNL     1      20.659  -0.761  53.891  1.00  0.00     0.193 C 
BRANCH  22  23
HETATM   23  O2  UNL     1      21.531  -1.798  54.131  1.00  0.00    -0.394 OA
HETATM   24  C15 UNL     1      22.478  -1.516  55.069  1.00  0.00     0.201 C 
ENDBRANCH  22  23
ENDBRANCH  21  22
ENDBRANCH  20  21
ENDBRANCH  18  20
BRANCH  19  25
HETATM   25  C17 UNL     1      22.409   1.872  49.925  1.00  0.00     0.064 C 
BRANCH  25  26
HETATM   26  C18 UNL     1      21.724   3.220  49.951  1.00  0.00     0.172 C 
BRANCH  26  27
HETATM   27  O3  UNL     1      22.068   4.075  48.955  1.00  0.00    -0.391 OA
BRANCH  27  28
HETATM   28  C19 UNL     1      21.399   5.240  48.805  1.00  0.00     0.163 C 
HETATM   29  C20 UNL     1      21.053   6.017  50.013  1.00  0.00     0.033 C 
ENDBRANCH  27  28
ENDBRANCH  26  27
ENDBRANCH  25  26
ENDBRANCH  19  25
ENDBRANCH   9  11
ENDBRANCH   7   9
TORSDOF 10
ENDMDL
