MODEL 1
REMARK VINA RESULT:      -8.3      0.000      0.000
REMARK  7 active torsions:
REMARK  status: ('A' for Active; 'I' for Inactive)
REMARK    1  A    between atoms: C4_4  and  C5_5 
REMARK    2  A    between atoms: C6_6  and  N1_7 
REMARK       I    between atoms: N1_7  and  C7_8 
REMARK       I    between atoms: C7_8  and  N2_10 
REMARK    3  A    between atoms: N2_10  and  C8_11 
REMARK    4  A    between atoms: N2_10  and  C15_19 
REMARK    5  A    between atoms: C8_11  and  C9_12 
REMARK    6  A    between atoms: C15_19  and  C16_20 
REMARK    7  A    between atoms: C21_26  and  O2_27 
ROOT
HETATM    1  C1  UNL     1      17.743   1.855  49.176  1.00  0.00     0.017 C 
HETATM    2  C2  UNL     1      17.644   0.921  49.950  1.00  0.00    -0.089 C 
HETATM    3  C3  UNL     1      17.522  -0.185  50.852  1.00  0.00     0.063 C 
HETATM    4  C4  UNL     1      18.488  -0.325  51.772  1.00  0.00     0.010 C 
ENDROOT
BRANCH   4   5
HETATM    5  C5  UNL     1      19.614   0.596  51.859  1.00  0.00     0.018 C 
HETATM    6  C6  UNL     1      20.586   0.541  52.751  1.00  0.00     0.092 C 
BRANCH   6   7
HETATM    7  N1  UNL     1      21.680   1.443  52.826  1.00  0.00    -0.319 N 
HETATM    8  C7  UNL     1      22.903   0.729  53.082  1.00  0.00     0.322 C 
HETATM    9  O1  UNL     1      22.614  -0.517  53.182  1.00  0.00    -0.247 OA
HETATM   10  N2  UNL     1      24.338   0.922  53.268  1.00  0.00    -0.325 N 
HETATM   11  H6  UNL     1      22.034   2.440  52.769  1.00  0.00     0.170 HD
BRANCH  10  12
HETATM   12  C8  UNL     1      24.920  -0.368  53.515  1.00  0.00     0.166 C 
BRANCH  12  13
HETATM   13  C9  UNL     1      26.375  -0.431  53.716  1.00  0.00    -0.040 A 
HETATM   14  C10 UNL     1      27.113  -1.314  52.913  1.00  0.00     0.012 A 
HETATM   15  C11 UNL     1      28.479  -1.564  52.903  1.00  0.00     0.043 A 
HETATM   16  C12 UNL     1      29.194  -0.828  53.820  1.00  0.00     0.116 A 
HETATM   17  F1  UNL     1      30.536  -1.034  53.856  1.00  0.00    -0.206 F 
HETATM   18  C13 UNL     1      28.563   0.062  54.650  1.00  0.00     0.043 A 
HETATM   19  C14 UNL     1      27.210   0.235  54.581  1.00  0.00     0.012 A 
ENDBRANCH  12  13
ENDBRANCH  10  12
BRANCH  10  20
HETATM   20  C15 UNL     1      24.654   2.327  53.155  1.00  0.00     0.169 C 
BRANCH  20  21
HETATM   21  C16 UNL     1      25.032   2.840  51.850  1.00  0.00    -0.006 A 
HETATM   22  C17 UNL     1      26.248   2.644  51.221  1.00  0.00     0.012 A 
HETATM   23  C18 UNL     1      26.632   3.134  49.996  1.00  0.00     0.002 A 
HETATM   24  C19 UNL     1      25.759   3.909  49.265  1.00  0.00     0.022 A 
HETATM   25  C20 UNL     1      24.512   4.163  49.809  1.00  0.00     0.044 A 
HETATM   26 BR1  UNL     1      23.301   5.234  48.804  1.00  0.00    -0.048 Br
HETATM   27  C21 UNL     1      24.221   3.628  51.043  1.00  0.00     0.090 A 
BRANCH  27  28
HETATM   28  O2  UNL     1      22.937   3.951  51.473  1.00  0.00    -0.359 OA
HETATM   29  H18 UNL     1      22.769   4.648  52.175  1.00  0.00     0.217 HD
ENDBRANCH  27  28
ENDBRANCH  20  21
ENDBRANCH  10  20
ENDBRANCH   6   7
ENDBRANCH   4   5
TORSDOF 7
ENDMDL
MODEL 2
REMARK VINA RESULT:      -8.2      3.075      6.903
REMARK  7 active torsions:
REMARK  status: ('A' for Active; 'I' for Inactive)
REMARK    1  A    between atoms: C4_4  and  C5_5 
REMARK    2  A    between atoms: C6_6  and  N1_7 
REMARK       I    between atoms: N1_7  and  C7_8 
REMARK       I    between atoms: C7_8  and  N2_10 
REMARK    3  A    between atoms: N2_10  and  C8_11 
REMARK    4  A    between atoms: N2_10  and  C15_19 
REMARK    5  A    between atoms: C8_11  and  C9_12 
REMARK    6  A    between atoms: C15_19  and  C16_20 
REMARK    7  A    between atoms: C21_26  and  O2_27 
ROOT
HETATM    1  C1  UNL     1      27.687  -2.369  52.702  1.00  0.00     0.017 C 
HETATM    2  C2  UNL     1      28.739  -1.917  53.112  1.00  0.00    -0.089 C 
HETATM    3  C3  UNL     1      29.984  -1.394  53.591  1.00  0.00     0.063 C 
HETATM    4  C4  UNL     1      30.079  -0.060  53.698  1.00  0.00     0.010 C 
ENDROOT
BRANCH   4   5
HETATM    5  C5  UNL     1      28.977   0.825  53.347  1.00  0.00     0.018 C 
HETATM    6  C6  UNL     1      28.230   1.500  54.201  1.00  0.00     0.092 C 
BRANCH   6   7
HETATM    7  N1  UNL     1      27.158   2.363  53.848  1.00  0.00    -0.319 N 
HETATM    8  C7  UNL     1      25.952   1.607  53.644  1.00  0.00     0.322 C 
HETATM    9  O1  UNL     1      26.230   0.367  53.830  1.00  0.00    -0.247 OA
HETATM   10  N2  UNL     1      24.540   1.751  53.302  1.00  0.00    -0.325 N 
HETATM   11  H6  UNL     1      26.815   3.348  53.666  1.00  0.00     0.170 HD
BRANCH  10  12
HETATM   12  C8  UNL     1      23.963   0.436  53.280  1.00  0.00     0.166 C 
BRANCH  12  13
HETATM   13  C9  UNL     1      22.541   0.322  52.918  1.00  0.00    -0.040 A 
HETATM   14  C10 UNL     1      21.632  -0.038  53.923  1.00  0.00     0.012 A 
HETATM   15  C11 UNL     1      20.257  -0.215  53.847  1.00  0.00     0.043 A 
HETATM   16  C12 UNL     1      19.730  -0.000  52.594  1.00  0.00     0.116 A 
HETATM   17  F1  UNL     1      18.389  -0.161  52.459  1.00  0.00    -0.206 F 
HETATM   18  C13 UNL     1      20.538   0.356  51.545  1.00  0.00     0.043 A 
HETATM   19  C14 UNL     1      21.884   0.504  51.725  1.00  0.00     0.012 A 
ENDBRANCH  12  13
ENDBRANCH  10  12
BRANCH  10  20
HETATM   20  C15 UNL     1      24.235   3.148  53.092  1.00  0.00     0.169 C 
BRANCH  20  21
HETATM   21  C16 UNL     1      24.176   3.636  51.725  1.00  0.00    -0.006 A 
HETATM   22  C17 UNL     1      24.264   2.863  50.581  1.00  0.00     0.012 A 
HETATM   23  C18 UNL     1      24.228   3.305  49.281  1.00  0.00     0.002 A 
HETATM   24  C19 UNL     1      24.090   4.651  49.020  1.00  0.00     0.022 A 
HETATM   25  C20 UNL     1      23.993   5.510  50.100  1.00  0.00     0.044 A 
HETATM   26 BR1  UNL     1      23.803   7.372  49.746  1.00  0.00    -0.048 Br
HETATM   27  C21 UNL     1      24.040   4.971  51.365  1.00  0.00     0.090 A 
BRANCH  27  28
HETATM   28  O2  UNL     1      23.926   5.938  52.360  1.00  0.00    -0.359 OA
HETATM   29  H18 UNL     1      24.414   5.865  53.234  1.00  0.00     0.217 HD
ENDBRANCH  27  28
ENDBRANCH  20  21
ENDBRANCH  10  20
ENDBRANCH   6   7
ENDBRANCH   4   5
TORSDOF 7
ENDMDL
MODEL 3
REMARK VINA RESULT:      -8.1      3.099      5.324
REMARK  7 active torsions:
REMARK  status: ('A' for Active; 'I' for Inactive)
REMARK    1  A    between atoms: C4_4  and  C5_5 
REMARK    2  A    between atoms: C6_6  and  N1_7 
REMARK       I    between atoms: N1_7  and  C7_8 
REMARK       I    between atoms: C7_8  and  N2_10 
REMARK    3  A    between atoms: N2_10  and  C8_11 
REMARK    4  A    between atoms: N2_10  and  C15_19 
REMARK    5  A    between atoms: C8_11  and  C9_12 
REMARK    6  A    between atoms: C15_19  and  C16_20 
REMARK    7  A    between atoms: C21_26  and  O2_27 
ROOT
HETATM    1  C1  UNL     1      18.087  -2.420  53.766  1.00  0.00     0.017 C 
HETATM    2  C2  UNL     1      17.669  -1.673  52.903  1.00  0.00    -0.089 C 
HETATM    3  C3  UNL     1      17.164  -0.794  51.890  1.00  0.00     0.063 C 
HETATM    4  C4  UNL     1      17.975   0.198  51.491  1.00  0.00     0.010 C 
ENDROOT
BRANCH   4   5
HETATM    5  C5  UNL     1      19.305   0.384  52.053  1.00  0.00     0.018 C 
HETATM    6  C6  UNL     1      19.985   1.516  52.065  1.00  0.00     0.092 C 
BRANCH   6   7
HETATM    7  N1  UNL     1      21.282   1.687  52.618  1.00  0.00    -0.319 N 
HETATM    8  C7  UNL     1      22.213   2.092  51.599  1.00  0.00     0.322 C 
HETATM    9  O1  UNL     1      21.574   2.156  50.487  1.00  0.00    -0.247 OA
HETATM   10  N2  UNL     1      23.613   2.449  51.386  1.00  0.00    -0.325 N 
HETATM   11  H6  UNL     1      21.910   1.663  53.470  1.00  0.00     0.170 HD
BRANCH  10  12
HETATM   12  C8  UNL     1      23.780   2.734  49.988  1.00  0.00     0.166 C 
BRANCH  12  13
HETATM   13  C9  UNL     1      24.906   3.595  49.598  1.00  0.00    -0.040 A 
HETATM   14  C10 UNL     1      24.621   4.906  49.189  1.00  0.00     0.012 A 
HETATM   15  C11 UNL     1      25.488   5.909  48.773  1.00  0.00     0.043 A 
HETATM   16  C12 UNL     1      26.814   5.541  48.771  1.00  0.00     0.116 A 
HETATM   17  F1  UNL     1      27.708   6.482  48.371  1.00  0.00    -0.206 F 
HETATM   18  C13 UNL     1      27.194   4.282  49.155  1.00  0.00     0.043 A 
HETATM   19  C14 UNL     1      26.260   3.365  49.549  1.00  0.00     0.012 A 
ENDBRANCH  12  13
ENDBRANCH  10  12
BRANCH  10  20
HETATM   20  C15 UNL     1      24.325   2.373  52.641  1.00  0.00     0.169 C 
BRANCH  20  21
HETATM   21  C16 UNL     1      25.393   1.395  52.762  1.00  0.00    -0.006 A 
HETATM   22  C17 UNL     1      25.354   0.090  52.306  1.00  0.00     0.012 A 
HETATM   23  C18 UNL     1      26.343  -0.856  52.425  1.00  0.00     0.002 A 
HETATM   24  C19 UNL     1      27.525  -0.533  53.056  1.00  0.00     0.022 A 
HETATM   25  C20 UNL     1      27.663   0.752  53.549  1.00  0.00     0.044 A 
HETATM   26 BR1  UNL     1      29.293   1.204  54.422  1.00  0.00    -0.048 Br
HETATM   27  C21 UNL     1      26.615   1.628  53.380  1.00  0.00     0.090 A 
BRANCH  27  28
HETATM   28  O2  UNL     1      26.882   2.886  53.913  1.00  0.00    -0.359 OA
HETATM   29  H18 UNL     1      26.804   3.724  53.367  1.00  0.00     0.217 HD
ENDBRANCH  27  28
ENDBRANCH  20  21
ENDBRANCH  10  20
ENDBRANCH   6   7
ENDBRANCH   4   5
TORSDOF 7
ENDMDL
MODEL 4
REMARK VINA RESULT:      -8.0      2.953      5.438
REMARK  7 active torsions:
REMARK  status: ('A' for Active; 'I' for Inactive)
REMARK    1  A    between atoms: C4_4  and  C5_5 
REMARK    2  A    between atoms: C6_6  and  N1_7 
REMARK       I    between atoms: N1_7  and  C7_8 
REMARK       I    between atoms: C7_8  and  N2_10 
REMARK    3  A    between atoms: N2_10  and  C8_11 
REMARK    4  A    between atoms: N2_10  and  C15_19 
REMARK    5  A    between atoms: C8_11  and  C9_12 
REMARK    6  A    between atoms: C15_19  and  C16_20 
REMARK    7  A    between atoms: C21_26  and  O2_27 
ROOT
HETATM    1  C1  UNL     1      23.927   7.227  48.139  1.00  0.00     0.017 C 
HETATM    2  C2  UNL     1      23.088   7.666  48.903  1.00  0.00    -0.089 C 
HETATM    3  C3  UNL     1      22.097   8.192  49.794  1.00  0.00     0.063 C 
HETATM    4  C4  UNL     1      21.445   7.307  50.564  1.00  0.00     0.010 C 
ENDROOT
BRANCH   4   5
HETATM    5  C5  UNL     1      21.722   5.878  50.506  1.00  0.00     0.018 C 
HETATM    6  C6  UNL     1      21.923   5.090  51.546  1.00  0.00     0.092 C 
BRANCH   6   7
HETATM    7  N1  UNL     1      22.191   3.697  51.479  1.00  0.00    -0.319 N 
HETATM    8  C7  UNL     1      23.318   3.361  52.308  1.00  0.00     0.322 C 
HETATM    9  O1  UNL     1      23.747   4.446  52.843  1.00  0.00    -0.247 OA
HETATM   10  N2  UNL     1      24.136   2.235  52.747  1.00  0.00    -0.325 N 
HETATM   11  H6  UNL     1      21.930   2.746  51.093  1.00  0.00     0.170 HD
BRANCH  10  12
HETATM   12  C8  UNL     1      25.152   2.752  53.621  1.00  0.00     0.166 C 
BRANCH  12  13
HETATM   13  C9  UNL     1      26.410   1.996  53.725  1.00  0.00    -0.040 A 
HETATM   14  C10 UNL     1      26.416   0.833  54.509  1.00  0.00     0.012 A 
HETATM   15  C11 UNL     1      27.457  -0.048  54.771  1.00  0.00     0.043 A 
HETATM   16  C12 UNL     1      28.646   0.288  54.164  1.00  0.00     0.116 A 
HETATM   17  F1  UNL     1      29.700  -0.538  54.387  1.00  0.00    -0.206 F 
HETATM   18  C13 UNL     1      28.740   1.406  53.377  1.00  0.00     0.043 A 
HETATM   19  C14 UNL     1      27.653   2.211  53.181  1.00  0.00     0.012 A 
ENDBRANCH  12  13
ENDBRANCH  10  12
BRANCH  10  20
HETATM   20  C15 UNL     1      23.648   1.019  52.138  1.00  0.00     0.169 C 
BRANCH  20  21
HETATM   21  C16 UNL     1      22.712   0.204  52.894  1.00  0.00    -0.006 A 
HETATM   22  C17 UNL     1      23.029  -0.620  53.959  1.00  0.00     0.012 A 
HETATM   23  C18 UNL     1      22.164  -1.412  54.676  1.00  0.00     0.002 A 
HETATM   24  C19 UNL     1      20.826  -1.431  54.351  1.00  0.00     0.022 A 
HETATM   25  C20 UNL     1      20.407  -0.637  53.297  1.00  0.00     0.044 A 
HETATM   26 BR1  UNL     1      18.558  -0.660  52.842  1.00  0.00    -0.048 Br
HETATM   27  C21 UNL     1      21.349   0.120  52.640  1.00  0.00     0.090 A 
BRANCH  27  28
HETATM   28  O2  UNL     1      20.799   0.875  51.608  1.00  0.00    -0.359 OA
HETATM   29  H18 UNL     1      20.425   0.452  50.779  1.00  0.00     0.217 HD
ENDBRANCH  27  28
ENDBRANCH  20  21
ENDBRANCH  10  20
ENDBRANCH   6   7
ENDBRANCH   4   5
TORSDOF 7
ENDMDL
MODEL 5
REMARK VINA RESULT:      -8.0      1.657      2.005
REMARK  7 active torsions:
REMARK  status: ('A' for Active; 'I' for Inactive)
REMARK    1  A    between atoms: C4_4  and  C5_5 
REMARK    2  A    between atoms: C6_6  and  N1_7 
REMARK       I    between atoms: N1_7  and  C7_8 
REMARK       I    between atoms: C7_8  and  N2_10 
REMARK    3  A    between atoms: N2_10  and  C8_11 
REMARK    4  A    between atoms: N2_10  and  C15_19 
REMARK    5  A    between atoms: C8_11  and  C9_12 
REMARK    6  A    between atoms: C15_19  and  C16_20 
REMARK    7  A    between atoms: C21_26  and  O2_27 
ROOT
HETATM    1  C1  UNL     1      16.434   0.295  52.145  1.00  0.00     0.017 C 
HETATM    2  C2  UNL     1      16.835  -0.721  52.681  1.00  0.00    -0.089 C 
HETATM    3  C3  UNL     1      17.298  -1.924  53.306  1.00  0.00     0.063 C 
HETATM    4  C4  UNL     1      18.594  -1.966  53.653  1.00  0.00     0.010 C 
ENDROOT
BRANCH   4   5
HETATM    5  C5  UNL     1      19.496  -0.848  53.410  1.00  0.00     0.018 C 
HETATM    6  C6  UNL     1      20.725  -0.735  53.881  1.00  0.00     0.092 C 
BRANCH   6   7
HETATM    7  N1  UNL     1      21.597   0.358  53.636  1.00  0.00    -0.319 N 
HETATM    8  C7  UNL     1      22.928  -0.114  53.361  1.00  0.00     0.322 C 
HETATM    9  O1  UNL     1      22.914  -1.395  53.441  1.00  0.00    -0.247 OA
HETATM   10  N2  UNL     1      24.273   0.346  53.028  1.00  0.00    -0.325 N 
HETATM   11  H6  UNL     1      21.730   1.405  53.549  1.00  0.00     0.170 HD
BRANCH  10  12
HETATM   12  C8  UNL     1      25.114  -0.813  52.923  1.00  0.00     0.166 C 
BRANCH  12  13
HETATM   13  C9  UNL     1      26.547  -0.644  53.210  1.00  0.00    -0.040 A 
HETATM   14  C10 UNL     1      27.405  -1.717  52.932  1.00  0.00     0.012 A 
HETATM   15  C11 UNL     1      28.780  -1.817  53.109  1.00  0.00     0.043 A 
HETATM   16  C12 UNL     1      29.363  -0.687  53.635  1.00  0.00     0.116 A 
HETATM   17  F1  UNL     1      30.706  -0.728  53.833  1.00  0.00    -0.206 F 
HETATM   18  C13 UNL     1      28.607   0.415  53.941  1.00  0.00     0.043 A 
HETATM   19  C14 UNL     1      27.258   0.412  53.728  1.00  0.00     0.012 A 
ENDBRANCH  12  13
ENDBRANCH  10  12
BRANCH  10  20
HETATM   20  C15 UNL     1      24.281   1.789  52.941  1.00  0.00     0.169 C 
BRANCH  20  21
HETATM   21  C16 UNL     1      24.233   2.394  51.622  1.00  0.00    -0.006 A 
HETATM   22  C17 UNL     1      23.156   2.365  50.754  1.00  0.00     0.012 A 
HETATM   23  C18 UNL     1      23.094   2.915  49.496  1.00  0.00     0.002 A 
HETATM   24  C19 UNL     1      24.187   3.581  48.987  1.00  0.00     0.022 A 
HETATM   25  C20 UNL     1      25.317   3.667  49.781  1.00  0.00     0.044 A 
HETATM   26 BR1  UNL     1      26.831   4.586  49.082  1.00  0.00    -0.048 Br
HETATM   27  C21 UNL     1      25.282   3.083  51.026  1.00  0.00     0.090 A 
BRANCH  27  28
HETATM   28  O2  UNL     1      26.475   3.245  51.724  1.00  0.00    -0.359 OA
HETATM   29  H18 UNL     1      26.496   3.422  52.712  1.00  0.00     0.217 HD
ENDBRANCH  27  28
ENDBRANCH  20  21
ENDBRANCH  10  20
ENDBRANCH   6   7
ENDBRANCH   4   5
TORSDOF 7
ENDMDL
MODEL 6
REMARK VINA RESULT:      -7.8      1.629      2.186
REMARK  7 active torsions:
REMARK  status: ('A' for Active; 'I' for Inactive)
REMARK    1  A    between atoms: C4_4  and  C5_5 
REMARK    2  A    between atoms: C6_6  and  N1_7 
REMARK       I    between atoms: N1_7  and  C7_8 
REMARK       I    between atoms: C7_8  and  N2_10 
REMARK    3  A    between atoms: N2_10  and  C8_11 
REMARK    4  A    between atoms: N2_10  and  C15_19 
REMARK    5  A    between atoms: C8_11  and  C9_12 
REMARK    6  A    between atoms: C15_19  and  C16_20 
REMARK    7  A    between atoms: C21_26  and  O2_27 
ROOT
HETATM    1  C1  UNL     1      18.004  -0.118  50.990  1.00  0.00     0.017 C 
HETATM    2  C2  UNL     1      18.404  -0.430  52.096  1.00  0.00    -0.089 C 
HETATM    3  C3  UNL     1      18.867  -0.806  53.399  1.00  0.00     0.063 C 
HETATM    4  C4  UNL     1      20.184  -0.698  53.628  1.00  0.00     0.010 C 
ENDROOT
BRANCH   4   5
HETATM    5  C5  UNL     1      21.111  -0.223  52.609  1.00  0.00     0.018 C 
HETATM    6  C6  UNL     1      21.711   0.953  52.602  1.00  0.00     0.092 C 
BRANCH   6   7
HETATM    7  N1  UNL     1      22.615   1.405  51.604  1.00  0.00    -0.319 N 
HETATM    8  C7  UNL     1      23.871   1.779  52.197  1.00  0.00     0.322 C 
HETATM    9  O1  UNL     1      23.775   1.600  53.464  1.00  0.00    -0.247 OA
HETATM   10  N2  UNL     1      25.200   2.285  51.869  1.00  0.00    -0.325 N 
HETATM   11  H6  UNL     1      22.808   1.595  50.581  1.00  0.00     0.170 HD
BRANCH  10  12
HETATM   12  C8  UNL     1      25.929   2.419  53.099  1.00  0.00     0.166 C 
BRANCH  12  13
HETATM   13  C9  UNL     1      27.133   1.591  53.271  1.00  0.00    -0.040 A 
HETATM   14  C10 UNL     1      27.032   0.218  53.005  1.00  0.00     0.012 A 
HETATM   15  C11 UNL     1      28.003  -0.771  53.090  1.00  0.00     0.043 A 
HETATM   16  C12 UNL     1      29.237  -0.316  53.496  1.00  0.00     0.116 A 
HETATM   17  F1  UNL     1      30.226  -1.241  53.599  1.00  0.00    -0.206 F 
HETATM   18  C13 UNL     1      29.436   1.010  53.779  1.00  0.00     0.043 A 
HETATM   19  C14 UNL     1      28.412   1.907  53.664  1.00  0.00     0.012 A 
ENDBRANCH  12  13
ENDBRANCH  10  12
BRANCH  10  20
HETATM   20  C15 UNL     1      25.301   2.485  50.441  1.00  0.00     0.169 C 
BRANCH  20  21
HETATM   21  C16 UNL     1      25.748   3.781  49.962  1.00  0.00    -0.006 A 
HETATM   22  C17 UNL     1      26.869   4.018  49.187  1.00  0.00     0.012 A 
HETATM   23  C18 UNL     1      27.321   5.236  48.739  1.00  0.00     0.002 A 
HETATM   24  C19 UNL     1      26.627   6.382  49.059  1.00  0.00     0.022 A 
HETATM   25  C20 UNL     1      25.486   6.251  49.832  1.00  0.00     0.044 A 
HETATM   26 BR1  UNL     1      24.523   7.831  50.278  1.00  0.00    -0.048 Br
HETATM   27  C21 UNL     1      25.116   4.988  50.233  1.00  0.00     0.090 A 
BRANCH  27  28
HETATM   28  O2  UNL     1      23.952   4.992  50.997  1.00  0.00    -0.359 OA
HETATM   29  H18 UNL     1      23.635   5.812  51.482  1.00  0.00     0.217 HD
ENDBRANCH  27  28
ENDBRANCH  20  21
ENDBRANCH  10  20
ENDBRANCH   6   7
ENDBRANCH   4   5
TORSDOF 7
ENDMDL
MODEL 7
REMARK VINA RESULT:      -7.8      2.699      5.936
REMARK  7 active torsions:
REMARK  status: ('A' for Active; 'I' for Inactive)
REMARK    1  A    between atoms: C4_4  and  C5_5 
REMARK    2  A    between atoms: C6_6  and  N1_7 
REMARK       I    between atoms: N1_7  and  C7_8 
REMARK       I    between atoms: C7_8  and  N2_10 
REMARK    3  A    between atoms: N2_10  and  C8_11 
REMARK    4  A    between atoms: N2_10  and  C15_19 
REMARK    5  A    between atoms: C8_11  and  C9_12 
REMARK    6  A    between atoms: C15_19  and  C16_20 
REMARK    7  A    between atoms: C21_26  and  O2_27 
ROOT
HETATM    1  C1  UNL     1      27.127   7.547  48.849  1.00  0.00     0.017 C 
HETATM    2  C2  UNL     1      26.235   7.675  48.032  1.00  0.00    -0.089 C 
HETATM    3  C3  UNL     1      25.192   7.825  47.061  1.00  0.00     0.063 C 
HETATM    4  C4  UNL     1      23.986   7.338  47.389  1.00  0.00     0.010 C 
ENDROOT
BRANCH   4   5
HETATM    5  C5  UNL     1      23.735   6.687  48.667  1.00  0.00     0.018 C 
HETATM    6  C6  UNL     1      23.710   5.384  48.875  1.00  0.00     0.092 C 
BRANCH   6   7
HETATM    7  N1  UNL     1      23.466   4.759  50.127  1.00  0.00    -0.319 N 
HETATM    8  C7  UNL     1      24.589   3.944  50.509  1.00  0.00     0.322 C 
HETATM    9  O1  UNL     1      25.467   4.025  49.575  1.00  0.00    -0.247 OA
HETATM   10  N2  UNL     1      25.076   3.068  51.570  1.00  0.00    -0.325 N 
HETATM   11  H6  UNL     1      22.819   4.613  50.953  1.00  0.00     0.170 HD
BRANCH  10  12
HETATM   12  C8  UNL     1      26.372   2.591  51.178  1.00  0.00     0.166 C 
BRANCH  12  13
HETATM   13  C9  UNL     1      27.045   1.635  52.071  1.00  0.00    -0.040 A 
HETATM   14  C10 UNL     1      27.945   2.142  53.020  1.00  0.00     0.012 A 
HETATM   15  C11 UNL     1      28.703   1.465  53.967  1.00  0.00     0.043 A 
HETATM   16  C12 UNL     1      28.530   0.100  53.956  1.00  0.00     0.116 A 
HETATM   17  F1  UNL     1      29.248  -0.615  54.860  1.00  0.00    -0.206 F 
HETATM   18  C13 UNL     1      27.671  -0.491  53.065  1.00  0.00     0.043 A 
HETATM   19  C14 UNL     1      26.969   0.266  52.171  1.00  0.00     0.012 A 
ENDBRANCH  12  13
ENDBRANCH  10  12
BRANCH  10  20
HETATM   20  C15 UNL     1      24.083   2.981  52.616  1.00  0.00     0.169 C 
BRANCH  20  21
HETATM   21  C16 UNL     1      23.283   1.771  52.700  1.00  0.00    -0.006 A 
HETATM   22  C17 UNL     1      23.660   0.589  53.312  1.00  0.00     0.012 A 
HETATM   23  C18 UNL     1      22.928  -0.571  53.388  1.00  0.00     0.002 A 
HETATM   24  C19 UNL     1      21.677  -0.628  52.816  1.00  0.00     0.022 A 
HETATM   25  C20 UNL     1      21.207   0.506  52.178  1.00  0.00     0.044 A 
HETATM   26 BR1  UNL     1      19.478   0.432  51.384  1.00  0.00    -0.048 Br
HETATM   27  C21 UNL     1      22.015   1.619  52.155  1.00  0.00     0.090 A 
BRANCH  27  28
HETATM   28  O2  UNL     1      21.425   2.691  51.490  1.00  0.00    -0.359 OA
HETATM   29  H18 UNL     1      21.893   3.571  51.376  1.00  0.00     0.217 HD
ENDBRANCH  27  28
ENDBRANCH  20  21
ENDBRANCH  10  20
ENDBRANCH   6   7
ENDBRANCH   4   5
TORSDOF 7
ENDMDL
MODEL 8
REMARK VINA RESULT:      -7.7      3.625      7.212
REMARK  7 active torsions:
REMARK  status: ('A' for Active; 'I' for Inactive)
REMARK    1  A    between atoms: C4_4  and  C5_5 
REMARK    2  A    between atoms: C6_6  and  N1_7 
REMARK       I    between atoms: N1_7  and  C7_8 
REMARK       I    between atoms: C7_8  and  N2_10 
REMARK    3  A    between atoms: N2_10  and  C8_11 
REMARK    4  A    between atoms: N2_10  and  C15_19 
REMARK    5  A    between atoms: C8_11  and  C9_12 
REMARK    6  A    between atoms: C15_19  and  C16_20 
REMARK    7  A    between atoms: C21_26  and  O2_27 
ROOT
HETATM    1  C1  UNL     1      26.951   5.846  48.586  1.00  0.00     0.017 C 
HETATM    2  C2  UNL     1      26.005   6.606  48.671  1.00  0.00    -0.089 C 
HETATM    3  C3  UNL     1      24.890   7.501  48.760  1.00  0.00     0.063 C 
HETATM    4  C4  UNL     1      24.109   7.389  49.845  1.00  0.00     0.010 C 
ENDROOT
BRANCH   4   5
HETATM    5  C5  UNL     1      24.372   6.409  50.890  1.00  0.00     0.018 C 
HETATM    6  C6  UNL     1      23.957   5.155  50.891  1.00  0.00     0.092 C 
BRANCH   6   7
HETATM    7  N1  UNL     1      24.221   4.206  51.914  1.00  0.00    -0.319 N 
HETATM    8  C7  UNL     1      23.458   3.006  51.694  1.00  0.00     0.322 C 
HETATM    9  O1  UNL     1      22.754   3.178  50.636  1.00  0.00    -0.247 OA
HETATM   10  N2  UNL     1      23.206   1.678  52.246  1.00  0.00    -0.325 N 
HETATM   11  H6  UNL     1      24.747   3.954  52.798  1.00  0.00     0.170 HD
BRANCH  10  12
HETATM   12  C8  UNL     1      22.235   1.036  51.405  1.00  0.00     0.166 C 
BRANCH  12  13
HETATM   13  C9  UNL     1      21.115   0.344  52.062  1.00  0.00    -0.040 A 
HETATM   14  C10 UNL     1      19.839   0.471  51.494  1.00  0.00     0.012 A 
HETATM   15  C11 UNL     1      18.630  -0.070  51.912  1.00  0.00     0.043 A 
HETATM   16  C12 UNL     1      18.721  -0.839  53.050  1.00  0.00     0.116 A 
HETATM   17  F1  UNL     1      17.568  -1.393  53.506  1.00  0.00    -0.206 F 
HETATM   18  C13 UNL     1      19.925  -1.024  53.678  1.00  0.00     0.043 A 
HETATM   19  C14 UNL     1      21.061  -0.446  53.185  1.00  0.00     0.012 A 
ENDBRANCH  12  13
ENDBRANCH  10  12
BRANCH  10  20
HETATM   20  C15 UNL     1      24.001   1.493  53.439  1.00  0.00     0.169 C 
BRANCH  20  21
HETATM   21  C16 UNL     1      25.236   0.736  53.325  1.00  0.00    -0.006 A 
HETATM   22  C17 UNL     1      25.356  -0.558  52.853  1.00  0.00     0.012 A 
HETATM   23  C18 UNL     1      26.510  -1.298  52.754  1.00  0.00     0.002 A 
HETATM   24  C19 UNL     1      27.709  -0.749  53.149  1.00  0.00     0.022 A 
HETATM   25  C20 UNL     1      27.697   0.546  53.637  1.00  0.00     0.044 A 
HETATM   26 BR1  UNL     1      29.352   1.310  54.186  1.00  0.00    -0.048 Br
HETATM   27  C21 UNL     1      26.490   1.205  53.698  1.00  0.00     0.090 A 
BRANCH  27  28
HETATM   28  O2  UNL     1      26.614   2.498  54.199  1.00  0.00    -0.359 OA
HETATM   29  H18 UNL     1      26.024   3.248  53.892  1.00  0.00     0.217 HD
ENDBRANCH  27  28
ENDBRANCH  20  21
ENDBRANCH  10  20
ENDBRANCH   6   7
ENDBRANCH   4   5
TORSDOF 7
ENDMDL
MODEL 9
REMARK VINA RESULT:      -7.7      3.020      4.815
REMARK  7 active torsions:
REMARK  status: ('A' for Active; 'I' for Inactive)
REMARK    1  A    between atoms: C4_4  and  C5_5 
REMARK    2  A    between atoms: C6_6  and  N1_7 
REMARK       I    between atoms: N1_7  and  C7_8 
REMARK       I    between atoms: C7_8  and  N2_10 
REMARK    3  A    between atoms: N2_10  and  C8_11 
REMARK    4  A    between atoms: N2_10  and  C15_19 
REMARK    5  A    between atoms: C8_11  and  C9_12 
REMARK    6  A    between atoms: C15_19  and  C16_20 
REMARK    7  A    between atoms: C21_26  and  O2_27 
ROOT
HETATM    1  C1  UNL     1      19.252   5.646  46.705  1.00  0.00     0.017 C 
HETATM    2  C2  UNL     1      20.110   5.081  46.054  1.00  0.00    -0.089 C 
HETATM    3  C3  UNL     1      21.121   4.424  45.279  1.00  0.00     0.063 C 
HETATM    4  C4  UNL     1      21.960   3.613  45.942  1.00  0.00     0.010 C 
ENDROOT
BRANCH   4   5
HETATM    5  C5  UNL     1      21.858   3.402  47.379  1.00  0.00     0.018 C 
HETATM    6  C6  UNL     1      22.807   3.652  48.263  1.00  0.00     0.092 C 
BRANCH   6   7
HETATM    7  N1  UNL     1      22.697   3.445  49.663  1.00  0.00    -0.319 N 
HETATM    8  C7  UNL     1      23.992   3.190  50.237  1.00  0.00     0.322 C 
HETATM    9  O1  UNL     1      24.853   3.212  49.285  1.00  0.00    -0.247 OA
HETATM   10  N2  UNL     1      24.663   2.916  51.504  1.00  0.00    -0.325 N 
HETATM   11  H6  UNL     1      22.081   3.397  50.523  1.00  0.00     0.170 HD
BRANCH  10  12
HETATM   12  C8  UNL     1      26.062   2.753  51.227  1.00  0.00     0.166 C 
BRANCH  12  13
HETATM   13  C9  UNL     1      26.784   1.703  51.964  1.00  0.00    -0.040 A 
HETATM   14  C10 UNL     1      27.790   2.099  52.857  1.00  0.00     0.012 A 
HETATM   15  C11 UNL     1      28.612   1.321  53.662  1.00  0.00     0.043 A 
HETATM   16  C12 UNL     1      28.389  -0.033  53.551  1.00  0.00     0.116 A 
HETATM   17  F1  UNL     1      29.166  -0.844  54.315  1.00  0.00    -0.206 F 
HETATM   18  C13 UNL     1      27.427  -0.518  52.705  1.00  0.00     0.043 A 
HETATM   19  C14 UNL     1      26.669   0.334  51.953  1.00  0.00     0.012 A 
ENDBRANCH  12  13
ENDBRANCH  10  12
BRANCH  10  20
HETATM   20  C15 UNL     1      23.687   2.891  52.570  1.00  0.00     0.169 C 
BRANCH  20  21
HETATM   21  C16 UNL     1      23.006   1.637  52.843  1.00  0.00    -0.006 A 
HETATM   22  C17 UNL     1      23.573   0.512  53.415  1.00  0.00     0.012 A 
HETATM   23  C18 UNL     1      22.954  -0.688  53.666  1.00  0.00     0.002 A 
HETATM   24  C19 UNL     1      21.626  -0.854  53.338  1.00  0.00     0.022 A 
HETATM   25  C20 UNL     1      20.966   0.217  52.760  1.00  0.00     0.044 A 
HETATM   26 BR1  UNL     1      19.131  -0.007  52.304  1.00  0.00    -0.048 Br
HETATM   27  C21 UNL     1      21.674   1.378  52.548  1.00  0.00     0.090 A 
BRANCH  27  28
HETATM   28  O2  UNL     1      20.896   2.376  51.969  1.00  0.00    -0.359 OA
HETATM   29  H18 UNL     1      20.252   2.186  51.223  1.00  0.00     0.217 HD
ENDBRANCH  27  28
ENDBRANCH  20  21
ENDBRANCH  10  20
ENDBRANCH   6   7
ENDBRANCH   4   5
TORSDOF 7
ENDMDL
