MODEL 1
REMARK VINA RESULT:     -10.1      0.000      0.000
REMARK  3 active torsions:
REMARK  status: ('A' for Active; 'I' for Inactive)
REMARK    1  A    between atoms: O1_2  and  C2_3 
REMARK    2  A    between atoms: C13_15  and  N2_16 
REMARK    3  A    between atoms: C16_20  and  C17_21 
ROOT
HETATM    1  C2  UNL     1      27.774  -0.531  53.209  1.00  0.00     0.076 A 
HETATM    2  C3  UNL     1      26.702  -1.240  52.705  1.00  0.00     0.038 A 
HETATM    3  C4  UNL     1      25.418  -0.735  52.784  1.00  0.00     0.016 A 
HETATM    4  C5  UNL     1      25.304   0.493  53.392  1.00  0.00    -0.006 A 
HETATM    5  C6  UNL     1      26.224   1.332  53.950  1.00  0.00     0.025 A 
HETATM    6  C7  UNL     1      27.386   0.655  53.757  1.00  0.00    -0.006 A 
HETATM    7  C8  UNL     1      28.501   1.637  54.066  1.00  0.00     0.160 C 
HETATM    8  N1  UNL     1      28.039   2.806  53.224  1.00  0.00    -0.394 N 
HETATM    9  C9  UNL     1      27.347   2.239  52.074  1.00  0.00     0.083 C 
HETATM   10  C10 UNL     1      26.059   2.187  51.601  1.00  0.00     0.018 C 
HETATM   11  C11 UNL     1      24.878   2.775  52.221  1.00  0.00     0.016 C 
HETATM   12  C12 UNL     1      23.887   2.361  53.008  1.00  0.00     0.006 C 
HETATM   13  C13 UNL     1      23.971   1.080  53.352  1.00  0.00     0.081 C 
HETATM   14  H9  UNL     1      27.905   3.798  52.947  1.00  0.00     0.159 HD
ENDROOT
BRANCH  13  15
HETATM   15  N2  UNL     1      22.931   0.191  53.676  1.00  0.00    -0.226 N 
HETATM   16  C14 UNL     1      23.068  -0.830  54.647  1.00  0.00     0.229 A 
HETATM   17  N3  UNL     1      22.154  -1.650  54.960  1.00  0.00    -0.277 NA
HETATM   18  C15 UNL     1      20.856  -1.640  54.360  1.00  0.00     0.212 A 
HETATM   19  C16 UNL     1      20.741  -0.566  53.352  1.00  0.00     0.087 A 
HETATM   20  N5  UNL     1      21.691   0.270  53.041  1.00  0.00    -0.168 NA
BRANCH  19  21
HETATM   21  C17 UNL     1      19.437  -0.492  52.693  1.00  0.00     0.016 A 
HETATM   22  C18 UNL     1      18.237  -0.954  53.192  1.00  0.00     0.017 A 
HETATM   23  C19 UNL     1      17.086  -0.812  52.450  1.00  0.00     0.020 A 
HETATM   24  C20 UNL     1      17.210  -0.201  51.219  1.00  0.00     0.117 A 
HETATM   25  N4  UNL     1      18.357   0.267  50.685  1.00  0.00    -0.265 NA
HETATM   26  C21 UNL     1      19.488   0.118  51.433  1.00  0.00     0.042 A 
HETATM   27  C22 UNL     1      20.734   0.642  50.821  1.00  0.00     0.071 C 
ENDBRANCH  19  21
ENDBRANCH  13  15
BRANCH   1  28
HETATM   28  O1  UNL     1      29.087  -0.943  53.178  1.00  0.00    -0.355 OA
HETATM   29  C1  UNL     1      29.312  -2.338  53.277  1.00  0.00     0.210 C 
ENDBRANCH   1  28
TORSDOF 3
ENDMDL
MODEL 2
REMARK VINA RESULT:      -9.8      3.143      6.896
REMARK  3 active torsions:
REMARK  status: ('A' for Active; 'I' for Inactive)
REMARK    1  A    between atoms: O1_2  and  C2_3 
REMARK    2  A    between atoms: C13_15  and  N2_16 
REMARK    3  A    between atoms: C16_20  and  C17_21 
ROOT
HETATM    1  C2  UNL     1      25.736   4.718  49.833  1.00  0.00     0.076 A 
HETATM    2  C3  UNL     1      26.297   3.484  50.093  1.00  0.00     0.038 A 
HETATM    3  C4  UNL     1      25.539   2.459  50.626  1.00  0.00     0.016 A 
HETATM    4  C5  UNL     1      24.222   2.767  50.872  1.00  0.00    -0.006 A 
HETATM    5  C6  UNL     1      23.495   3.908  50.694  1.00  0.00     0.025 A 
HETATM    6  C7  UNL     1      24.415   4.757  50.166  1.00  0.00    -0.006 A 
HETATM    7  C8  UNL     1      23.637   5.952  49.650  1.00  0.00     0.160 C 
HETATM    8  N1  UNL     1      22.577   5.229  48.848  1.00  0.00    -0.394 N 
HETATM    9  C9  UNL     1      23.199   4.010  48.348  1.00  0.00     0.083 C 
HETATM   10  C10 UNL     1      23.079   2.659  48.564  1.00  0.00     0.018 C 
HETATM   11  C11 UNL     1      22.160   2.000  49.485  1.00  0.00     0.016 C 
HETATM   12  C12 UNL     1      22.213   1.507  50.720  1.00  0.00     0.006 C 
HETATM   13  C13 UNL     1      23.397   1.647  51.307  1.00  0.00     0.081 C 
HETATM   14  H9  UNL     1      21.648   5.056  48.417  1.00  0.00     0.159 HD
ENDROOT
BRANCH  13  15
HETATM   15  N2  UNL     1      23.983   0.840  52.299  1.00  0.00    -0.226 N 
HETATM   16  C14 UNL     1      23.228   0.200  53.312  1.00  0.00     0.229 A 
HETATM   17  N3  UNL     1      23.723  -0.529  54.222  1.00  0.00    -0.277 NA
HETATM   18  C15 UNL     1      25.124  -0.796  54.335  1.00  0.00     0.212 A 
HETATM   19  C16 UNL     1      25.886  -0.117  53.267  1.00  0.00     0.087 A 
HETATM   20  N5  UNL     1      25.361   0.631  52.336  1.00  0.00    -0.168 NA
BRANCH  19  21
HETATM   21  C17 UNL     1      27.331  -0.343  53.316  1.00  0.00     0.016 A 
HETATM   22  C18 UNL     1      27.980  -1.544  53.124  1.00  0.00     0.017 A 
HETATM   23  C19 UNL     1      29.354  -1.601  53.201  1.00  0.00     0.020 A 
HETATM   24  C20 UNL     1      30.010  -0.418  53.477  1.00  0.00     0.117 A 
HETATM   25  N4  UNL     1      29.424   0.781  53.674  1.00  0.00    -0.265 NA
HETATM   26  C21 UNL     1      28.063   0.817  53.593  1.00  0.00     0.042 A 
HETATM   27  C22 UNL     1      27.446   2.149  53.814  1.00  0.00     0.071 C 
ENDBRANCH  19  21
ENDBRANCH  13  15
BRANCH   1  28
HETATM   28  O1  UNL     1      26.401   5.800  49.302  1.00  0.00    -0.355 OA
HETATM   29  C1  UNL     1      27.577   5.517  48.565  1.00  0.00     0.210 C 
ENDBRANCH   1  28
TORSDOF 3
ENDMDL
MODEL 3
REMARK VINA RESULT:      -9.7      2.945      6.972
REMARK  3 active torsions:
REMARK  status: ('A' for Active; 'I' for Inactive)
REMARK    1  A    between atoms: O1_2  and  C2_3 
REMARK    2  A    between atoms: C13_15  and  N2_16 
REMARK    3  A    between atoms: C16_20  and  C17_21 
ROOT
HETATM    1  C2  UNL     1      23.025   4.790  51.564  1.00  0.00     0.076 A 
HETATM    2  C3  UNL     1      24.090   3.948  51.815  1.00  0.00     0.038 A 
HETATM    3  C4  UNL     1      23.891   2.597  52.027  1.00  0.00     0.016 A 
HETATM    4  C5  UNL     1      22.583   2.179  51.973  1.00  0.00    -0.006 A 
HETATM    5  C6  UNL     1      21.412   2.844  51.750  1.00  0.00     0.025 A 
HETATM    6  C7  UNL     1      21.837   4.120  51.564  1.00  0.00    -0.006 A 
HETATM    7  C8  UNL     1      20.649   4.882  51.009  1.00  0.00     0.160 C 
HETATM    8  N1  UNL     1      20.251   3.939  49.895  1.00  0.00    -0.394 N 
HETATM    9  C9  UNL     1      21.478   3.307  49.431  1.00  0.00     0.083 C 
HETATM   10  C10 UNL     1      22.034   2.052  49.457  1.00  0.00     0.018 C 
HETATM   11  C11 UNL     1      21.452   0.851  50.044  1.00  0.00     0.016 C 
HETATM   12  C12 UNL     1      21.555   0.184  51.191  1.00  0.00     0.006 C 
HETATM   13  C13 UNL     1      22.392   0.736  52.064  1.00  0.00     0.081 C 
HETATM   14  H9  UNL     1      19.622   3.445  49.231  1.00  0.00     0.159 HD
ENDROOT
BRANCH  13  15
HETATM   15  N2  UNL     1      23.144   0.109  53.073  1.00  0.00    -0.226 N 
HETATM   16  C14 UNL     1      22.551  -0.628  54.127  1.00  0.00     0.229 A 
HETATM   17  N3  UNL     1      23.197  -1.201  55.053  1.00  0.00    -0.277 NA
HETATM   18  C15 UNL     1      24.624  -1.171  55.146  1.00  0.00     0.212 A 
HETATM   19  C16 UNL     1      25.216  -0.396  54.035  1.00  0.00     0.087 A 
HETATM   20  N5  UNL     1      24.536   0.188  53.088  1.00  0.00    -0.168 NA
BRANCH  19  21
HETATM   21  C17 UNL     1      26.677  -0.320  54.061  1.00  0.00     0.016 A 
HETATM   22  C18 UNL     1      27.441   0.513  54.850  1.00  0.00     0.017 A 
HETATM   23  C19 UNL     1      28.815   0.470  54.762  1.00  0.00     0.020 A 
HETATM   24  C20 UNL     1      29.353  -0.429  53.864  1.00  0.00     0.117 A 
HETATM   25  N4  UNL     1      28.652  -1.264  53.070  1.00  0.00    -0.265 NA
HETATM   26  C21 UNL     1      27.293  -1.208  53.170  1.00  0.00     0.042 A 
HETATM   27  C22 UNL     1      26.548  -2.138  52.286  1.00  0.00     0.071 C 
ENDBRANCH  19  21
ENDBRANCH  13  15
BRANCH   1  28
HETATM   28  O1  UNL     1      23.116   6.144  51.338  1.00  0.00    -0.355 OA
HETATM   29  C1  UNL     1      24.308   6.601  50.725  1.00  0.00     0.210 C 
ENDBRANCH   1  28
TORSDOF 3
ENDMDL
MODEL 4
REMARK VINA RESULT:      -9.6      3.537      7.014
REMARK  3 active torsions:
REMARK  status: ('A' for Active; 'I' for Inactive)
REMARK    1  A    between atoms: O1_2  and  C2_3 
REMARK    2  A    between atoms: C13_15  and  N2_16 
REMARK    3  A    between atoms: C16_20  and  C17_21 
ROOT
HETATM    1  C2  UNL     1      24.562   5.539  49.545  1.00  0.00     0.076 A 
HETATM    2  C3  UNL     1      24.556   4.169  49.377  1.00  0.00     0.038 A 
HETATM    3  C4  UNL     1      23.919   3.346  50.286  1.00  0.00     0.016 A 
HETATM    4  C5  UNL     1      23.315   3.989  51.340  1.00  0.00    -0.006 A 
HETATM    5  C6  UNL     1      23.218   5.307  51.681  1.00  0.00     0.025 A 
HETATM    6  C7  UNL     1      23.891   5.916  50.670  1.00  0.00    -0.006 A 
HETATM    7  C8  UNL     1      23.582   7.396  50.790  1.00  0.00     0.160 C 
HETATM    8  N1  UNL     1      22.074   7.324  50.897  1.00  0.00    -0.394 N 
HETATM    9  C9  UNL     1      21.660   6.164  50.119  1.00  0.00     0.083 C 
HETATM   10  C10 UNL     1      21.119   4.927  50.370  1.00  0.00     0.018 C 
HETATM   11  C11 UNL     1      20.765   4.377  51.673  1.00  0.00     0.016 C 
HETATM   12  C12 UNL     1      21.324   3.565  52.566  1.00  0.00     0.006 C 
HETATM   13  C13 UNL     1      22.532   3.131  52.221  1.00  0.00     0.081 C 
HETATM   14  H9  UNL     1      21.116   7.599  51.191  1.00  0.00     0.159 HD
ENDROOT
BRANCH  13  15
HETATM   15  N2  UNL     1      23.167   1.929  52.581  1.00  0.00    -0.226 N 
HETATM   16  C14 UNL     1      22.499   0.680  52.588  1.00  0.00     0.229 A 
HETATM   17  N3  UNL     1      23.038  -0.420  52.911  1.00  0.00    -0.277 NA
HETATM   18  C15 UNL     1      24.405  -0.532  53.314  1.00  0.00     0.212 A 
HETATM   19  C16 UNL     1      25.077   0.784  53.298  1.00  0.00     0.087 A 
HETATM   20  N5  UNL     1      24.508   1.908  52.962  1.00  0.00    -0.168 NA
BRANCH  19  21
HETATM   21  C17 UNL     1      26.484   0.751  53.700  1.00  0.00     0.016 A 
HETATM   22  C18 UNL     1      26.998   0.176  54.843  1.00  0.00     0.017 A 
HETATM   23  C19 UNL     1      28.353   0.225  55.085  1.00  0.00     0.020 A 
HETATM   24  C20 UNL     1      29.130   0.866  54.143  1.00  0.00     0.117 A 
HETATM   25  N4  UNL     1      28.679   1.444  53.011  1.00  0.00    -0.265 NA
HETATM   26  C21 UNL     1      27.334   1.386  52.787  1.00  0.00     0.042 A 
HETATM   27  C22 UNL     1      26.867   2.030  51.534  1.00  0.00     0.071 C 
ENDBRANCH  19  21
ENDBRANCH  13  15
BRANCH   1  28
HETATM   28  O1  UNL     1      25.164   6.442  48.699  1.00  0.00    -0.355 OA
HETATM   29  C1  UNL     1      26.576   6.380  48.612  1.00  0.00     0.210 C 
ENDBRANCH   1  28
TORSDOF 3
ENDMDL
MODEL 5
REMARK VINA RESULT:      -9.6      3.751      7.133
REMARK  3 active torsions:
REMARK  status: ('A' for Active; 'I' for Inactive)
REMARK    1  A    between atoms: O1_2  and  C2_3 
REMARK    2  A    between atoms: C13_15  and  N2_16 
REMARK    3  A    between atoms: C16_20  and  C17_21 
ROOT
HETATM    1  C2  UNL     1      20.543   0.477  51.784  1.00  0.00     0.076 A 
HETATM    2  C3  UNL     1      21.422   0.640  50.732  1.00  0.00     0.038 A 
HETATM    3  C4  UNL     1      22.719   1.062  50.950  1.00  0.00     0.016 A 
HETATM    4  C5  UNL     1      23.047   1.302  52.263  1.00  0.00    -0.006 A 
HETATM    5  C6  UNL     1      22.333   1.208  53.422  1.00  0.00     0.025 A 
HETATM    6  C7  UNL     1      21.122   0.780  52.980  1.00  0.00    -0.006 A 
HETATM    7  C8  UNL     1      20.350   0.354  54.214  1.00  0.00     0.160 C 
HETATM    8  N1  UNL     1      21.391  -0.535  54.860  1.00  0.00    -0.394 N 
HETATM    9  C9  UNL     1      22.160  -1.126  53.773  1.00  0.00     0.083 C 
HETATM   10  C10 UNL     1      23.439  -1.034  53.282  1.00  0.00     0.018 C 
HETATM   11  C11 UNL     1      24.515  -0.198  53.799  1.00  0.00     0.016 C 
HETATM   12  C12 UNL     1      25.044   0.989  53.513  1.00  0.00     0.006 C 
HETATM   13  C13 UNL     1      24.451   1.615  52.502  1.00  0.00     0.081 C 
HETATM   14  H9  UNL     1      21.916  -1.003  55.625  1.00  0.00     0.159 HD
ENDROOT
BRANCH  13  15
HETATM   15  N2  UNL     1      25.003   2.546  51.604  1.00  0.00    -0.226 N 
HETATM   16  C14 UNL     1      26.249   2.345  50.961  1.00  0.00     0.229 A 
HETATM   17  N3  UNL     1      26.777   3.163  50.150  1.00  0.00    -0.277 NA
HETATM   18  C15 UNL     1      26.168   4.404  49.784  1.00  0.00     0.212 A 
HETATM   19  C16 UNL     1      24.872   4.587  50.469  1.00  0.00     0.087 A 
HETATM   20  N5  UNL     1      24.341   3.735  51.301  1.00  0.00    -0.168 NA
BRANCH  19  21
HETATM   21  C17 UNL     1      24.186   5.839  50.144  1.00  0.00     0.016 A 
HETATM   22  C18 UNL     1      24.377   7.061  50.753  1.00  0.00     0.017 A 
HETATM   23  C19 UNL     1      23.653   8.155  50.334  1.00  0.00     0.020 A 
HETATM   24  C20 UNL     1      22.757   7.952  49.304  1.00  0.00     0.117 A 
HETATM   25  N4  UNL     1      22.533   6.779  48.676  1.00  0.00    -0.265 NA
HETATM   26  C21 UNL     1      23.258   5.706  49.104  1.00  0.00     0.042 A 
HETATM   27  C22 UNL     1      22.991   4.430  48.394  1.00  0.00     0.071 C 
ENDBRANCH  19  21
ENDBRANCH  13  15
BRANCH   1  28
HETATM   28  O1  UNL     1      19.236   0.061  51.673  1.00  0.00    -0.355 OA
HETATM   29  C1  UNL     1      18.502   0.576  50.578  1.00  0.00     0.210 C 
ENDBRANCH   1  28
TORSDOF 3
ENDMDL
MODEL 6
REMARK VINA RESULT:      -9.5      3.880      5.762
REMARK  3 active torsions:
REMARK  status: ('A' for Active; 'I' for Inactive)
REMARK    1  A    between atoms: O1_2  and  C2_3 
REMARK    2  A    between atoms: C13_15  and  N2_16 
REMARK    3  A    between atoms: C16_20  and  C17_21 
ROOT
HETATM    1  C2  UNL     1      23.403  -0.481  53.784  1.00  0.00     0.076 A 
HETATM    2  C3  UNL     1      22.777   0.033  52.666  1.00  0.00     0.038 A 
HETATM    3  C4  UNL     1      23.319   1.102  51.979  1.00  0.00     0.016 A 
HETATM    4  C5  UNL     1      24.496   1.595  52.490  1.00  0.00    -0.006 A 
HETATM    5  C6  UNL     1      25.254   1.237  53.567  1.00  0.00     0.025 A 
HETATM    6  C7  UNL     1      24.553   0.189  54.076  1.00  0.00    -0.006 A 
HETATM    7  C8  UNL     1      25.465  -0.473  55.091  1.00  0.00     0.160 C 
HETATM    8  N1  UNL     1      26.715  -0.605  54.250  1.00  0.00    -0.394 N 
HETATM    9  C9  UNL     1      26.271  -0.785  52.874  1.00  0.00     0.083 C 
HETATM   10  C10 UNL     1      26.304  -0.066  51.705  1.00  0.00     0.018 C 
HETATM   11  C11 UNL     1      26.882   1.258  51.511  1.00  0.00     0.016 C 
HETATM   12  C12 UNL     1      26.440   2.513  51.477  1.00  0.00     0.006 C 
HETATM   13  C13 UNL     1      25.133   2.632  51.687  1.00  0.00     0.081 C 
HETATM   14  H9  UNL     1      27.732  -0.648  54.036  1.00  0.00     0.159 HD
ENDROOT
BRANCH  13  15
HETATM   15  N2  UNL     1      24.258   3.629  51.220  1.00  0.00    -0.226 N 
HETATM   16  C14 UNL     1      23.693   4.612  52.068  1.00  0.00     0.229 A 
HETATM   17  N3  UNL     1      22.899   5.521  51.682  1.00  0.00    -0.277 NA
HETATM   18  C15 UNL     1      22.474   5.664  50.324  1.00  0.00     0.212 A 
HETATM   19  C16 UNL     1      23.079   4.626  49.463  1.00  0.00     0.087 A 
HETATM   20  N5  UNL     1      23.895   3.697  49.875  1.00  0.00    -0.168 NA
BRANCH  19  21
HETATM   21  C17 UNL     1      22.691   4.707  48.054  1.00  0.00     0.016 A 
HETATM   22  C18 UNL     1      22.736   5.829  47.254  1.00  0.00     0.017 A 
HETATM   23  C19 UNL     1      22.336   5.749  45.938  1.00  0.00     0.020 A 
HETATM   24  C20 UNL     1      21.900   4.517  45.495  1.00  0.00     0.117 A 
HETATM   25  N4  UNL     1      21.836   3.391  46.235  1.00  0.00    -0.265 NA
HETATM   26  C21 UNL     1      22.236   3.489  47.535  1.00  0.00     0.042 A 
HETATM   27  C22 UNL     1      22.154   2.235  48.325  1.00  0.00     0.071 C 
ENDBRANCH  19  21
ENDBRANCH  13  15
BRANCH   1  28
HETATM   28  O1  UNL     1      22.948  -1.541  54.535  1.00  0.00    -0.355 OA
HETATM   29  C1  UNL     1      21.544  -1.724  54.580  1.00  0.00     0.210 C 
ENDBRANCH   1  28
TORSDOF 3
ENDMDL
MODEL 7
REMARK VINA RESULT:      -9.4      3.176      5.234
REMARK  3 active torsions:
REMARK  status: ('A' for Active; 'I' for Inactive)
REMARK    1  A    between atoms: O1_2  and  C2_3 
REMARK    2  A    between atoms: C13_15  and  N2_16 
REMARK    3  A    between atoms: C16_20  and  C17_21 
ROOT
HETATM    1  C2  UNL     1      27.083   1.573  52.980  1.00  0.00     0.076 A 
HETATM    2  C3  UNL     1      26.199   2.565  53.351  1.00  0.00     0.038 A 
HETATM    3  C4  UNL     1      24.835   2.388  53.214  1.00  0.00     0.016 A 
HETATM    4  C5  UNL     1      24.449   1.178  52.687  1.00  0.00    -0.006 A 
HETATM    5  C6  UNL     1      25.157   0.092  52.260  1.00  0.00     0.025 A 
HETATM    6  C7  UNL     1      26.440   0.476  52.490  1.00  0.00    -0.006 A 
HETATM    7  C8  UNL     1      27.287  -0.772  52.335  1.00  0.00     0.160 C 
HETATM    8  N1  UNL     1      26.502  -1.714  53.221  1.00  0.00    -0.394 N 
HETATM    9  C9  UNL     1      25.913  -0.897  54.273  1.00  0.00     0.083 C 
HETATM   10  C10 UNL     1      24.656  -0.488  54.644  1.00  0.00     0.018 C 
HETATM   11  C11 UNL     1      23.400  -0.819  53.982  1.00  0.00     0.016 C 
HETATM   12  C12 UNL     1      22.590  -0.243  53.097  1.00  0.00     0.006 C 
HETATM   13  C13 UNL     1      23.011   0.943  52.670  1.00  0.00     0.081 C 
HETATM   14  H9  UNL     1      26.108  -2.615  53.557  1.00  0.00     0.159 HD
ENDROOT
BRANCH  13  15
HETATM   15  N2  UNL     1      22.247   2.029  52.208  1.00  0.00    -0.226 N 
HETATM   16  C14 UNL     1      20.969   2.346  52.730  1.00  0.00     0.229 A 
HETATM   17  N3  UNL     1      20.253   3.313  52.335  1.00  0.00    -0.277 NA
HETATM   18  C15 UNL     1      20.655   4.212  51.298  1.00  0.00     0.212 A 
HETATM   19  C16 UNL     1      21.990   3.858  50.772  1.00  0.00     0.087 A 
HETATM   20  N5  UNL     1      22.716   2.859  51.190  1.00  0.00    -0.168 NA
BRANCH  19  21
HETATM   21  C17 UNL     1      22.472   4.735  49.704  1.00  0.00     0.016 A 
HETATM   22  C18 UNL     1      22.128   4.670  48.371  1.00  0.00     0.017 A 
HETATM   23  C19 UNL     1      22.668   5.571  47.479  1.00  0.00     0.020 A 
HETATM   24  C20 UNL     1      23.543   6.506  47.992  1.00  0.00     0.117 A 
HETATM   25  N4  UNL     1      23.913   6.612  49.286  1.00  0.00    -0.265 NA
HETATM   26  C21 UNL     1      23.369   5.712  50.154  1.00  0.00     0.042 A 
HETATM   27  C22 UNL     1      23.793   5.853  51.569  1.00  0.00     0.071 C 
ENDBRANCH  19  21
ENDBRANCH  13  15
BRANCH   1  28
HETATM   28  O1  UNL     1      28.454   1.651  53.078  1.00  0.00    -0.355 OA
HETATM   29  C1  UNL     1      29.003   1.472  54.371  1.00  0.00     0.210 C 
ENDBRANCH   1  28
TORSDOF 3
ENDMDL
MODEL 8
REMARK VINA RESULT:      -9.1      3.298      6.615
REMARK  3 active torsions:
REMARK  status: ('A' for Active; 'I' for Inactive)
REMARK    1  A    between atoms: O1_2  and  C2_3 
REMARK    2  A    between atoms: C13_15  and  N2_16 
REMARK    3  A    between atoms: C16_20  and  C17_21 
ROOT
HETATM    1  C2  UNL     1      23.956  -0.278  53.763  1.00  0.00     0.076 A 
HETATM    2  C3  UNL     1      24.210   0.884  53.063  1.00  0.00     0.038 A 
HETATM    3  C4  UNL     1      23.314   1.357  52.123  1.00  0.00     0.016 A 
HETATM    4  C5  UNL     1      22.185   0.591  51.949  1.00  0.00    -0.006 A 
HETATM    5  C6  UNL     1      21.762  -0.570  52.528  1.00  0.00     0.025 A 
HETATM    6  C7  UNL     1      22.768  -0.840  53.400  1.00  0.00    -0.006 A 
HETATM    7  C8  UNL     1      22.253  -1.942  54.307  1.00  0.00     0.160 C 
HETATM    8  N1  UNL     1      20.921  -1.340  54.694  1.00  0.00    -0.394 N 
HETATM    9  C9  UNL     1      21.106   0.105  54.699  1.00  0.00     0.083 C 
HETATM   10  C10 UNL     1      20.675   1.176  53.956  1.00  0.00     0.018 C 
HETATM   11  C11 UNL     1      19.788   1.136  52.799  1.00  0.00     0.016 C 
HETATM   12  C12 UNL     1      19.921   1.135  51.475  1.00  0.00     0.006 C 
HETATM   13  C13 UNL     1      21.183   1.163  51.058  1.00  0.00     0.081 C 
HETATM   14  H9  UNL     1      19.918  -1.316  54.968  1.00  0.00     0.159 HD
ENDROOT
BRANCH  13  15
HETATM   15  N2  UNL     1      21.698   1.690  49.861  1.00  0.00    -0.226 N 
HETATM   16  C14 UNL     1      21.587   1.021  48.618  1.00  0.00     0.229 A 
HETATM   17  N3  UNL     1      22.042   1.465  47.522  1.00  0.00    -0.277 NA
HETATM   18  C15 UNL     1      22.733   2.712  47.409  1.00  0.00     0.212 A 
HETATM   19  C16 UNL     1      22.834   3.387  48.720  1.00  0.00     0.087 A 
HETATM   20  N5  UNL     1      22.359   2.917  49.840  1.00  0.00    -0.168 NA
BRANCH  19  21
HETATM   21  C17 UNL     1      23.530   4.674  48.686  1.00  0.00     0.016 A 
HETATM   22  C18 UNL     1      23.024   5.869  48.219  1.00  0.00     0.017 A 
HETATM   23  C19 UNL     1      23.804   7.003  48.252  1.00  0.00     0.020 A 
HETATM   24  C20 UNL     1      25.078   6.867  48.763  1.00  0.00     0.117 A 
HETATM   25  N4  UNL     1      25.621   5.724  49.230  1.00  0.00    -0.265 NA
HETATM   26  C21 UNL     1      24.835   4.610  49.190  1.00  0.00     0.042 A 
HETATM   27  C22 UNL     1      25.458   3.368  49.711  1.00  0.00     0.071 C 
ENDBRANCH  19  21
ENDBRANCH  13  15
BRANCH   1  28
HETATM   28  O1  UNL     1      24.780  -0.830  54.717  1.00  0.00    -0.355 OA
HETATM   29  C1  UNL     1      26.007  -0.163  54.952  1.00  0.00     0.210 C 
ENDBRANCH   1  28
TORSDOF 3
ENDMDL
MODEL 9
REMARK VINA RESULT:      -8.6     11.950     15.058
REMARK  3 active torsions:
REMARK  status: ('A' for Active; 'I' for Inactive)
REMARK    1  A    between atoms: O1_2  and  C2_3 
REMARK    2  A    between atoms: C13_15  and  N2_16 
REMARK    3  A    between atoms: C16_20  and  C17_21 
ROOT
HETATM    1  C2  UNL     1      32.332   7.224  47.141  1.00  0.00     0.076 A 
HETATM    2  C3  UNL     1      31.817   6.860  45.914  1.00  0.00     0.038 A 
HETATM    3  C4  UNL     1      32.536   6.053  45.053  1.00  0.00     0.016 A 
HETATM    4  C5  UNL     1      33.771   5.660  45.509  1.00  0.00    -0.006 A 
HETATM    5  C6  UNL     1      34.449   5.913  46.667  1.00  0.00     0.025 A 
HETATM    6  C7  UNL     1      33.573   6.698  47.347  1.00  0.00    -0.006 A 
HETATM    7  C8  UNL     1      34.100   6.783  48.767  1.00  0.00     0.160 C 
HETATM    8  N1  UNL     1      34.321   5.311  49.036  1.00  0.00    -0.394 N 
HETATM    9  C9  UNL     1      33.311   4.595  48.269  1.00  0.00     0.083 C 
HETATM   10  C10 UNL     1      33.281   3.758  47.180  1.00  0.00     0.018 C 
HETATM   11  C11 UNL     1      34.424   3.304  46.397  1.00  0.00     0.016 C 
HETATM   12  C12 UNL     1      35.022   3.655  45.261  1.00  0.00     0.006 C 
HETATM   13  C13 UNL     1      34.467   4.702  44.659  1.00  0.00     0.081 C 
HETATM   14  H9  UNL     1      34.763   4.463  49.444  1.00  0.00     0.159 HD
ENDROOT
BRANCH  13  15
HETATM   15  N2  UNL     1      34.445   5.013  43.288  1.00  0.00    -0.226 N 
HETATM   16  C14 UNL     1      35.329   5.949  42.699  1.00  0.00     0.229 A 
HETATM   17  N3  UNL     1      35.333   6.256  41.470  1.00  0.00    -0.277 NA
HETATM   18  C15 UNL     1      34.432   5.684  40.518  1.00  0.00     0.212 A 
HETATM   19  C16 UNL     1      33.523   4.712  41.159  1.00  0.00     0.087 A 
HETATM   20  N5  UNL     1      33.531   4.407  42.427  1.00  0.00    -0.168 NA
BRANCH  19  21
HETATM   21  C17 UNL     1      32.568   4.082  40.246  1.00  0.00     0.016 A 
HETATM   22  C18 UNL     1      31.357   4.601  39.840  1.00  0.00     0.017 A 
HETATM   23  C19 UNL     1      30.562   3.886  38.971  1.00  0.00     0.020 A 
HETATM   24  C20 UNL     1      31.043   2.662  38.552  1.00  0.00     0.117 A 
HETATM   25  N4  UNL     1      32.218   2.110  38.919  1.00  0.00    -0.265 NA
HETATM   26  C21 UNL     1      32.991   2.832  39.780  1.00  0.00     0.042 A 
HETATM   27  C22 UNL     1      34.278   2.200  40.166  1.00  0.00     0.071 C 
ENDBRANCH  19  21
ENDBRANCH  13  15
BRANCH   1  28
HETATM   28  O1  UNL     1      31.697   8.019  48.068  1.00  0.00    -0.355 OA
HETATM   29  C1  UNL     1      30.417   7.590  48.494  1.00  0.00     0.210 C 
ENDBRANCH   1  28
TORSDOF 3
ENDMDL
