MODEL 1
REMARK VINA RESULT:      -9.6      0.000      0.000
REMARK  6 active torsions:
REMARK  status: ('A' for Active; 'I' for Inactive)
REMARK    1  A    between atoms: C7_11  and  N3_12 
REMARK    2  A    between atoms: N3_12  and  C8_13 
REMARK    3  A    between atoms: N4_23  and  C18_24 
REMARK    4  A    between atoms: C18_24  and  C19_25 
REMARK    5  A    between atoms: C19_25  and  C20_26 
REMARK    6  A    between atoms: C20_26  and  N5_27 
ROOT
HETATM    1  O1  UNL     1      22.549  -1.761  55.434  1.00  0.00    -0.271 OA
HETATM    2  C1  UNL     1      22.048  -1.104  54.506  1.00  0.00     0.248 C 
HETATM    3  C2  UNL     1      20.711  -1.331  53.868  1.00  0.00     0.279 C 
HETATM    4  O2  UNL     1      20.021  -0.096  53.712  1.00  0.00    -0.340 OA
HETATM    5  C3  UNL     1      20.703   1.009  53.170  1.00  0.00     0.098 A 
HETATM    6  C4  UNL     1      19.998   1.995  52.538  1.00  0.00     0.071 A 
HETATM    7  C5  UNL     1      20.661   3.078  52.007  1.00  0.00     0.075 A 
HETATM    8  N1  UNL     1      20.007   4.079  51.374  1.00  0.00    -0.241 NA
HETATM    9  C6  UNL     1      20.617   5.152  50.843  1.00  0.00     0.236 A 
HETATM   10  N2  UNL     1      21.957   5.237  50.946  1.00  0.00    -0.224 NA
HETATM   11  C7  UNL     1      22.636   4.252  51.573  1.00  0.00     0.142 A 
HETATM   12  C15 UNL     1      22.052   3.153  52.121  1.00  0.00     0.041 A 
HETATM   13  C16 UNL     1      22.728   2.139  52.765  1.00  0.00     0.050 A 
HETATM   14  C17 UNL     1      22.091   1.038  53.310  1.00  0.00     0.071 A 
HETATM   15  N4  UNL     1      22.824  -0.008  53.978  1.00  0.00    -0.314 N 
ENDROOT
BRANCH  11  16
HETATM   16  N3  UNL     1      24.043   4.400  51.651  1.00  0.00    -0.340 N 
HETATM   17  H5  UNL     1      24.698   4.394  52.437  1.00  0.00     0.167 HD
BRANCH  16  18
HETATM   18  C8  UNL     1      24.917   4.605  50.548  1.00  0.00     0.030 C 
HETATM   19  C9  UNL     1      25.705   3.544  50.377  1.00  0.00     0.006 C 
HETATM   20  C10 UNL     1      26.752   3.317  49.366  1.00  0.00     0.056 C 
HETATM   21  C11 UNL     1      27.382   4.524  48.833  1.00  0.00    -0.023 C 
HETATM   22  C12 UNL     1      27.037   5.804  48.659  1.00  0.00    -0.004 C 
HETATM   23  C13 UNL     1      25.739   6.341  49.031  1.00  0.00     0.002 C 
HETATM   24  C14 UNL     1      24.823   5.856  49.826  1.00  0.00     0.029 C 
ENDBRANCH  16  18
ENDBRANCH  11  16
BRANCH  15  25
HETATM   25  C18 UNL     1      24.247   0.082  54.084  1.00  0.00     0.134 C 
BRANCH  25  26
HETATM   26  C19 UNL     1      25.000  -0.519  52.919  1.00  0.00     0.040 C 
BRANCH  26  27
HETATM   27  C20 UNL     1      26.325  -1.109  53.303  1.00  0.00     0.118 C 
BRANCH  27  28
HETATM   28  N5  UNL     1      27.453  -0.439  52.784  1.00  0.00    -0.408 N 
HETATM   29  C21 UNL     1      28.688  -0.682  53.446  1.00  0.00     0.143 C 
HETATM   30  C22 UNL     1      28.707   0.108  54.743  1.00  0.00     0.187 C 
HETATM   31  O3  UNL     1      27.662   1.054  54.796  1.00  0.00    -0.388 OA
HETATM   32  C23 UNL     1      27.664   1.795  53.604  1.00  0.00     0.187 C 
HETATM   33  C24 UNL     1      27.295   0.929  52.421  1.00  0.00     0.143 C 
ENDBRANCH  27  28
ENDBRANCH  26  27
ENDBRANCH  25  26
ENDBRANCH  15  25
TORSDOF 6
ENDMDL
MODEL 2
REMARK VINA RESULT:      -9.6      2.054      5.870
REMARK  6 active torsions:
REMARK  status: ('A' for Active; 'I' for Inactive)
REMARK    1  A    between atoms: C7_11  and  N3_12 
REMARK    2  A    between atoms: N3_12  and  C8_13 
REMARK    3  A    between atoms: N4_23  and  C18_24 
REMARK    4  A    between atoms: C18_24  and  C19_25 
REMARK    5  A    between atoms: C19_25  and  C20_26 
REMARK    6  A    between atoms: C20_26  and  N5_27 
ROOT
HETATM    1  O1  UNL     1      19.414   1.144  49.560  1.00  0.00    -0.271 OA
HETATM    2  C1  UNL     1      19.760   0.997  50.744  1.00  0.00     0.248 C 
HETATM    3  C2  UNL     1      18.855   0.806  51.924  1.00  0.00     0.279 C 
HETATM    4  O2  UNL     1      19.336  -0.246  52.752  1.00  0.00    -0.340 OA
HETATM    5  C3  UNL     1      20.700  -0.279  53.099  1.00  0.00     0.098 A 
HETATM    6  C4  UNL     1      21.090  -0.910  54.248  1.00  0.00     0.071 A 
HETATM    7  C5  UNL     1      22.422  -0.945  54.591  1.00  0.00     0.075 A 
HETATM    8  N1  UNL     1      22.856  -1.559  55.716  1.00  0.00    -0.241 NA
HETATM    9  C6  UNL     1      24.147  -1.616  56.086  1.00  0.00     0.236 A 
HETATM   10  N2  UNL     1      25.062  -1.028  55.291  1.00  0.00    -0.224 NA
HETATM   11  C7  UNL     1      24.657  -0.410  54.161  1.00  0.00     0.142 A 
HETATM   12  C15 UNL     1      23.360  -0.332  53.757  1.00  0.00     0.041 A 
HETATM   13  C16 UNL     1      22.929   0.294  52.607  1.00  0.00     0.050 A 
HETATM   14  C17 UNL     1      21.597   0.347  52.234  1.00  0.00     0.071 A 
HETATM   15  N4  UNL     1      21.174   1.010  51.026  1.00  0.00    -0.314 N 
ENDROOT
BRANCH  11  16
HETATM   16  N3  UNL     1      25.666   0.188  53.366  1.00  0.00    -0.340 N 
HETATM   17  H5  UNL     1      25.680   1.024  52.777  1.00  0.00     0.167 HD
BRANCH  16  18
HETATM   18  C8  UNL     1      26.993  -0.299  53.209  1.00  0.00     0.030 C 
HETATM   19  C9  UNL     1      26.979  -1.594  52.897  1.00  0.00     0.006 C 
HETATM   20  C10 UNL     1      28.110  -2.502  52.643  1.00  0.00     0.056 C 
HETATM   21  C11 UNL     1      29.366  -2.139  53.301  1.00  0.00    -0.023 C 
HETATM   22  C12 UNL     1      29.945  -1.016  53.737  1.00  0.00    -0.004 C 
HETATM   23  C13 UNL     1      29.331   0.297  53.624  1.00  0.00     0.002 C 
HETATM   24  C14 UNL     1      28.088   0.629  53.401  1.00  0.00     0.029 C 
ENDBRANCH  16  18
ENDBRANCH  11  16
BRANCH  15  25
HETATM   25  C18 UNL     1      22.147   1.636  50.185  1.00  0.00     0.134 C 
BRANCH  25  26
HETATM   26  C19 UNL     1      22.479   3.060  50.566  1.00  0.00     0.040 C 
BRANCH  26  27
HETATM   27  C20 UNL     1      23.654   3.621  49.822  1.00  0.00     0.118 C 
BRANCH  27  28
HETATM   28  N5  UNL     1      24.665   4.184  50.630  1.00  0.00    -0.408 N 
HETATM   29  C21 UNL     1      25.558   5.083  49.985  1.00  0.00     0.143 C 
HETATM   30  C22 UNL     1      26.545   4.278  49.159  1.00  0.00     0.187 C 
HETATM   31  O3  UNL     1      26.494   2.905  49.472  1.00  0.00    -0.388 OA
HETATM   32  C23 UNL     1      26.567   2.757  50.866  1.00  0.00     0.187 C 
HETATM   33  C24 UNL     1      25.336   3.318  51.541  1.00  0.00     0.143 C 
ENDBRANCH  27  28
ENDBRANCH  26  27
ENDBRANCH  25  26
ENDBRANCH  15  25
TORSDOF 6
ENDMDL
MODEL 3
REMARK VINA RESULT:      -9.2      2.315      6.218
REMARK  6 active torsions:
REMARK  status: ('A' for Active; 'I' for Inactive)
REMARK    1  A    between atoms: C7_11  and  N3_12 
REMARK    2  A    between atoms: N3_12  and  C8_13 
REMARK    3  A    between atoms: N4_23  and  C18_24 
REMARK    4  A    between atoms: C18_24  and  C19_25 
REMARK    5  A    between atoms: C19_25  and  C20_26 
REMARK    6  A    between atoms: C20_26  and  N5_27 
ROOT
HETATM    1  O1  UNL     1      29.036   1.830  53.106  1.00  0.00    -0.271 OA
HETATM    2  C1  UNL     1      28.227   0.950  53.445  1.00  0.00     0.248 C 
HETATM    3  C2  UNL     1      28.415  -0.070  54.528  1.00  0.00     0.279 C 
HETATM    4  O2  UNL     1      27.243  -0.163  55.328  1.00  0.00    -0.340 OA
HETATM    5  C3  UNL     1      25.987  -0.260  54.700  1.00  0.00     0.098 A 
HETATM    6  C4  UNL     1      24.946  -0.854  55.358  1.00  0.00     0.071 A 
HETATM    7  C5  UNL     1      23.717  -0.951  54.748  1.00  0.00     0.075 A 
HETATM    8  N1  UNL     1      22.657  -1.528  55.359  1.00  0.00    -0.241 NA
HETATM    9  C6  UNL     1      21.441  -1.642  54.798  1.00  0.00     0.236 A 
HETATM   10  N2  UNL     1      21.267  -1.152  53.555  1.00  0.00    -0.224 NA
HETATM   11  C7  UNL     1      22.307  -0.569  52.922  1.00  0.00     0.142 A 
HETATM   12  C15 UNL     1      23.550  -0.438  53.459  1.00  0.00     0.041 A 
HETATM   13  C16 UNL     1      24.623   0.154  52.827  1.00  0.00     0.050 A 
HETATM   14  C17 UNL     1      25.871   0.267  53.413  1.00  0.00     0.071 A 
HETATM   15  N4  UNL     1      26.976   0.891  52.729  1.00  0.00    -0.314 N 
ENDROOT
BRANCH  11  16
HETATM   16  N3  UNL     1      22.060  -0.072  51.618  1.00  0.00    -0.340 N 
HETATM   17  H5  UNL     1      22.367  -0.377  50.691  1.00  0.00     0.167 HD
BRANCH  16  18
HETATM   18  C8  UNL     1      21.259   1.059  51.301  1.00  0.00     0.030 C 
HETATM   19  C9  UNL     1      21.131   1.181  49.979  1.00  0.00     0.006 C 
HETATM   20  C10 UNL     1      20.395   2.195  49.206  1.00  0.00     0.056 C 
HETATM   21  C11 UNL     1      20.230   3.490  49.867  1.00  0.00    -0.023 C 
HETATM   22  C12 UNL     1      20.174   3.939  51.125  1.00  0.00    -0.004 C 
HETATM   23  C13 UNL     1      20.283   3.075  52.289  1.00  0.00     0.002 C 
HETATM   24  C14 UNL     1      20.737   1.854  52.392  1.00  0.00     0.029 C 
ENDBRANCH  16  18
ENDBRANCH  11  16
BRANCH  15  25
HETATM   25  C18 UNL     1      26.790   1.408  51.409  1.00  0.00     0.134 C 
BRANCH  25  26
HETATM   26  C19 UNL     1      26.480   2.886  51.355  1.00  0.00     0.040 C 
BRANCH  26  27
HETATM   27  C20 UNL     1      25.774   3.305  50.100  1.00  0.00     0.118 C 
BRANCH  27  28
HETATM   28  N5  UNL     1      24.374   3.438  50.215  1.00  0.00    -0.408 N 
HETATM   29  C21 UNL     1      23.724   4.162  49.178  1.00  0.00     0.143 C 
HETATM   30  C22 UNL     1      23.970   5.645  49.393  1.00  0.00     0.187 C 
HETATM   31  O3  UNL     1      24.508   5.907  50.669  1.00  0.00    -0.388 OA
HETATM   32  C23 UNL     1      23.727   5.250  51.632  1.00  0.00     0.187 C 
HETATM   33  C24 UNL     1      23.846   3.748  51.501  1.00  0.00     0.143 C 
ENDBRANCH  27  28
ENDBRANCH  26  27
ENDBRANCH  25  26
ENDBRANCH  15  25
TORSDOF 6
ENDMDL
MODEL 4
REMARK VINA RESULT:      -9.1      1.883      2.261
REMARK  6 active torsions:
REMARK  status: ('A' for Active; 'I' for Inactive)
REMARK    1  A    between atoms: C7_11  and  N3_12 
REMARK    2  A    between atoms: N3_12  and  C8_13 
REMARK    3  A    between atoms: N4_23  and  C18_24 
REMARK    4  A    between atoms: C18_24  and  C19_25 
REMARK    5  A    between atoms: C19_25  and  C20_26 
REMARK    6  A    between atoms: C20_26  and  N5_27 
ROOT
HETATM    1  O1  UNL     1      22.730  -1.269  55.348  1.00  0.00    -0.271 OA
HETATM    2  C1  UNL     1      21.973  -1.142  54.370  1.00  0.00     0.248 C 
HETATM    3  C2  UNL     1      20.555  -1.617  54.268  1.00  0.00     0.279 C 
HETATM    4  O2  UNL     1      19.733  -0.601  53.705  1.00  0.00    -0.340 OA
HETATM    5  C3  UNL     1      20.167   0.072  52.548  1.00  0.00     0.098 A 
HETATM    6  C4  UNL     1      19.247   0.636  51.708  1.00  0.00     0.071 A 
HETATM    7  C5  UNL     1      19.666   1.295  50.576  1.00  0.00     0.075 A 
HETATM    8  N1  UNL     1      18.795   1.871  49.717  1.00  0.00    -0.241 NA
HETATM    9  C6  UNL     1      19.164   2.524  48.602  1.00  0.00     0.236 A 
HETATM   10  N2  UNL     1      20.479   2.610  48.323  1.00  0.00    -0.224 NA
HETATM   11  C7  UNL     1      21.372   2.046  49.164  1.00  0.00     0.142 A 
HETATM   12  C15 UNL     1      21.034   1.378  50.299  1.00  0.00     0.041 A 
HETATM   13  C16 UNL     1      21.932   0.797  51.169  1.00  0.00     0.050 A 
HETATM   14  C17 UNL     1      21.541   0.127  52.315  1.00  0.00     0.071 A 
HETATM   15  N4  UNL     1      22.502  -0.473  53.207  1.00  0.00    -0.314 N 
ENDROOT
BRANCH  11  16
HETATM   16  N3  UNL     1      22.740   2.172  48.817  1.00  0.00    -0.340 N 
HETATM   17  H5  UNL     1      23.390   1.556  48.322  1.00  0.00     0.167 HD
BRANCH  16  18
HETATM   18  C8  UNL     1      23.570   3.289  49.112  1.00  0.00     0.030 C 
HETATM   19  C9  UNL     1      23.146   4.369  48.456  1.00  0.00     0.006 C 
HETATM   20  C10 UNL     1      23.695   5.735  48.461  1.00  0.00     0.056 C 
HETATM   21  C11 UNL     1      25.123   5.836  48.761  1.00  0.00    -0.023 C 
HETATM   22  C12 UNL     1      26.026   5.123  49.441  1.00  0.00    -0.004 C 
HETATM   23  C13 UNL     1      25.709   3.888  50.141  1.00  0.00     0.002 C 
HETATM   24  C14 UNL     1      24.679   3.094  50.022  1.00  0.00     0.029 C 
ENDBRANCH  16  18
ENDBRANCH  11  16
BRANCH  15  25
HETATM   25  C18 UNL     1      23.898  -0.382  52.908  1.00  0.00     0.134 C 
BRANCH  25  26
HETATM   26  C19 UNL     1      24.556   0.894  53.380  1.00  0.00     0.040 C 
BRANCH  26  27
HETATM   27  C20 UNL     1      25.905   0.678  53.999  1.00  0.00     0.118 C 
BRANCH  27  28
HETATM   28  N5  UNL     1      26.989   0.689  53.096  1.00  0.00    -0.408 N 
HETATM   29  C21 UNL     1      28.004  -0.281  53.320  1.00  0.00     0.143 C 
HETATM   30  C22 UNL     1      28.861   0.173  54.489  1.00  0.00     0.187 C 
HETATM   31  O3  UNL     1      28.607   1.516  54.833  1.00  0.00    -0.388 OA
HETATM   32  C23 UNL     1      28.659   2.298  53.669  1.00  0.00     0.187 C 
HETATM   33  C24 UNL     1      27.526   1.956  52.728  1.00  0.00     0.143 C 
ENDBRANCH  27  28
ENDBRANCH  26  27
ENDBRANCH  25  26
ENDBRANCH  15  25
TORSDOF 6
ENDMDL
MODEL 5
REMARK VINA RESULT:      -9.0      1.465      2.038
REMARK  6 active torsions:
REMARK  status: ('A' for Active; 'I' for Inactive)
REMARK    1  A    between atoms: C7_11  and  N3_12 
REMARK    2  A    between atoms: N3_12  and  C8_13 
REMARK    3  A    between atoms: N4_23  and  C18_24 
REMARK    4  A    between atoms: C18_24  and  C19_25 
REMARK    5  A    between atoms: C19_25  and  C20_26 
REMARK    6  A    between atoms: C20_26  and  N5_27 
ROOT
HETATM    1  O1  UNL     1      22.347  -0.173  54.115  1.00  0.00    -0.271 OA
HETATM    2  C1  UNL     1      21.969   0.592  53.211  1.00  0.00     0.248 C 
HETATM    3  C2  UNL     1      20.682   0.507  52.447  1.00  0.00     0.279 C 
HETATM    4  O2  UNL     1      20.081   1.792  52.345  1.00  0.00    -0.340 OA
HETATM    5  C3  UNL     1      20.871   2.893  51.963  1.00  0.00     0.098 A 
HETATM    6  C4  UNL     1      20.283   3.973  51.365  1.00  0.00     0.071 A 
HETATM    7  C5  UNL     1      21.051   5.050  50.990  1.00  0.00     0.075 A 
HETATM    8  N1  UNL     1      20.515   6.141  50.397  1.00  0.00    -0.241 NA
HETATM    9  C6  UNL     1      21.230   7.214  50.017  1.00  0.00     0.236 A 
HETATM   10  N2  UNL     1      22.558   7.202  50.238  1.00  0.00    -0.224 NA
HETATM   11  C7  UNL     1      23.121   6.126  50.829  1.00  0.00     0.142 A 
HETATM   12  C15 UNL     1      22.428   5.025  51.226  1.00  0.00     0.041 A 
HETATM   13  C16 UNL     1      22.986   3.919  51.831  1.00  0.00     0.050 A 
HETATM   14  C17 UNL     1      22.241   2.819  52.220  1.00  0.00     0.071 A 
HETATM   15  N4  UNL     1      22.850   1.675  52.850  1.00  0.00    -0.314 N 
ENDROOT
BRANCH  11  16
HETATM   16  N3  UNL     1      24.522   6.175  51.036  1.00  0.00    -0.340 N 
HETATM   17  H5  UNL     1      25.094   6.327  51.871  1.00  0.00     0.167 HD
BRANCH  16  18
HETATM   18  C8  UNL     1      25.514   6.005  50.032  1.00  0.00     0.030 C 
HETATM   19  C9  UNL     1      25.872   4.724  49.944  1.00  0.00     0.006 C 
HETATM   20  C10 UNL     1      26.857   4.093  49.050  1.00  0.00     0.056 C 
HETATM   21  C11 UNL     1      27.935   4.967  48.588  1.00  0.00    -0.023 C 
HETATM   22  C12 UNL     1      28.102   6.277  48.378  1.00  0.00    -0.004 C 
HETATM   23  C13 UNL     1      27.060   7.264  48.611  1.00  0.00     0.002 C 
HETATM   24  C14 UNL     1      25.957   7.176  49.305  1.00  0.00     0.029 C 
ENDBRANCH  16  18
ENDBRANCH  11  16
BRANCH  15  25
HETATM   25  C18 UNL     1      24.261   1.663  53.082  1.00  0.00     0.134 C 
BRANCH  25  26
HETATM   26  C19 UNL     1      25.048   0.819  52.105  1.00  0.00     0.040 C 
BRANCH  26  27
HETATM   27  C20 UNL     1      26.471   0.591  52.520  1.00  0.00     0.118 C 
BRANCH  27  28
HETATM   28  N5  UNL     1      26.814   1.098  53.792  1.00  0.00    -0.408 N 
HETATM   29  C21 UNL     1      27.635   2.259  53.806  1.00  0.00     0.143 C 
HETATM   30  C22 UNL     1      29.062   1.848  53.488  1.00  0.00     0.187 C 
HETATM   31  O3  UNL     1      29.231   0.450  53.549  1.00  0.00    -0.388 OA
HETATM   32  C23 UNL     1      28.693  -0.017  54.759  1.00  0.00     0.187 C 
HETATM   33  C24 UNL     1      27.192   0.158  54.793  1.00  0.00     0.143 C 
ENDBRANCH  27  28
ENDBRANCH  26  27
ENDBRANCH  25  26
ENDBRANCH  15  25
TORSDOF 6
ENDMDL
MODEL 6
REMARK VINA RESULT:      -8.8      1.827      5.714
REMARK  6 active torsions:
REMARK  status: ('A' for Active; 'I' for Inactive)
REMARK    1  A    between atoms: C7_11  and  N3_12 
REMARK    2  A    between atoms: N3_12  and  C8_13 
REMARK    3  A    between atoms: N4_23  and  C18_24 
REMARK    4  A    between atoms: C18_24  and  C19_25 
REMARK    5  A    between atoms: C19_25  and  C20_26 
REMARK    6  A    between atoms: C20_26  and  N5_27 
ROOT
HETATM    1  O1  UNL     1      21.404  -2.344  53.941  1.00  0.00    -0.271 OA
HETATM    2  C1  UNL     1      22.293  -1.556  54.304  1.00  0.00     0.248 C 
HETATM    3  C2  UNL     1      22.834  -1.395  55.693  1.00  0.00     0.279 C 
HETATM    4  O2  UNL     1      24.255  -1.335  55.667  1.00  0.00    -0.340 OA
HETATM    5  C3  UNL     1      24.891  -0.496  54.734  1.00  0.00     0.098 A 
HETATM    6  C4  UNL     1      26.144  -0.017  54.999  1.00  0.00     0.071 A 
HETATM    7  C5  UNL     1      26.770   0.803  54.089  1.00  0.00     0.075 A 
HETATM    8  N1  UNL     1      28.009   1.300  54.306  1.00  0.00    -0.241 NA
HETATM    9  C6  UNL     1      28.655   2.103  53.442  1.00  0.00     0.236 A 
HETATM   10  N2  UNL     1      28.032   2.432  52.295  1.00  0.00    -0.224 NA
HETATM   11  C7  UNL     1      26.795   1.950  52.052  1.00  0.00     0.142 A 
HETATM   12  C15 UNL     1      26.113   1.137  52.902  1.00  0.00     0.041 A 
HETATM   13  C16 UNL     1      24.850   0.635  52.669  1.00  0.00     0.050 A 
HETATM   14  C17 UNL     1      24.194  -0.192  53.564  1.00  0.00     0.071 A 
HETATM   15  N4  UNL     1      22.872  -0.703  53.296  1.00  0.00    -0.314 N 
ENDROOT
BRANCH  11  16
HETATM   16  N3  UNL     1      26.193   2.331  50.826  1.00  0.00    -0.340 N 
HETATM   17  H5  UNL     1      25.869   1.795  50.017  1.00  0.00     0.167 HD
BRANCH  16  18
HETATM   18  C8  UNL     1      25.886   3.663  50.433  1.00  0.00     0.030 C 
HETATM   19  C9  UNL     1      24.762   4.072  51.019  1.00  0.00     0.006 C 
HETATM   20  C10 UNL     1      24.072   5.369  50.905  1.00  0.00     0.056 C 
HETATM   21  C11 UNL     1      24.302   6.093  49.655  1.00  0.00    -0.023 C 
HETATM   22  C12 UNL     1      25.267   6.159  48.733  1.00  0.00    -0.004 C 
HETATM   23  C13 UNL     1      26.496   5.385  48.804  1.00  0.00     0.002 C 
HETATM   24  C14 UNL     1      26.785   4.327  49.513  1.00  0.00     0.029 C 
ENDBRANCH  16  18
ENDBRANCH  11  16
BRANCH  15  25
HETATM   25  C18 UNL     1      22.212  -0.349  52.078  1.00  0.00     0.134 C 
BRANCH  25  26
HETATM   26  C19 UNL     1      21.257   0.817  52.200  1.00  0.00     0.040 C 
BRANCH  26  27
HETATM   27  C20 UNL     1      21.528   1.918  51.218  1.00  0.00     0.118 C 
BRANCH  27  28
HETATM   28  N5  UNL     1      20.455   2.232  50.358  1.00  0.00    -0.408 N 
HETATM   29  C21 UNL     1      20.415   3.565  49.863  1.00  0.00     0.143 C 
HETATM   30  C22 UNL     1      19.911   4.477  50.968  1.00  0.00     0.187 C 
HETATM   31  O3  UNL     1      19.367   3.747  52.044  1.00  0.00    -0.388 OA
HETATM   32  C23 UNL     1      18.457   2.806  51.536  1.00  0.00     0.187 C 
HETATM   33  C24 UNL     1      19.163   1.750  50.715  1.00  0.00     0.143 C 
ENDBRANCH  27  28
ENDBRANCH  26  27
ENDBRANCH  25  26
ENDBRANCH  15  25
TORSDOF 6
ENDMDL
MODEL 7
REMARK VINA RESULT:      -8.7      2.699      6.786
REMARK  6 active torsions:
REMARK  status: ('A' for Active; 'I' for Inactive)
REMARK    1  A    between atoms: C7_11  and  N3_12 
REMARK    2  A    between atoms: N3_12  and  C8_13 
REMARK    3  A    between atoms: N4_23  and  C18_24 
REMARK    4  A    between atoms: C18_24  and  C19_25 
REMARK    5  A    between atoms: C19_25  and  C20_26 
REMARK    6  A    between atoms: C20_26  and  N5_27 
ROOT
HETATM    1  O1  UNL     1      19.398   1.035  49.552  1.00  0.00    -0.271 OA
HETATM    2  C1  UNL     1      19.765   0.921  50.734  1.00  0.00     0.248 C 
HETATM    3  C2  UNL     1      18.880   0.782  51.936  1.00  0.00     0.279 C 
HETATM    4  O2  UNL     1      19.363  -0.250  52.788  1.00  0.00    -0.340 OA
HETATM    5  C3  UNL     1      20.732  -0.291  53.111  1.00  0.00     0.098 A 
HETATM    6  C4  UNL     1      21.135  -0.890  54.272  1.00  0.00     0.071 A 
HETATM    7  C5  UNL     1      22.473  -0.933  54.592  1.00  0.00     0.075 A 
HETATM    8  N1  UNL     1      22.920  -1.516  55.727  1.00  0.00    -0.241 NA
HETATM    9  C6  UNL     1      24.217  -1.579  56.075  1.00  0.00     0.236 A 
HETATM   10  N2  UNL     1      25.124  -1.030  55.244  1.00  0.00    -0.224 NA
HETATM   11  C7  UNL     1      24.706  -0.443  54.103  1.00  0.00     0.142 A 
HETATM   12  C15 UNL     1      23.404  -0.360  53.721  1.00  0.00     0.041 A 
HETATM   13  C16 UNL     1      22.959   0.235  52.559  1.00  0.00     0.050 A 
HETATM   14  C17 UNL     1      21.621   0.294  52.210  1.00  0.00     0.071 A 
HETATM   15  N4  UNL     1      21.184   0.924  50.989  1.00  0.00    -0.314 N 
ENDROOT
BRANCH  11  16
HETATM   16  N3  UNL     1      25.709   0.114  53.270  1.00  0.00    -0.340 N 
HETATM   17  H5  UNL     1      25.711   0.909  52.626  1.00  0.00     0.167 HD
BRANCH  16  18
HETATM   18  C8  UNL     1      27.043  -0.361  53.149  1.00  0.00     0.030 C 
HETATM   19  C9  UNL     1      27.048  -1.663  52.865  1.00  0.00     0.006 C 
HETATM   20  C10 UNL     1      28.193  -2.565  52.651  1.00  0.00     0.056 C 
HETATM   21  C11 UNL     1      29.432  -2.174  53.324  1.00  0.00    -0.023 C 
HETATM   22  C12 UNL     1      29.991  -1.036  53.746  1.00  0.00    -0.004 C 
HETATM   23  C13 UNL     1      29.367   0.268  53.593  1.00  0.00     0.002 C 
HETATM   24  C14 UNL     1      28.124   0.582  53.340  1.00  0.00     0.029 C 
ENDBRANCH  16  18
ENDBRANCH  11  16
BRANCH  15  25
HETATM   25  C18 UNL     1      22.149   1.508  50.110  1.00  0.00     0.134 C 
BRANCH  25  26
HETATM   26  C19 UNL     1      22.701   2.835  50.581  1.00  0.00     0.040 C 
BRANCH  26  27
HETATM   27  C20 UNL     1      21.696   3.948  50.544  1.00  0.00     0.118 C 
BRANCH  27  28
HETATM   28  N5  UNL     1      22.120   5.118  49.879  1.00  0.00    -0.408 N 
HETATM   29  C21 UNL     1      21.099   6.035  49.508  1.00  0.00     0.143 C 
HETATM   30  C22 UNL     1      20.381   5.494  48.283  1.00  0.00     0.187 C 
HETATM   31  O3  UNL     1      21.081   4.419  47.698  1.00  0.00    -0.388 OA
HETATM   32  C23 UNL     1      22.424   4.793  47.531  1.00  0.00     0.187 C 
HETATM   33  C24 UNL     1      23.111   4.976  48.866  1.00  0.00     0.143 C 
ENDBRANCH  27  28
ENDBRANCH  26  27
ENDBRANCH  25  26
ENDBRANCH  15  25
TORSDOF 6
ENDMDL
MODEL 8
REMARK VINA RESULT:      -8.5      3.824      7.380
REMARK  6 active torsions:
REMARK  status: ('A' for Active; 'I' for Inactive)
REMARK    1  A    between atoms: C7_11  and  N3_12 
REMARK    2  A    between atoms: N3_12  and  C8_13 
REMARK    3  A    between atoms: N4_23  and  C18_24 
REMARK    4  A    between atoms: C18_24  and  C19_25 
REMARK    5  A    between atoms: C19_25  and  C20_26 
REMARK    6  A    between atoms: C20_26  and  N5_27 
ROOT
HETATM    1  O1  UNL     1      26.058   7.457  47.349  1.00  0.00    -0.271 OA
HETATM    2  C1  UNL     1      25.537   7.038  48.397  1.00  0.00     0.248 C 
HETATM    3  C2  UNL     1      24.486   7.729  49.213  1.00  0.00     0.279 C 
HETATM    4  O2  UNL     1      23.463   6.811  49.580  1.00  0.00    -0.340 OA
HETATM    5  C3  UNL     1      23.821   5.555  50.104  1.00  0.00     0.098 A 
HETATM    6  C4  UNL     1      22.950   4.889  50.921  1.00  0.00     0.071 A 
HETATM    7  C5  UNL     1      23.296   3.661  51.435  1.00  0.00     0.075 A 
HETATM    8  N1  UNL     1      22.468   2.964  52.246  1.00  0.00    -0.241 NA
HETATM    9  C6  UNL     1      22.768   1.762  52.768  1.00  0.00     0.236 A 
HETATM   10  N2  UNL     1      23.963   1.220  52.465  1.00  0.00    -0.224 NA
HETATM   11  C7  UNL     1      24.810   1.893  51.657  1.00  0.00     0.142 A 
HETATM   12  C15 UNL     1      24.539   3.110  51.113  1.00  0.00     0.041 A 
HETATM   13  C16 UNL     1      25.391   3.810  50.286  1.00  0.00     0.050 A 
HETATM   14  C17 UNL     1      25.072   5.047  49.753  1.00  0.00     0.071 A 
HETATM   15  N4  UNL     1      25.983   5.758  48.891  1.00  0.00    -0.314 N 
ENDROOT
BRANCH  11  16
HETATM   16  N3  UNL     1      26.051   1.269  51.375  1.00  0.00    -0.340 N 
HETATM   17  H5  UNL     1      26.493   0.969  50.503  1.00  0.00     0.167 HD
BRANCH  16  18
HETATM   18  C8  UNL     1      27.028   0.897  52.338  1.00  0.00     0.030 C 
HETATM   19  C9  UNL     1      27.654   1.977  52.807  1.00  0.00     0.006 C 
HETATM   20  C10 UNL     1      28.728   2.067  53.810  1.00  0.00     0.056 C 
HETATM   21  C11 UNL     1      29.577   0.882  53.929  1.00  0.00    -0.023 C 
HETATM   22  C12 UNL     1      29.449  -0.430  53.711  1.00  0.00    -0.004 C 
HETATM   23  C13 UNL     1      28.224  -1.046  53.226  1.00  0.00     0.002 C 
HETATM   24  C14 UNL     1      27.186  -0.510  52.643  1.00  0.00     0.029 C 
ENDBRANCH  16  18
ENDBRANCH  11  16
BRANCH  15  25
HETATM   25  C18 UNL     1      27.253   5.182  48.574  1.00  0.00     0.134 C 
BRANCH  25  26
HETATM   26  C19 UNL     1      28.382   6.181  48.462  1.00  0.00     0.040 C 
BRANCH  26  27
HETATM   27  C20 UNL     1      29.683   5.568  48.034  1.00  0.00     0.118 C 
BRANCH  27  28
HETATM   28  N5  UNL     1      30.685   6.488  47.660  1.00  0.00    -0.408 N 
HETATM   29  C21 UNL     1      31.989   5.954  47.471  1.00  0.00     0.143 C 
HETATM   30  C22 UNL     1      32.611   5.697  48.832  1.00  0.00     0.187 C 
HETATM   31  O3  UNL     1      31.872   6.303  49.869  1.00  0.00    -0.388 OA
HETATM   32  C23 UNL     1      31.630   7.642  49.526  1.00  0.00     0.187 C 
HETATM   33  C24 UNL     1      30.709   7.744  48.331  1.00  0.00     0.143 C 
ENDBRANCH  27  28
ENDBRANCH  26  27
ENDBRANCH  25  26
ENDBRANCH  15  25
TORSDOF 6
ENDMDL
MODEL 9
REMARK VINA RESULT:      -8.5      2.740      6.742
REMARK  6 active torsions:
REMARK  status: ('A' for Active; 'I' for Inactive)
REMARK    1  A    between atoms: C7_11  and  N3_12 
REMARK    2  A    between atoms: N3_12  and  C8_13 
REMARK    3  A    between atoms: N4_23  and  C18_24 
REMARK    4  A    between atoms: C18_24  and  C19_25 
REMARK    5  A    between atoms: C19_25  and  C20_26 
REMARK    6  A    between atoms: C20_26  and  N5_27 
ROOT
HETATM    1  O1  UNL     1      20.264   2.758  48.357  1.00  0.00    -0.271 OA
HETATM    2  C1  UNL     1      20.352   2.495  49.568  1.00  0.00     0.248 C 
HETATM    3  C2  UNL     1      19.239   2.518  50.572  1.00  0.00     0.279 C 
HETATM    4  O2  UNL     1      19.287   1.356  51.391  1.00  0.00    -0.340 OA
HETATM    5  C3  UNL     1      20.517   0.958  51.949  1.00  0.00     0.098 A 
HETATM    6  C4  UNL     1      20.531   0.218  53.098  1.00  0.00     0.071 A 
HETATM    7  C5  UNL     1      21.730  -0.173  53.647  1.00  0.00     0.075 A 
HETATM    8  N1  UNL     1      21.794  -0.907  54.781  1.00  0.00    -0.241 NA
HETATM    9  C6  UNL     1      22.945  -1.309  55.348  1.00  0.00     0.236 A 
HETATM   10  N2  UNL     1      24.101  -0.961  54.752  1.00  0.00    -0.224 NA
HETATM   11  C7  UNL     1      24.067  -0.229  53.618  1.00  0.00     0.142 A 
HETATM   12  C15 UNL     1      22.923   0.195  53.018  1.00  0.00     0.041 A 
HETATM   13  C16 UNL     1      22.869   0.941  51.861  1.00  0.00     0.050 A 
HETATM   14  C17 UNL     1      21.679   1.350  51.284  1.00  0.00     0.071 A 
HETATM   15  N4  UNL     1      21.653   2.131  50.073  1.00  0.00    -0.314 N 
ENDROOT
BRANCH  11  16
HETATM   16  N3  UNL     1      25.317   0.103  53.038  1.00  0.00    -0.340 N 
HETATM   17  H5  UNL     1      25.589   0.777  52.318  1.00  0.00     0.167 HD
BRANCH  16  18
HETATM   18  C8  UNL     1      26.567  -0.486  53.370  1.00  0.00     0.030 C 
HETATM   19  C9  UNL     1      27.255   0.312  54.187  1.00  0.00     0.006 C 
HETATM   20  C10 UNL     1      28.587   0.109  54.782  1.00  0.00     0.056 C 
HETATM   21  C11 UNL     1      29.487  -0.759  54.023  1.00  0.00    -0.023 C 
HETATM   22  C12 UNL     1      29.362  -1.772  53.160  1.00  0.00    -0.004 C 
HETATM   23  C13 UNL     1      28.079  -2.302  52.729  1.00  0.00     0.002 C 
HETATM   24  C14 UNL     1      26.883  -1.781  52.806  1.00  0.00     0.029 C 
ENDBRANCH  16  18
ENDBRANCH  11  16
BRANCH  15  25
HETATM   25  C18 UNL     1      22.882   2.502  49.443  1.00  0.00     0.134 C 
BRANCH  25  26
HETATM   26  C19 UNL     1      23.694   3.522  50.209  1.00  0.00     0.040 C 
BRANCH  26  27
HETATM   27  C20 UNL     1      23.408   4.938  49.807  1.00  0.00     0.118 C 
BRANCH  27  28
HETATM   28  N5  UNL     1      23.130   5.821  50.871  1.00  0.00    -0.408 N 
HETATM   29  C21 UNL     1      21.772   6.211  51.027  1.00  0.00     0.143 C 
HETATM   30  C22 UNL     1      21.440   7.247  49.966  1.00  0.00     0.187 C 
HETATM   31  O3  UNL     1      22.598   7.733  49.328  1.00  0.00    -0.388 OA
HETATM   32  C23 UNL     1      23.530   8.109  50.309  1.00  0.00     0.187 C 
HETATM   33  C24 UNL     1      24.030   6.906  51.077  1.00  0.00     0.143 C 
ENDBRANCH  27  28
ENDBRANCH  26  27
ENDBRANCH  25  26
ENDBRANCH  15  25
TORSDOF 6
ENDMDL
