MODEL 1
REMARK VINA RESULT:      -9.4      0.000      0.000
REMARK  0 active torsions:
REMARK  status: ('A' for Active; 'I' for Inactive)
ROOT
HETATM    1  O1  UNL     1      19.635   3.323  52.566  1.00  0.00    -0.289 OA
HETATM    2  C1  UNL     1      20.612   2.559  52.273  1.00  0.00     0.193 C 
HETATM    3  C2  UNL     1      20.021   1.389  51.613  1.00  0.00     0.055 C 
HETATM    4  C3  UNL     1      20.805   0.269  51.964  1.00  0.00     0.036 C 
HETATM    5  C4  UNL     1      21.804   0.796  52.862  1.00  0.00     0.019 C 
HETATM    6  C5  UNL     1      21.672  -0.340  53.623  1.00  0.00     0.137 C 
HETATM    7  N1  UNL     1      20.516  -1.067  53.888  1.00  0.00    -0.224 NA
HETATM    8  C6  UNL     1      19.360  -0.482  53.467  1.00  0.00     0.235 C 
HETATM    9  N2  UNL     1      18.528  -1.162  52.614  1.00  0.00    -0.247 NA
HETATM   10  C7  UNL     1      17.772  -0.477  51.674  1.00  0.00     0.168 C 
HETATM   11  S1  UNL     1      18.614   0.756  50.703  1.00  0.00    -0.079 SA
HETATM   12  N3  UNL     1      22.604  -1.051  54.371  1.00  0.00    -0.350 N 
HETATM   13  C8  UNL     1      23.908  -0.972  54.865  1.00  0.00     0.090 C 
HETATM   14  C9  UNL     1      25.159  -0.790  55.211  1.00  0.00     0.020 C 
HETATM   15  C10 UNL     1      26.410  -0.048  54.893  1.00  0.00     0.044 C 
HETATM   16  C11 UNL     1      26.946   0.831  54.108  1.00  0.00     0.126 C 
HETATM   17  F1  UNL     1      28.245   1.212  54.237  1.00  0.00    -0.205 F 
HETATM   18  C12 UNL     1      26.488   1.645  52.971  1.00  0.00     0.005 A 
HETATM   19  C13 UNL     1      27.116   2.022  51.824  1.00  0.00     0.014 A 
HETATM   20  C14 UNL     1      26.375   2.747  50.898  1.00  0.00     0.003 A 
HETATM   21  C15 UNL     1      25.047   3.034  51.206  1.00  0.00     0.029 A 
HETATM   22  C16 UNL     1      24.405   2.661  52.354  1.00  0.00     0.029 A 
HETATM   23  C17 UNL     1      25.138   1.950  53.267  1.00  0.00     0.043 A 
HETATM   24  N4  UNL     1      23.005   2.955  52.502  1.00  0.00    -0.374 N 
HETATM   25  C18 UNL     1      22.009   2.010  52.141  1.00  0.00     0.194 C 
HETATM   26  H4  UNL     1      22.566  -1.982  54.837  1.00  0.00     0.166 HD
HETATM   27  H12 UNL     1      23.225   3.912  52.868  1.00  0.00     0.160 HD
ENDROOT
TORSDOF 0
ENDMDL
MODEL 2
REMARK VINA RESULT:      -9.4      3.722      6.395
REMARK  0 active torsions:
REMARK  status: ('A' for Active; 'I' for Inactive)
ROOT
HETATM    1  O1  UNL     1      27.168   1.569  50.719  1.00  0.00    -0.289 OA
HETATM    2  C1  UNL     1      26.225   1.761  51.555  1.00  0.00     0.193 C 
HETATM    3  C2  UNL     1      26.878   1.942  52.857  1.00  0.00     0.055 C 
HETATM    4  C3  UNL     1      26.020   1.392  53.835  1.00  0.00     0.036 C 
HETATM    5  C4  UNL     1      24.912   0.856  53.081  1.00  0.00     0.019 C 
HETATM    6  C5  UNL     1      24.898  -0.223  53.933  1.00  0.00     0.137 C 
HETATM    7  N1  UNL     1      25.982  -0.866  54.522  1.00  0.00    -0.224 NA
HETATM    8  C6  UNL     1      27.203  -0.467  54.068  1.00  0.00     0.235 C 
HETATM    9  N2  UNL     1      28.136   0.005  54.958  1.00  0.00    -0.247 NA
HETATM   10  C7  UNL     1      29.042   0.982  54.573  1.00  0.00     0.168 C 
HETATM   11  S1  UNL     1      28.388   2.395  53.707  1.00  0.00    -0.079 SA
HETATM   12  N3  UNL     1      23.846  -1.000  54.403  1.00  0.00    -0.350 N 
HETATM   13  C8  UNL     1      22.486  -1.245  54.205  1.00  0.00     0.090 C 
HETATM   14  C9  UNL     1      21.202  -1.327  53.952  1.00  0.00     0.020 C 
HETATM   15  C10 UNL     1      20.034  -0.616  53.366  1.00  0.00     0.044 C 
HETATM   16  C11 UNL     1      19.645   0.469  52.775  1.00  0.00     0.126 C 
HETATM   17  F1  UNL     1      18.352   0.658  52.400  1.00  0.00    -0.205 F 
HETATM   18  C12 UNL     1      20.290   1.715  52.333  1.00  0.00     0.005 A 
HETATM   19  C13 UNL     1      19.850   3.004  52.333  1.00  0.00     0.014 A 
HETATM   20  C14 UNL     1      20.741   3.983  51.906  1.00  0.00     0.003 A 
HETATM   21  C15 UNL     1      22.015   3.578  51.513  1.00  0.00     0.029 A 
HETATM   22  C16 UNL     1      22.467   2.288  51.509  1.00  0.00     0.029 A 
HETATM   23  C17 UNL     1      21.587   1.325  51.926  1.00  0.00     0.043 A 
HETATM   24  N4  UNL     1      23.837   2.026  51.156  1.00  0.00    -0.374 N 
HETATM   25  C18 UNL     1      24.850   1.931  52.146  1.00  0.00     0.194 C 
HETATM   26  H4  UNL     1      23.790  -1.726  55.149  1.00  0.00     0.166 HD
HETATM   27  H12 UNL     1      23.590   2.003  50.138  1.00  0.00     0.160 HD
ENDROOT
TORSDOF 0
ENDMDL
MODEL 3
REMARK VINA RESULT:      -9.3      3.093      5.802
REMARK  0 active torsions:
REMARK  status: ('A' for Active; 'I' for Inactive)
ROOT
HETATM    1  O1  UNL     1      22.994   2.475  47.888  1.00  0.00    -0.289 OA
HETATM    2  C1  UNL     1      23.052   2.562  49.158  1.00  0.00     0.193 C 
HETATM    3  C2  UNL     1      23.586   3.899  49.443  1.00  0.00     0.055 C 
HETATM    4  C3  UNL     1      24.373   3.795  50.611  1.00  0.00     0.036 C 
HETATM    5  C4  UNL     1      24.326   2.394  50.953  1.00  0.00     0.019 C 
HETATM    6  C5  UNL     1      25.655   2.467  51.295  1.00  0.00     0.137 C 
HETATM    7  N1  UNL     1      26.659   3.213  50.685  1.00  0.00    -0.224 NA
HETATM    8  C6  UNL     1      26.299   3.813  49.516  1.00  0.00     0.235 C 
HETATM    9  N2  UNL     1      26.435   5.172  49.382  1.00  0.00    -0.247 NA
HETATM   10  C7  UNL     1      25.549   5.893  48.596  1.00  0.00     0.168 C 
HETATM   11  S1  UNL     1      23.813   5.566  48.827  1.00  0.00    -0.079 SA
HETATM   12  N3  UNL     1      26.381   1.807  52.279  1.00  0.00    -0.350 N 
HETATM   13  C8  UNL     1      26.289   0.759  53.197  1.00  0.00     0.090 C 
HETATM   14  C9  UNL     1      26.041  -0.208  54.047  1.00  0.00     0.020 C 
HETATM   15  C10 UNL     1      24.966  -0.971  54.737  1.00  0.00     0.044 C 
HETATM   16  C11 UNL     1      23.684  -1.106  54.868  1.00  0.00     0.126 C 
HETATM   17  F1  UNL     1      23.142  -2.037  55.697  1.00  0.00    -0.205 F 
HETATM   18  C12 UNL     1      22.494  -0.456  54.298  1.00  0.00     0.005 A 
HETATM   19  C13 UNL     1      21.292  -0.135  54.852  1.00  0.00     0.014 A 
HETATM   20  C14 UNL     1      20.383   0.549  54.053  1.00  0.00     0.003 A 
HETATM   21  C15 UNL     1      20.765   0.860  52.750  1.00  0.00     0.029 A 
HETATM   22  C16 UNL     1      21.967   0.542  52.182  1.00  0.00     0.029 A 
HETATM   23  C17 UNL     1      22.860  -0.135  52.970  1.00  0.00     0.043 A 
HETATM   24  N4  UNL     1      22.257   1.000  50.850  1.00  0.00    -0.374 N 
HETATM   25  C18 UNL     1      22.950   2.218  50.621  1.00  0.00     0.194 C 
HETATM   26  H4  UNL     1      27.346   1.944  52.649  1.00  0.00     0.166 HD
HETATM   27  H12 UNL     1      21.778   0.164  50.438  1.00  0.00     0.160 HD
ENDROOT
TORSDOF 0
ENDMDL
MODEL 4
REMARK VINA RESULT:      -9.1      2.992      3.961
REMARK  0 active torsions:
REMARK  status: ('A' for Active; 'I' for Inactive)
ROOT
HETATM    1  O1  UNL     1      23.109   5.043  49.632  1.00  0.00    -0.289 OA
HETATM    2  C1  UNL     1      23.199   3.786  49.822  1.00  0.00     0.193 C 
HETATM    3  C2  UNL     1      22.497   3.160  48.695  1.00  0.00     0.055 C 
HETATM    4  C3  UNL     1      21.892   1.981  49.182  1.00  0.00     0.036 C 
HETATM    5  C4  UNL     1      22.208   1.969  50.590  1.00  0.00     0.019 C 
HETATM    6  C5  UNL     1      20.939   1.503  50.837  1.00  0.00     0.137 C 
HETATM    7  N1  UNL     1      19.758   1.838  50.181  1.00  0.00    -0.224 NA
HETATM    8  C6  UNL     1      19.864   2.868  49.297  1.00  0.00     0.235 C 
HETATM    9  N2  UNL     1      19.495   2.679  47.989  1.00  0.00    -0.247 NA
HETATM   10  C7  UNL     1      20.145   3.358  46.969  1.00  0.00     0.168 C 
HETATM   11  S1  UNL     1      21.926   3.362  47.009  1.00  0.00    -0.079 SA
HETATM   12  N3  UNL     1      20.461   0.633  51.810  1.00  0.00    -0.350 N 
HETATM   13  C8  UNL     1      20.837  -0.013  52.989  1.00  0.00     0.090 C 
HETATM   14  C9  UNL     1      21.344  -0.597  54.047  1.00  0.00     0.020 C 
HETATM   15  C10 UNL     1      22.608  -0.999  54.723  1.00  0.00     0.044 C 
HETATM   16  C11 UNL     1      23.900  -0.983  54.641  1.00  0.00     0.126 C 
HETATM   17  F1  UNL     1      24.687  -1.529  55.606  1.00  0.00    -0.205 F 
HETATM   18  C12 UNL     1      24.888  -0.470  53.679  1.00  0.00     0.005 A 
HETATM   19  C13 UNL     1      26.082  -0.973  53.261  1.00  0.00     0.014 A 
HETATM   20  C14 UNL     1      26.759  -0.272  52.270  1.00  0.00     0.003 A 
HETATM   21  C15 UNL     1      26.170   0.888  51.774  1.00  0.00     0.029 A 
HETATM   22  C16 UNL     1      24.972   1.404  52.185  1.00  0.00     0.029 A 
HETATM   23  C17 UNL     1      24.309   0.713  53.164  1.00  0.00     0.043 A 
HETATM   24  N4  UNL     1      24.445   2.567  51.524  1.00  0.00    -0.374 N 
HETATM   25  C18 UNL     1      23.541   2.453  50.435  1.00  0.00     0.194 C 
HETATM   26  H4  UNL     1      19.542   0.157  51.933  1.00  0.00     0.166 HD
HETATM   27  H12 UNL     1      24.997   3.198  52.153  1.00  0.00     0.160 HD
ENDROOT
TORSDOF 0
ENDMDL
MODEL 5
REMARK VINA RESULT:      -8.9      1.555      2.209
REMARK  0 active torsions:
REMARK  status: ('A' for Active; 'I' for Inactive)
ROOT
HETATM    1  O1  UNL     1      18.127   3.435  51.955  1.00  0.00    -0.289 OA
HETATM    2  C1  UNL     1      19.000   2.528  51.751  1.00  0.00     0.193 C 
HETATM    3  C2  UNL     1      18.324   1.495  50.957  1.00  0.00     0.055 C 
HETATM    4  C3  UNL     1      18.863   0.249  51.347  1.00  0.00     0.036 C 
HETATM    5  C4  UNL     1      19.801   0.574  52.394  1.00  0.00     0.019 C 
HETATM    6  C5  UNL     1      19.385  -0.549  53.069  1.00  0.00     0.137 C 
HETATM    7  N1  UNL     1      18.102  -1.081  53.142  1.00  0.00    -0.224 NA
HETATM    8  C6  UNL     1      17.123  -0.299  52.607  1.00  0.00     0.235 C 
HETATM    9  N2  UNL     1      16.318  -0.803  51.617  1.00  0.00    -0.247 NA
HETATM   10  C7  UNL     1      15.817   0.027  50.626  1.00  0.00     0.168 C 
HETATM   11  S1  UNL     1      16.972   1.133  49.840  1.00  0.00    -0.079 SA
HETATM   12  N3  UNL     1      20.080  -1.428  53.892  1.00  0.00    -0.350 N 
HETATM   13  C8  UNL     1      21.299  -1.583  54.555  1.00  0.00     0.090 C 
HETATM   14  C9  UNL     1      22.504  -1.622  55.070  1.00  0.00     0.020 C 
HETATM   15  C10 UNL     1      23.889  -1.089  54.958  1.00  0.00     0.044 C 
HETATM   16  C11 UNL     1      24.662  -0.286  54.297  1.00  0.00     0.126 C 
HETATM   17  F1  UNL     1      25.975  -0.132  54.614  1.00  0.00    -0.205 F 
HETATM   18  C12 UNL     1      24.500   0.628  53.157  1.00  0.00     0.005 A 
HETATM   19  C13 UNL     1      25.333   0.931  52.122  1.00  0.00     0.014 A 
HETATM   20  C14 UNL     1      24.851   1.799  51.148  1.00  0.00     0.003 A 
HETATM   21  C15 UNL     1      23.557   2.292  51.296  1.00  0.00     0.029 A 
HETATM   22  C16 UNL     1      22.712   1.996  52.330  1.00  0.00     0.029 A 
HETATM   23  C17 UNL     1      23.190   1.144  53.290  1.00  0.00     0.043 A 
HETATM   24  N4  UNL     1      21.371   2.513  52.310  1.00  0.00    -0.374 N 
HETATM   25  C18 UNL     1      20.295   1.759  51.772  1.00  0.00     0.194 C 
HETATM   26  H4  UNL     1      19.829  -2.354  54.299  1.00  0.00     0.166 HD
HETATM   27  H12 UNL     1      21.689   3.408  52.752  1.00  0.00     0.160 HD
ENDROOT
TORSDOF 0
ENDMDL
MODEL 6
REMARK VINA RESULT:      -8.6      3.362      5.854
REMARK  0 active torsions:
REMARK  status: ('A' for Active; 'I' for Inactive)
ROOT
HETATM    1  O1  UNL     1      20.828   4.738  48.589  1.00  0.00    -0.289 OA
HETATM    2  C1  UNL     1      21.441   4.470  49.674  1.00  0.00     0.193 C 
HETATM    3  C2  UNL     1      21.766   5.766  50.280  1.00  0.00     0.055 C 
HETATM    4  C3  UNL     1      23.002   5.618  50.947  1.00  0.00     0.036 C 
HETATM    5  C4  UNL     1      23.398   4.257  50.673  1.00  0.00     0.019 C 
HETATM    6  C5  UNL     1      24.691   4.698  50.529  1.00  0.00     0.137 C 
HETATM    7  N1  UNL     1      25.135   5.894  49.974  1.00  0.00    -0.224 NA
HETATM    8  C6  UNL     1      24.170   6.637  49.362  1.00  0.00     0.235 C 
HETATM    9  N2  UNL     1      23.954   7.931  49.764  1.00  0.00    -0.247 NA
HETATM   10  C7  UNL     1      22.683   8.482  49.708  1.00  0.00     0.168 C 
HETATM   11  S1  UNL     1      21.349   7.505  50.371  1.00  0.00    -0.079 SA
HETATM   12  N3  UNL     1      25.902   4.086  50.833  1.00  0.00    -0.350 N 
HETATM   13  C8  UNL     1      26.451   2.857  51.204  1.00  0.00     0.090 C 
HETATM   14  C9  UNL     1      26.817   1.665  51.607  1.00  0.00     0.020 C 
HETATM   15  C10 UNL     1      26.352   0.405  52.247  1.00  0.00     0.044 C 
HETATM   16  C11 UNL     1      25.328  -0.210  52.748  1.00  0.00     0.126 C 
HETATM   17  F1  UNL     1      25.422  -1.470  53.250  1.00  0.00    -0.205 F 
HETATM   18  C12 UNL     1      23.906   0.107  52.950  1.00  0.00     0.005 A 
HETATM   19  C13 UNL     1      23.052  -0.196  53.966  1.00  0.00     0.014 A 
HETATM   20  C14 UNL     1      21.762   0.318  53.893  1.00  0.00     0.003 A 
HETATM   21  C15 UNL     1      21.437   1.105  52.791  1.00  0.00     0.029 A 
HETATM   22  C16 UNL     1      22.284   1.416  51.764  1.00  0.00     0.029 A 
HETATM   23  C17 UNL     1      23.553   0.905  51.837  1.00  0.00     0.043 A 
HETATM   24  N4  UNL     1      21.836   2.311  50.731  1.00  0.00    -0.374 N 
HETATM   25  C18 UNL     1      22.089   3.706  50.800  1.00  0.00     0.194 C 
HETATM   26  H4  UNL     1      26.880   4.446  50.865  1.00  0.00     0.166 HD
HETATM   27  H12 UNL     1      21.400   1.515  50.206  1.00  0.00     0.160 HD
ENDROOT
TORSDOF 0
ENDMDL
MODEL 7
REMARK VINA RESULT:      -8.3      4.127      6.541
REMARK  0 active torsions:
REMARK  status: ('A' for Active; 'I' for Inactive)
ROOT
HETATM    1  O1  UNL     1      23.917   7.659  51.227  1.00  0.00    -0.289 OA
HETATM    2  C1  UNL     1      24.121   6.435  50.934  1.00  0.00     0.193 C 
HETATM    3  C2  UNL     1      24.657   6.435  49.568  1.00  0.00     0.055 C 
HETATM    4  C3  UNL     1      24.184   5.266  48.932  1.00  0.00     0.036 C 
HETATM    5  C4  UNL     1      23.341   4.635  49.920  1.00  0.00     0.019 C 
HETATM    6  C5  UNL     1      22.466   4.307  48.913  1.00  0.00     0.137 C 
HETATM    7  N1  UNL     1      22.132   5.054  47.788  1.00  0.00    -0.224 NA
HETATM    8  C6  UNL     1      22.619   6.326  47.776  1.00  0.00     0.235 C 
HETATM    9  N2  UNL     1      23.400   6.743  46.727  1.00  0.00    -0.247 NA
HETATM   10  C7  UNL     1      24.411   7.670  46.929  1.00  0.00     0.168 C 
HETATM   11  S1  UNL     1      25.503   7.388  48.309  1.00  0.00    -0.079 SA
HETATM   12  N3  UNL     1      21.641   3.200  48.747  1.00  0.00    -0.350 N 
HETATM   13  C8  UNL     1      21.151   2.082  49.424  1.00  0.00     0.090 C 
HETATM   14  C9  UNL     1      20.819   1.049  50.159  1.00  0.00     0.020 C 
HETATM   15  C10 UNL     1      21.206   0.221  51.334  1.00  0.00     0.044 C 
HETATM   16  C11 UNL     1      22.077   0.074  52.281  1.00  0.00     0.126 C 
HETATM   17  F1  UNL     1      21.982  -0.929  53.194  1.00  0.00    -0.205 F 
HETATM   18  C12 UNL     1      23.296   0.777  52.709  1.00  0.00     0.005 A 
HETATM   19  C13 UNL     1      24.473   0.313  53.211  1.00  0.00     0.014 A 
HETATM   20  C14 UNL     1      25.475   1.245  53.456  1.00  0.00     0.003 A 
HETATM   21  C15 UNL     1      25.207   2.581  53.170  1.00  0.00     0.029 A 
HETATM   22  C16 UNL     1      24.029   3.060  52.667  1.00  0.00     0.029 A 
HETATM   23  C17 UNL     1      23.042   2.141  52.429  1.00  0.00     0.043 A 
HETATM   24  N4  UNL     1      23.921   4.456  52.341  1.00  0.00    -0.374 N 
HETATM   25  C18 UNL     1      24.186   4.933  51.030  1.00  0.00     0.194 C 
HETATM   26  H4  UNL     1      21.079   2.861  47.937  1.00  0.00     0.166 HD
HETATM   27  H12 UNL     1      23.658   4.686  53.330  1.00  0.00     0.160 HD
ENDROOT
TORSDOF 0
ENDMDL
MODEL 8
REMARK VINA RESULT:      -8.0      3.974      6.384
REMARK  0 active torsions:
REMARK  status: ('A' for Active; 'I' for Inactive)
ROOT
HETATM    1  O1  UNL     1      27.124   1.613  50.591  1.00  0.00    -0.289 OA
HETATM    2  C1  UNL     1      26.223   2.231  51.247  1.00  0.00     0.193 C 
HETATM    3  C2  UNL     1      26.572   2.061  52.663  1.00  0.00     0.055 C 
HETATM    4  C3  UNL     1      25.362   1.988  53.386  1.00  0.00     0.036 C 
HETATM    5  C4  UNL     1      24.333   2.063  52.377  1.00  0.00     0.019 C 
HETATM    6  C5  UNL     1      23.623   1.119  53.078  1.00  0.00     0.137 C 
HETATM    7  N1  UNL     1      24.112   0.026  53.786  1.00  0.00    -0.224 NA
HETATM    8  C6  UNL     1      25.444  -0.214  53.625  1.00  0.00     0.235 C 
HETATM    9  N2  UNL     1      26.262  -0.260  54.726  1.00  0.00    -0.247 NA
HETATM   10  C7  UNL     1      27.581   0.158  54.639  1.00  0.00     0.168 C 
HETATM   11  S1  UNL     1      27.883   1.718  53.834  1.00  0.00    -0.079 SA
HETATM   12  N3  UNL     1      22.253   0.946  53.243  1.00  0.00    -0.350 N 
HETATM   13  C8  UNL     1      21.022   1.393  52.761  1.00  0.00     0.090 C 
HETATM   14  C9  UNL     1      19.945   1.946  52.257  1.00  0.00     0.020 C 
HETATM   15  C10 UNL     1      19.414   3.139  51.544  1.00  0.00     0.044 C 
HETATM   16  C11 UNL     1      19.727   4.282  51.019  1.00  0.00     0.126 C 
HETATM   17  F1  UNL     1      18.797   5.078  50.427  1.00  0.00    -0.205 F 
HETATM   18  C12 UNL     1      20.963   5.062  50.858  1.00  0.00     0.005 A 
HETATM   19  C13 UNL     1      21.195   6.403  50.922  1.00  0.00     0.014 A 
HETATM   20  C14 UNL     1      22.512   6.830  50.792  1.00  0.00     0.003 A 
HETATM   21  C15 UNL     1      23.496   5.862  50.608  1.00  0.00     0.029 A 
HETATM   22  C16 UNL     1      23.276   4.515  50.540  1.00  0.00     0.029 A 
HETATM   23  C17 UNL     1      21.978   4.096  50.665  1.00  0.00     0.043 A 
HETATM   24  N4  UNL     1      24.400   3.624  50.430  1.00  0.00    -0.374 N 
HETATM   25  C18 UNL     1      24.997   3.041  51.578  1.00  0.00     0.194 C 
HETATM   26  H4  UNL     1      21.696   0.332  53.875  1.00  0.00     0.166 HD
HETATM   27  H12 UNL     1      24.407   3.733  49.387  1.00  0.00     0.160 HD
ENDROOT
TORSDOF 0
ENDMDL
MODEL 9
REMARK VINA RESULT:      -7.9      3.346      6.001
REMARK  0 active torsions:
REMARK  status: ('A' for Active; 'I' for Inactive)
ROOT
HETATM    1  O1  UNL     1      20.489   4.293  47.700  1.00  0.00    -0.289 OA
HETATM    2  C1  UNL     1      20.433   3.982  48.935  1.00  0.00     0.193 C 
HETATM    3  C2  UNL     1      20.382   5.254  49.665  1.00  0.00     0.055 C 
HETATM    4  C3  UNL     1      21.076   5.066  50.881  1.00  0.00     0.036 C 
HETATM    5  C4  UNL     1      21.561   3.709  50.813  1.00  0.00     0.019 C 
HETATM    6  C5  UNL     1      22.732   4.133  51.392  1.00  0.00     0.137 C 
HETATM    7  N1  UNL     1      23.399   5.339  51.199  1.00  0.00    -0.224 NA
HETATM    8  C6  UNL     1      22.904   6.115  50.194  1.00  0.00     0.235 C 
HETATM    9  N2  UNL     1      22.504   7.399  50.464  1.00  0.00    -0.247 NA
HETATM   10  C7  UNL     1      21.455   7.972  49.760  1.00  0.00     0.168 C 
HETATM   11  S1  UNL     1      19.975   6.996  49.579  1.00  0.00    -0.079 SA
HETATM   12  N3  UNL     1      23.599   3.494  52.272  1.00  0.00    -0.350 N 
HETATM   13  C8  UNL     1      23.870   2.246  52.836  1.00  0.00     0.090 C 
HETATM   14  C9  UNL     1      23.970   1.036  53.331  1.00  0.00     0.020 C 
HETATM   15  C10 UNL     1      23.240  -0.236  53.583  1.00  0.00     0.044 C 
HETATM   16  C11 UNL     1      22.108  -0.850  53.442  1.00  0.00     0.126 C 
HETATM   17  F1  UNL     1      21.925  -2.126  53.874  1.00  0.00    -0.205 F 
HETATM   18  C12 UNL     1      20.795  -0.517  52.868  1.00  0.00     0.005 A 
HETATM   19  C13 UNL     1      19.532  -0.838  53.265  1.00  0.00     0.014 A 
HETATM   20  C14 UNL     1      18.477  -0.301  52.536  1.00  0.00     0.003 A 
HETATM   21  C15 UNL     1      18.784   0.524  51.457  1.00  0.00     0.029 A 
HETATM   22  C16 UNL     1      20.047   0.853  51.048  1.00  0.00     0.029 A 
HETATM   23  C17 UNL     1      21.084   0.321  51.766  1.00  0.00     0.043 A 
HETATM   24  N4  UNL     1      20.213   1.785  49.966  1.00  0.00    -0.374 N 
HETATM   25  C18 UNL     1      20.386   3.174  50.206  1.00  0.00     0.194 C 
HETATM   26  H4  UNL     1      24.409   3.837  52.831  1.00  0.00     0.166 HD
HETATM   27  H12 UNL     1      20.125   1.014  49.262  1.00  0.00     0.160 HD
ENDROOT
TORSDOF 0
ENDMDL
