MODEL 1
REMARK VINA RESULT:      -9.3      0.000      0.000
REMARK  8 active torsions:
REMARK  status: ('A' for Active; 'I' for Inactive)
REMARK    1  A    between atoms: C6_6  and  O1_7 
REMARK    2  A    between atoms: C7_8  and  C8_9 
REMARK    3  A    between atoms: C8_9  and  N1_10 
REMARK    4  A    between atoms: N1_10  and  C9_11 
REMARK    5  A    between atoms: N1_10  and  C16_19 
REMARK    6  A    between atoms: C9_11  and  C10_12 
REMARK    7  A    between atoms: C13_15  and  O2_16 
REMARK    8  A    between atoms: N2_21  and  C17_22 
ROOT
HETATM    1  N1  UNL     1      25.802   2.282  51.522  1.00  0.00    -0.349 N 
ENDROOT
BRANCH   1   2
HETATM    2  C8  UNL     1      25.347   2.506  50.181  1.00  0.00     0.167 C 
BRANCH   2   3
HETATM    3  C7  UNL     1      25.690   3.861  49.621  1.00  0.00    -0.006 A 
HETATM    4  C6  UNL     1      24.755   4.871  49.448  1.00  0.00     0.079 A 
HETATM    5  C4  UNL     1      25.243   6.006  48.890  1.00  0.00    -0.028 A 
HETATM    6  C3  UNL     1      26.556   6.223  48.497  1.00  0.00     0.016 A 
HETATM    7  C5  UNL     1      24.216   7.094  48.685  1.00  0.00     0.051 C 
HETATM    8  C2  UNL     1      27.453   5.199  48.685  1.00  0.00    -0.061 A 
HETATM    9  C1  UNL     1      28.861   5.301  48.294  1.00  0.00     0.048 C 
HETATM   10  C23 UNL     1      27.016   4.021  49.248  1.00  0.00     0.018 A 
BRANCH   4  11
HETATM   11  O1  UNL     1      23.434   4.664  49.836  1.00  0.00    -0.360 OA
HETATM   12  H8  UNL     1      22.720   4.528  49.143  1.00  0.00     0.217 HD
ENDBRANCH   4  11
ENDBRANCH   2   3
ENDBRANCH   1   2
BRANCH   1  13
HETATM   13  C9  UNL     1      27.094   2.077  52.056  1.00  0.00     0.164 C 
BRANCH  13  14
HETATM   14  C10 UNL     1      27.364   0.669  52.358  1.00  0.00    -0.040 A 
HETATM   15  C11 UNL     1      28.544   0.365  53.062  1.00  0.00     0.011 A 
HETATM   16  C12 UNL     1      28.926  -0.907  53.407  1.00  0.00     0.037 A 
HETATM   17  C13 UNL     1      28.116  -1.976  53.049  1.00  0.00     0.065 A 
HETATM   18  C14 UNL     1      26.946  -1.757  52.360  1.00  0.00     0.037 A 
HETATM   19  C15 UNL     1      26.660  -0.460  52.069  1.00  0.00     0.011 A 
BRANCH  17  20
HETATM   20  O2  UNL     1      28.533  -3.244  53.409  1.00  0.00    -0.361 OA
HETATM   21  H15 UNL     1      28.959  -3.875  52.739  1.00  0.00     0.217 HD
ENDBRANCH  17  20
ENDBRANCH  13  14
ENDBRANCH   1  13
BRANCH   1  22
HETATM   22  C16 UNL     1      24.607   2.294  52.283  1.00  0.00     0.174 C 
HETATM   23  S1  UNL     1      23.794   3.494  53.017  1.00  0.00    -0.041 SA
HETATM   24  N2  UNL     1      23.624   1.479  52.764  1.00  0.00    -0.333 N 
HETATM   25  H18 UNL     1      24.139   0.768  52.267  1.00  0.00     0.168 HD
BRANCH  24  26
HETATM   26  C17 UNL     1      22.613   0.650  53.258  1.00  0.00     0.034 A 
HETATM   27  C18 UNL     1      23.125  -0.450  53.937  1.00  0.00     0.029 A 
HETATM   28  C19 UNL     1      22.245  -1.303  54.538  1.00  0.00     0.002 A 
HETATM   29  C20 UNL     1      20.937  -1.026  54.433  1.00  0.00     0.000 A 
HETATM   30  C21 UNL     1      20.311   0.021  53.799  1.00  0.00     0.002 A 
HETATM   31  C22 UNL     1      21.219   0.876  53.194  1.00  0.00     0.029 A 
ENDBRANCH  24  26
ENDBRANCH   1  22
TORSDOF 8
ENDMDL
MODEL 2
REMARK VINA RESULT:      -9.2      2.341      7.116
REMARK  8 active torsions:
REMARK  status: ('A' for Active; 'I' for Inactive)
REMARK    1  A    between atoms: C6_6  and  O1_7 
REMARK    2  A    between atoms: C7_8  and  C8_9 
REMARK    3  A    between atoms: C8_9  and  N1_10 
REMARK    4  A    between atoms: N1_10  and  C9_11 
REMARK    5  A    between atoms: N1_10  and  C16_19 
REMARK    6  A    between atoms: C9_11  and  C10_12 
REMARK    7  A    between atoms: C13_15  and  O2_16 
REMARK    8  A    between atoms: N2_21  and  C17_22 
ROOT
HETATM    1  N1  UNL     1      23.594   1.789  52.180  1.00  0.00    -0.349 N 
ENDROOT
BRANCH   1   2
HETATM    2  C8  UNL     1      24.230   1.577  53.447  1.00  0.00     0.167 C 
BRANCH   2   3
HETATM    3  C7  UNL     1      25.605   0.967  53.363  1.00  0.00    -0.006 A 
HETATM    4  C6  UNL     1      26.764   1.656  53.688  1.00  0.00     0.079 A 
HETATM    5  C4  UNL     1      27.909   0.956  53.508  1.00  0.00    -0.028 A 
HETATM    6  C3  UNL     1      28.004  -0.348  53.043  1.00  0.00     0.016 A 
HETATM    7  C5  UNL     1      29.169   1.718  53.844  1.00  0.00     0.051 C 
HETATM    8  C2  UNL     1      26.835  -0.998  52.731  1.00  0.00    -0.061 A 
HETATM    9  C1  UNL     1      26.806  -2.369  52.213  1.00  0.00     0.048 C 
HETATM   10  C23 UNL     1      25.638  -0.338  52.894  1.00  0.00     0.018 A 
BRANCH   4  11
HETATM   11  O1  UNL     1      26.681   2.965  54.155  1.00  0.00    -0.360 OA
HETATM   12  H8  UNL     1      26.395   3.146  55.101  1.00  0.00     0.217 HD
ENDBRANCH   4  11
ENDBRANCH   2   3
ENDBRANCH   1   2
BRANCH   1  13
HETATM   13  C9  UNL     1      22.801   0.944  51.372  1.00  0.00     0.164 C 
BRANCH  13  14
HETATM   14  C10 UNL     1      21.682   0.348  52.105  1.00  0.00    -0.040 A 
HETATM   15  C11 UNL     1      20.379   0.612  51.642  1.00  0.00     0.011 A 
HETATM   16  C12 UNL     1      19.240   0.126  52.233  1.00  0.00     0.037 A 
HETATM   17  C13 UNL     1      19.354  -0.676  53.360  1.00  0.00     0.065 A 
HETATM   18  C14 UNL     1      20.594  -0.978  53.872  1.00  0.00     0.037 A 
HETATM   19  C15 UNL     1      21.657  -0.448  53.210  1.00  0.00     0.011 A 
BRANCH  17  20
HETATM   20  O2  UNL     1      18.186  -1.145  53.933  1.00  0.00    -0.361 OA
HETATM   21  H15 UNL     1      18.071  -1.202  54.938  1.00  0.00     0.217 HD
ENDBRANCH  17  20
ENDBRANCH  13  14
ENDBRANCH   1  13
BRANCH   1  22
HETATM   22  C16 UNL     1      23.946   3.121  51.852  1.00  0.00     0.174 C 
HETATM   23  S1  UNL     1      23.417   4.556  52.401  1.00  0.00    -0.041 SA
HETATM   24  N2  UNL     1      24.767   3.854  51.044  1.00  0.00    -0.333 N 
HETATM   25  H18 UNL     1      25.092   2.944  50.754  1.00  0.00     0.168 HD
BRANCH  24  26
HETATM   26  C17 UNL     1      25.605   4.611  50.220  1.00  0.00     0.034 A 
HETATM   27  C18 UNL     1      26.640   3.850  49.689  1.00  0.00     0.029 A 
HETATM   28  C19 UNL     1      27.491   4.448  48.805  1.00  0.00     0.002 A 
HETATM   29  C20 UNL     1      27.274   5.737  48.505  1.00  0.00     0.000 A 
HETATM   30  C21 UNL     1      26.293   6.589  48.956  1.00  0.00     0.002 A 
HETATM   31  C22 UNL     1      25.440   5.965  49.853  1.00  0.00     0.029 A 
ENDBRANCH  24  26
ENDBRANCH   1  22
TORSDOF 8
ENDMDL
MODEL 3
REMARK VINA RESULT:      -8.9      2.003      6.792
REMARK  8 active torsions:
REMARK  status: ('A' for Active; 'I' for Inactive)
REMARK    1  A    between atoms: C6_6  and  O1_7 
REMARK    2  A    between atoms: C7_8  and  C8_9 
REMARK    3  A    between atoms: C8_9  and  N1_10 
REMARK    4  A    between atoms: N1_10  and  C9_11 
REMARK    5  A    between atoms: N1_10  and  C16_19 
REMARK    6  A    between atoms: C9_11  and  C10_12 
REMARK    7  A    between atoms: C13_15  and  O2_16 
REMARK    8  A    between atoms: N2_21  and  C17_22 
ROOT
HETATM    1  N1  UNL     1      25.496   3.389  50.786  1.00  0.00    -0.349 N 
ENDROOT
BRANCH   1   2
HETATM    2  C8  UNL     1      24.347   3.499  51.637  1.00  0.00     0.167 C 
BRANCH   2   3
HETATM    3  C7  UNL     1      23.366   2.363  51.515  1.00  0.00    -0.006 A 
HETATM    4  C6  UNL     1      22.524   2.199  50.425  1.00  0.00     0.079 A 
HETATM    5  C4  UNL     1      21.681   1.143  50.513  1.00  0.00    -0.028 A 
HETATM    6  C3  UNL     1      21.601   0.248  51.571  1.00  0.00     0.016 A 
HETATM    7  C5  UNL     1      20.753   0.981  49.333  1.00  0.00     0.051 C 
HETATM    8  C2  UNL     1      22.450   0.443  52.633  1.00  0.00    -0.061 A 
HETATM    9  C1  UNL     1      22.449  -0.422  53.816  1.00  0.00     0.048 C 
HETATM   10  C23 UNL     1      23.332   1.500  52.600  1.00  0.00     0.018 A 
BRANCH   4  11
HETATM   11  O1  UNL     1      22.594   3.091  49.358  1.00  0.00    -0.360 OA
HETATM   12  H8  UNL     1      22.931   4.026  49.504  1.00  0.00     0.217 HD
ENDBRANCH   4  11
ENDBRANCH   2   3
ENDBRANCH   1   2
BRANCH   1  13
HETATM   13  C9  UNL     1      26.368   2.310  50.517  1.00  0.00     0.164 C 
BRANCH  13  14
HETATM   14  C10 UNL     1      26.927   1.718  51.734  1.00  0.00    -0.040 A 
HETATM   15  C11 UNL     1      26.658   0.359  51.985  1.00  0.00     0.011 A 
HETATM   16  C12 UNL     1      27.112  -0.322  53.087  1.00  0.00     0.037 A 
HETATM   17  C13 UNL     1      27.883   0.349  54.026  1.00  0.00     0.065 A 
HETATM   18  C14 UNL     1      28.186   1.678  53.849  1.00  0.00     0.037 A 
HETATM   19  C15 UNL     1      27.690   2.258  52.724  1.00  0.00     0.011 A 
BRANCH  17  20
HETATM   20  O2  UNL     1      28.319  -0.367  55.125  1.00  0.00    -0.361 OA
HETATM   21  H15 UNL     1      27.723  -1.040  55.594  1.00  0.00     0.217 HD
ENDBRANCH  17  20
ENDBRANCH  13  14
ENDBRANCH   1  13
BRANCH   1  22
HETATM   22  C16 UNL     1      25.614   4.682  50.221  1.00  0.00     0.174 C 
HETATM   23  S1  UNL     1      24.685   6.010  50.333  1.00  0.00    -0.041 SA
HETATM   24  N2  UNL     1      26.410   5.438  49.410  1.00  0.00    -0.333 N 
HETATM   25  H18 UNL     1      26.977   4.604  49.394  1.00  0.00     0.168 HD
BRANCH  24  26
HETATM   26  C17 UNL     1      27.221   6.218  48.581  1.00  0.00     0.034 A 
HETATM   27  C18 UNL     1      28.501   5.692  48.457  1.00  0.00     0.029 A 
HETATM   28  C19 UNL     1      29.376   6.315  47.614  1.00  0.00     0.002 A 
HETATM   29  C20 UNL     1      28.942   7.400  46.957  1.00  0.00     0.000 A 
HETATM   30  C21 UNL     1      27.711   8.011  46.990  1.00  0.00     0.002 A 
HETATM   31  C22 UNL     1      26.837   7.367  47.851  1.00  0.00     0.029 A 
ENDBRANCH  24  26
ENDBRANCH   1  22
TORSDOF 8
ENDMDL
MODEL 4
REMARK VINA RESULT:      -8.8      1.826      6.082
REMARK  8 active torsions:
REMARK  status: ('A' for Active; 'I' for Inactive)
REMARK    1  A    between atoms: C6_6  and  O1_7 
REMARK    2  A    between atoms: C7_8  and  C8_9 
REMARK    3  A    between atoms: C8_9  and  N1_10 
REMARK    4  A    between atoms: N1_10  and  C9_11 
REMARK    5  A    between atoms: N1_10  and  C16_19 
REMARK    6  A    between atoms: C9_11  and  C10_12 
REMARK    7  A    between atoms: C13_15  and  O2_16 
REMARK    8  A    between atoms: N2_21  and  C17_22 
ROOT
HETATM    1  N1  UNL     1      25.312   2.378  51.167  1.00  0.00    -0.349 N 
ENDROOT
BRANCH   1   2
HETATM    2  C8  UNL     1      25.716   2.346  52.543  1.00  0.00     0.167 C 
BRANCH   2   3
HETATM    3  C7  UNL     1      26.728   1.281  52.874  1.00  0.00    -0.006 A 
HETATM    4  C6  UNL     1      27.950   1.552  53.473  1.00  0.00     0.079 A 
HETATM    5  C4  UNL     1      28.746   0.471  53.653  1.00  0.00    -0.028 A 
HETATM    6  C3  UNL     1      28.440  -0.835  53.297  1.00  0.00     0.016 A 
HETATM    7  C5  UNL     1      30.082   0.776  54.286  1.00  0.00     0.051 C 
HETATM    8  C2  UNL     1      27.221  -1.065  52.707  1.00  0.00    -0.061 A 
HETATM    9  C1  UNL     1      26.793  -2.396  52.271  1.00  0.00     0.048 C 
HETATM   10  C23 UNL     1      26.368  -0.004  52.498  1.00  0.00     0.018 A 
BRANCH   4  11
HETATM   11  O1  UNL     1      28.268   2.859  53.832  1.00  0.00    -0.360 OA
HETATM   12  H8  UNL     1      27.725   3.337  54.529  1.00  0.00     0.217 HD
ENDBRANCH   4  11
ENDBRANCH   2   3
ENDBRANCH   1   2
BRANCH   1  13
HETATM   13  C9  UNL     1      26.006   2.738  49.990  1.00  0.00     0.164 C 
BRANCH  13  14
HETATM   14  C10 UNL     1      26.043   4.187  49.777  1.00  0.00    -0.040 A 
HETATM   15  C11 UNL     1      27.064   4.703  48.957  1.00  0.00     0.011 A 
HETATM   16  C12 UNL     1      27.223   6.037  48.677  1.00  0.00     0.037 A 
HETATM   17  C13 UNL     1      26.336   6.953  49.225  1.00  0.00     0.065 A 
HETATM   18  C14 UNL     1      25.312   6.523  50.036  1.00  0.00     0.037 A 
HETATM   19  C15 UNL     1      25.243   5.182  50.249  1.00  0.00     0.011 A 
BRANCH  17  20
HETATM   20  O2  UNL     1      26.528   8.289  48.925  1.00  0.00    -0.361 OA
HETATM   21  H15 UNL     1      27.222   8.848  49.406  1.00  0.00     0.217 HD
ENDBRANCH  17  20
ENDBRANCH  13  14
ENDBRANCH   1  13
BRANCH   1  22
HETATM   22  C16 UNL     1      23.962   1.952  51.209  1.00  0.00     0.174 C 
HETATM   23  S1  UNL     1      22.679   2.302  50.276  1.00  0.00    -0.041 SA
HETATM   24  N2  UNL     1      23.100   1.159  51.911  1.00  0.00    -0.333 N 
HETATM   25  H18 UNL     1      23.927   0.942  52.445  1.00  0.00     0.168 HD
BRANCH  24  26
HETATM   26  C17 UNL     1      22.212   0.350  52.625  1.00  0.00     0.034 A 
HETATM   27  C18 UNL     1      22.875  -0.556  53.444  1.00  0.00     0.029 A 
HETATM   28  C19 UNL     1      22.127  -1.359  54.256  1.00  0.00     0.002 A 
HETATM   29  C20 UNL     1      20.793  -1.222  54.209  1.00  0.00     0.000 A 
HETATM   30  C21 UNL     1      20.025  -0.370  53.451  1.00  0.00     0.002 A 
HETATM   31  C22 UNL     1      20.801   0.435  52.633  1.00  0.00     0.029 A 
ENDBRANCH  24  26
ENDBRANCH   1  22
TORSDOF 8
ENDMDL
MODEL 5
REMARK VINA RESULT:      -8.8      1.734      6.661
REMARK  8 active torsions:
REMARK  status: ('A' for Active; 'I' for Inactive)
REMARK    1  A    between atoms: C6_6  and  O1_7 
REMARK    2  A    between atoms: C7_8  and  C8_9 
REMARK    3  A    between atoms: C8_9  and  N1_10 
REMARK    4  A    between atoms: N1_10  and  C9_11 
REMARK    5  A    between atoms: N1_10  and  C16_19 
REMARK    6  A    between atoms: C9_11  and  C10_12 
REMARK    7  A    between atoms: C13_15  and  O2_16 
REMARK    8  A    between atoms: N2_21  and  C17_22 
ROOT
HETATM    1  N1  UNL     1      24.486   2.345  52.395  1.00  0.00    -0.349 N 
ENDROOT
BRANCH   1   2
HETATM    2  C8  UNL     1      23.863   1.309  51.623  1.00  0.00     0.167 C 
BRANCH   2   3
HETATM    3  C7  UNL     1      22.741   0.593  52.326  1.00  0.00    -0.006 A 
HETATM    4  C6  UNL     1      21.412   0.697  51.942  1.00  0.00     0.079 A 
HETATM    5  C4  UNL     1      20.541   0.014  52.723  1.00  0.00    -0.028 A 
HETATM    6  C3  UNL     1      20.867  -0.752  53.833  1.00  0.00     0.016 A 
HETATM    7  C5  UNL     1      19.094   0.149  52.312  1.00  0.00     0.051 C 
HETATM    8  C2  UNL     1      22.193  -0.832  54.182  1.00  0.00    -0.061 A 
HETATM    9  C1  UNL     1      22.660  -1.594  55.344  1.00  0.00     0.048 C 
HETATM   10  C23 UNL     1      23.126  -0.159  53.426  1.00  0.00     0.018 A 
BRANCH   4  11
HETATM   11  O1  UNL     1      21.072   1.465  50.832  1.00  0.00    -0.360 OA
HETATM   12  H8  UNL     1      21.786   1.948  50.315  1.00  0.00     0.217 HD
ENDBRANCH   4  11
ENDBRANCH   2   3
ENDBRANCH   1   2
BRANCH   1  13
HETATM   13  C9  UNL     1      25.059   2.340  53.687  1.00  0.00     0.164 C 
BRANCH  13  14
HETATM   14  C10 UNL     1      26.375   1.697  53.719  1.00  0.00    -0.040 A 
HETATM   15  C11 UNL     1      27.493   2.477  53.367  1.00  0.00     0.011 A 
HETATM   16  C12 UNL     1      28.781   2.005  53.347  1.00  0.00     0.037 A 
HETATM   17  C13 UNL     1      29.022   0.682  53.689  1.00  0.00     0.065 A 
HETATM   18  C14 UNL     1      27.979  -0.141  54.044  1.00  0.00     0.037 A 
HETATM   19  C15 UNL     1      26.743   0.425  54.033  1.00  0.00     0.011 A 
BRANCH  17  20
HETATM   20  O2  UNL     1      30.331   0.239  53.653  1.00  0.00    -0.361 OA
HETATM   21  H15 UNL     1      31.111   0.869  53.803  1.00  0.00     0.217 HD
ENDBRANCH  17  20
ENDBRANCH  13  14
ENDBRANCH   1  13
BRANCH   1  22
HETATM   22  C16 UNL     1      24.407   3.480  51.551  1.00  0.00     0.174 C 
HETATM   23  S1  UNL     1      23.170   4.453  51.146  1.00  0.00    -0.041 SA
HETATM   24  N2  UNL     1      25.160   4.276  50.737  1.00  0.00    -0.333 N 
HETATM   25  H18 UNL     1      25.907   3.670  51.040  1.00  0.00     0.168 HD
BRANCH  24  26
HETATM   26  C17 UNL     1      25.924   5.095  49.902  1.00  0.00     0.034 A 
HETATM   27  C18 UNL     1      27.021   4.424  49.375  1.00  0.00     0.029 A 
HETATM   28  C19 UNL     1      27.813   5.086  48.481  1.00  0.00     0.002 A 
HETATM   29  C20 UNL     1      27.481   6.348  48.169  1.00  0.00     0.000 A 
HETATM   30  C21 UNL     1      26.430   7.113  48.616  1.00  0.00     0.002 A 
HETATM   31  C22 UNL     1      25.639   6.426  49.522  1.00  0.00     0.029 A 
ENDBRANCH  24  26
ENDBRANCH   1  22
TORSDOF 8
ENDMDL
MODEL 6
REMARK VINA RESULT:      -8.8      2.297      6.793
REMARK  8 active torsions:
REMARK  status: ('A' for Active; 'I' for Inactive)
REMARK    1  A    between atoms: C6_6  and  O1_7 
REMARK    2  A    between atoms: C7_8  and  C8_9 
REMARK    3  A    between atoms: C8_9  and  N1_10 
REMARK    4  A    between atoms: N1_10  and  C9_11 
REMARK    5  A    between atoms: N1_10  and  C16_19 
REMARK    6  A    between atoms: C9_11  and  C10_12 
REMARK    7  A    between atoms: C13_15  and  O2_16 
REMARK    8  A    between atoms: N2_21  and  C17_22 
ROOT
HETATM    1  N1  UNL     1      25.525   3.234  50.693  1.00  0.00    -0.349 N 
ENDROOT
BRANCH   1   2
HETATM    2  C8  UNL     1      24.404   3.344  51.580  1.00  0.00     0.167 C 
BRANCH   2   3
HETATM    3  C7  UNL     1      23.363   2.269  51.410  1.00  0.00    -0.006 A 
HETATM    4  C6  UNL     1      23.105   1.301  52.370  1.00  0.00     0.079 A 
HETATM    5  C4  UNL     1      22.164   0.392  52.020  1.00  0.00    -0.028 A 
HETATM    6  C3  UNL     1      21.465   0.361  50.821  1.00  0.00     0.016 A 
HETATM    7  C5  UNL     1      21.902  -0.670  53.060  1.00  0.00     0.051 C 
HETATM    8  C2  UNL     1      21.748   1.336  49.895  1.00  0.00    -0.061 A 
HETATM    9  C1  UNL     1      21.092   1.398  48.587  1.00  0.00     0.048 C 
HETATM   10  C23 UNL     1      22.696   2.289  50.194  1.00  0.00     0.018 A 
BRANCH   4  11
HETATM   11  O1  UNL     1      23.801   1.322  53.576  1.00  0.00    -0.360 OA
HETATM   12  H8  UNL     1      24.496   2.027  53.745  1.00  0.00     0.217 HD
ENDBRANCH   4  11
ENDBRANCH   2   3
ENDBRANCH   1   2
BRANCH   1  13
HETATM   13  C9  UNL     1      26.391   2.156  50.399  1.00  0.00     0.164 C 
BRANCH  13  14
HETATM   14  C10 UNL     1      26.809   1.425  51.598  1.00  0.00    -0.040 A 
HETATM   15  C11 UNL     1      27.550   2.127  52.568  1.00  0.00     0.011 A 
HETATM   16  C12 UNL     1      28.011   1.568  53.734  1.00  0.00     0.037 A 
HETATM   17  C13 UNL     1      27.745   0.231  53.994  1.00  0.00     0.065 A 
HETATM   18  C14 UNL     1      27.027  -0.520  53.092  1.00  0.00     0.037 A 
HETATM   19  C15 UNL     1      26.616   0.130  51.971  1.00  0.00     0.011 A 
BRANCH  17  20
HETATM   20  O2  UNL     1      28.229  -0.300  55.175  1.00  0.00    -0.361 OA
HETATM   21  H15 UNL     1      29.013  -0.942  55.189  1.00  0.00     0.217 HD
ENDBRANCH  17  20
ENDBRANCH  13  14
ENDBRANCH   1  13
BRANCH   1  22
HETATM   22  C16 UNL     1      25.622   4.525  50.119  1.00  0.00     0.174 C 
HETATM   23  S1  UNL     1      24.623   5.807  50.145  1.00  0.00    -0.041 SA
HETATM   24  N2  UNL     1      26.436   5.310  49.355  1.00  0.00    -0.333 N 
HETATM   25  H18 UNL     1      27.042   4.505  49.391  1.00  0.00     0.168 HD
BRANCH  24  26
HETATM   26  C17 UNL     1      27.265   6.120  48.574  1.00  0.00     0.034 A 
HETATM   27  C18 UNL     1      28.540   5.583  48.436  1.00  0.00     0.029 A 
HETATM   28  C19 UNL     1      29.431   6.235  47.634  1.00  0.00     0.002 A 
HETATM   29  C20 UNL     1      29.018   7.358  47.028  1.00  0.00     0.000 A 
HETATM   30  C21 UNL     1      27.794   7.984  47.080  1.00  0.00     0.002 A 
HETATM   31  C22 UNL     1      26.904   7.308  47.900  1.00  0.00     0.029 A 
ENDBRANCH  24  26
ENDBRANCH   1  22
TORSDOF 8
ENDMDL
MODEL 7
REMARK VINA RESULT:      -8.5      2.572      7.784
REMARK  8 active torsions:
REMARK  status: ('A' for Active; 'I' for Inactive)
REMARK    1  A    between atoms: C6_6  and  O1_7 
REMARK    2  A    between atoms: C7_8  and  C8_9 
REMARK    3  A    between atoms: C8_9  and  N1_10 
REMARK    4  A    between atoms: N1_10  and  C9_11 
REMARK    5  A    between atoms: N1_10  and  C16_19 
REMARK    6  A    between atoms: C9_11  and  C10_12 
REMARK    7  A    between atoms: C13_15  and  O2_16 
REMARK    8  A    between atoms: N2_21  and  C17_22 
ROOT
HETATM    1  N1  UNL     1      23.960   2.647  51.999  1.00  0.00    -0.349 N 
ENDROOT
BRANCH   1   2
HETATM    2  C8  UNL     1      23.278   1.653  51.222  1.00  0.00     0.167 C 
BRANCH   2   3
HETATM    3  C7  UNL     1      22.218   0.889  51.971  1.00  0.00    -0.006 A 
HETATM    4  C6  UNL     1      22.501   0.027  53.020  1.00  0.00     0.079 A 
HETATM    5  C4  UNL     1      21.422  -0.604  53.542  1.00  0.00    -0.028 A 
HETATM    6  C3  UNL     1      20.107  -0.455  53.123  1.00  0.00     0.016 A 
HETATM    7  C5  UNL     1      21.738  -1.556  54.670  1.00  0.00     0.051 C 
HETATM    8  C2  UNL     1      19.867   0.408  52.081  1.00  0.00    -0.061 A 
HETATM    9  C1  UNL     1      18.525   0.635  51.537  1.00  0.00     0.048 C 
HETATM   10  C23 UNL     1      20.924   1.079  51.509  1.00  0.00     0.018 A 
BRANCH   4  11
HETATM   11  O1  UNL     1      23.816  -0.131  53.449  1.00  0.00    -0.360 OA
HETATM   12  H8  UNL     1      24.453  -0.702  52.921  1.00  0.00     0.217 HD
ENDBRANCH   4  11
ENDBRANCH   2   3
ENDBRANCH   1   2
BRANCH   1  13
HETATM   13  C9  UNL     1      23.480   3.716  52.790  1.00  0.00     0.164 C 
BRANCH  13  14
HETATM   14  C10 UNL     1      23.165   4.907  51.998  1.00  0.00    -0.040 A 
HETATM   15  C11 UNL     1      21.829   5.090  51.594  1.00  0.00     0.011 A 
HETATM   16  C12 UNL     1      21.393   6.154  50.845  1.00  0.00     0.037 A 
HETATM   17  C13 UNL     1      22.307   7.121  50.448  1.00  0.00     0.065 A 
HETATM   18  C14 UNL     1      23.631   7.009  50.804  1.00  0.00     0.037 A 
HETATM   19  C15 UNL     1      23.957   5.919  51.547  1.00  0.00     0.011 A 
BRANCH  17  20
HETATM   20  O2  UNL     1      21.834   8.176  49.690  1.00  0.00    -0.361 OA
HETATM   21  H15 UNL     1      22.371   8.566  48.925  1.00  0.00     0.217 HD
ENDBRANCH  17  20
ENDBRANCH  13  14
ENDBRANCH   1  13
BRANCH   1  22
HETATM   22  C16 UNL     1      25.328   2.338  51.804  1.00  0.00     0.174 C 
HETATM   23  S1  UNL     1      26.419   2.858  50.718  1.00  0.00    -0.041 SA
HETATM   24  N2  UNL     1      26.346   1.576  52.302  1.00  0.00    -0.333 N 
HETATM   25  H18 UNL     1      25.648   1.305  52.978  1.00  0.00     0.168 HD
BRANCH  24  26
HETATM   26  C17 UNL     1      27.392   0.799  52.806  1.00  0.00     0.034 A 
HETATM   27  C18 UNL     1      27.169  -0.560  52.622  1.00  0.00     0.029 A 
HETATM   28  C19 UNL     1      28.148  -1.432  53.001  1.00  0.00     0.002 A 
HETATM   29  C20 UNL     1      29.269  -0.918  53.531  1.00  0.00     0.000 A 
HETATM   30  C21 UNL     1      29.608   0.394  53.760  1.00  0.00     0.002 A 
HETATM   31  C22 UNL     1      28.602   1.264  53.371  1.00  0.00     0.029 A 
ENDBRANCH  24  26
ENDBRANCH   1  22
TORSDOF 8
ENDMDL
MODEL 8
REMARK VINA RESULT:      -8.5      2.091      6.908
REMARK  8 active torsions:
REMARK  status: ('A' for Active; 'I' for Inactive)
REMARK    1  A    between atoms: C6_6  and  O1_7 
REMARK    2  A    between atoms: C7_8  and  C8_9 
REMARK    3  A    between atoms: C8_9  and  N1_10 
REMARK    4  A    between atoms: N1_10  and  C9_11 
REMARK    5  A    between atoms: N1_10  and  C16_19 
REMARK    6  A    between atoms: C9_11  and  C10_12 
REMARK    7  A    between atoms: C13_15  and  O2_16 
REMARK    8  A    between atoms: N2_21  and  C17_22 
ROOT
HETATM    1  N1  UNL     1      24.211   2.419  51.767  1.00  0.00    -0.349 N 
ENDROOT
BRANCH   1   2
HETATM    2  C8  UNL     1      23.534   1.296  51.187  1.00  0.00     0.167 C 
BRANCH   2   3
HETATM    3  C7  UNL     1      22.299   0.857  51.930  1.00  0.00    -0.006 A 
HETATM    4  C6  UNL     1      22.295  -0.177  52.855  1.00  0.00     0.079 A 
HETATM    5  C4  UNL     1      21.082  -0.456  53.388  1.00  0.00    -0.028 A 
HETATM    6  C3  UNL     1      19.891   0.191  53.090  1.00  0.00     0.016 A 
HETATM    7  C5  UNL     1      21.080  -1.596  54.378  1.00  0.00     0.051 C 
HETATM    8  C2  UNL     1      19.935   1.210  52.169  1.00  0.00    -0.061 A 
HETATM    9  C1  UNL     1      18.742   1.956  51.758  1.00  0.00     0.048 C 
HETATM   10  C23 UNL     1      21.141   1.540  51.593  1.00  0.00     0.018 A 
BRANCH   4  11
HETATM   11  O1  UNL     1      23.483  -0.835  53.160  1.00  0.00    -0.360 OA
HETATM   12  H8  UNL     1      23.855  -0.797  54.093  1.00  0.00     0.217 HD
ENDBRANCH   4  11
ENDBRANCH   2   3
ENDBRANCH   1   2
BRANCH   1  13
HETATM   13  C9  UNL     1      24.664   2.668  53.083  1.00  0.00     0.164 C 
BRANCH  13  14
HETATM   14  C10 UNL     1      25.923   1.983  53.386  1.00  0.00    -0.040 A 
HETATM   15  C11 UNL     1      25.892   0.950  54.342  1.00  0.00     0.011 A 
HETATM   16  C12 UNL     1      26.995   0.229  54.728  1.00  0.00     0.037 A 
HETATM   17  C13 UNL     1      28.225   0.518  54.155  1.00  0.00     0.065 A 
HETATM   18  C14 UNL     1      28.334   1.515  53.214  1.00  0.00     0.037 A 
HETATM   19  C15 UNL     1      27.182   2.167  52.902  1.00  0.00     0.011 A 
BRANCH  17  20
HETATM   20  O2  UNL     1      29.315  -0.225  54.571  1.00  0.00    -0.361 OA
HETATM   21  H15 UNL     1      30.012  -0.560  53.916  1.00  0.00     0.217 HD
ENDBRANCH  17  20
ENDBRANCH  13  14
ENDBRANCH   1  13
BRANCH   1  22
HETATM   22  C16 UNL     1      24.347   3.320  50.683  1.00  0.00     0.174 C 
HETATM   23  S1  UNL     1      23.329   3.758  49.495  1.00  0.00    -0.041 SA
HETATM   24  N2  UNL     1      25.229   4.183  50.099  1.00  0.00    -0.333 N 
HETATM   25  H18 UNL     1      25.818   3.911  50.871  1.00  0.00     0.168 HD
BRANCH  24  26
HETATM   26  C17 UNL     1      26.126   5.068  49.496  1.00  0.00     0.034 A 
HETATM   27  C18 UNL     1      27.279   4.426  49.059  1.00  0.00     0.029 A 
HETATM   28  C19 UNL     1      28.209   5.161  48.382  1.00  0.00     0.002 A 
HETATM   29  C20 UNL     1      27.951   6.462  48.183  1.00  0.00     0.000 A 
HETATM   30  C21 UNL     1      26.858   7.207  48.560  1.00  0.00     0.002 A 
HETATM   31  C22 UNL     1      25.926   6.445  49.246  1.00  0.00     0.029 A 
ENDBRANCH  24  26
ENDBRANCH   1  22
TORSDOF 8
ENDMDL
MODEL 9
REMARK VINA RESULT:      -8.5      2.705      6.233
REMARK  8 active torsions:
REMARK  status: ('A' for Active; 'I' for Inactive)
REMARK    1  A    between atoms: C6_6  and  O1_7 
REMARK    2  A    between atoms: C7_8  and  C8_9 
REMARK    3  A    between atoms: C8_9  and  N1_10 
REMARK    4  A    between atoms: N1_10  and  C9_11 
REMARK    5  A    between atoms: N1_10  and  C16_19 
REMARK    6  A    between atoms: C9_11  and  C10_12 
REMARK    7  A    between atoms: C13_15  and  O2_16 
REMARK    8  A    between atoms: N2_21  and  C17_22 
ROOT
HETATM    1  N1  UNL     1      22.737   2.762  50.678  1.00  0.00    -0.349 N 
ENDROOT
BRANCH   1   2
HETATM    2  C8  UNL     1      23.291   2.846  51.998  1.00  0.00     0.167 C 
BRANCH   2   3
HETATM    3  C7  UNL     1      23.749   1.530  52.570  1.00  0.00    -0.006 A 
HETATM    4  C6  UNL     1      22.955   0.737  53.384  1.00  0.00     0.079 A 
HETATM    5  C4  UNL     1      23.555  -0.389  53.838  1.00  0.00    -0.028 A 
HETATM    6  C3  UNL     1      24.854  -0.792  53.558  1.00  0.00     0.016 A 
HETATM    7  C5  UNL     1      22.693  -1.238  54.741  1.00  0.00     0.051 C 
HETATM    8  C2  UNL     1      25.610   0.020  52.748  1.00  0.00    -0.061 A 
HETATM    9  C1  UNL     1      26.998  -0.288  52.395  1.00  0.00     0.048 C 
HETATM   10  C23 UNL     1      25.054   1.179  52.255  1.00  0.00     0.018 A 
BRANCH   4  11
HETATM   11  O1  UNL     1      21.652   1.132  53.674  1.00  0.00    -0.360 OA
HETATM   12  H8  UNL     1      20.880   0.531  53.444  1.00  0.00     0.217 HD
ENDBRANCH   4  11
ENDBRANCH   2   3
ENDBRANCH   1   2
BRANCH   1  13
HETATM   13  C9  UNL     1      23.346   2.729  49.403  1.00  0.00     0.164 C 
BRANCH  13  14
HETATM   14  C10 UNL     1      24.529   3.587  49.319  1.00  0.00    -0.040 A 
HETATM   15  C11 UNL     1      24.329   4.955  49.053  1.00  0.00     0.011 A 
HETATM   16  C12 UNL     1      25.344   5.872  48.941  1.00  0.00     0.037 A 
HETATM   17  C13 UNL     1      26.657   5.449  49.095  1.00  0.00     0.065 A 
HETATM   18  C14 UNL     1      26.931   4.127  49.357  1.00  0.00     0.037 A 
HETATM   19  C15 UNL     1      25.855   3.302  49.449  1.00  0.00     0.011 A 
BRANCH  17  20
HETATM   20  O2  UNL     1      27.654   6.399  48.972  1.00  0.00    -0.361 OA
HETATM   21  H15 UNL     1      27.446   7.390  48.948  1.00  0.00     0.217 HD
ENDBRANCH  17  20
ENDBRANCH  13  14
ENDBRANCH   1  13
BRANCH   1  22
HETATM   22  C16 UNL     1      21.340   2.725  50.906  1.00  0.00     0.174 C 
HETATM   23  S1  UNL     1      20.287   3.858  51.404  1.00  0.00    -0.041 SA
HETATM   24  N2  UNL     1      20.259   1.893  50.860  1.00  0.00    -0.333 N 
HETATM   25  H18 UNL     1      20.938   1.229  50.522  1.00  0.00     0.168 HD
BRANCH  24  26
HETATM   26  C17 UNL     1      19.148   1.047  50.815  1.00  0.00     0.034 A 
HETATM   27  C18 UNL     1      19.071   0.227  51.935  1.00  0.00     0.029 A 
HETATM   28  C19 UNL     1      17.990  -0.598  52.057  1.00  0.00     0.002 A 
HETATM   29  C20 UNL     1      17.068  -0.565  51.083  1.00  0.00     0.000 A 
HETATM   30  C21 UNL     1      17.029   0.196  49.938  1.00  0.00     0.002 A 
HETATM   31  C22 UNL     1      18.133   1.026  49.832  1.00  0.00     0.029 A 
ENDBRANCH  24  26
ENDBRANCH   1  22
TORSDOF 8
ENDMDL
