MODEL 1
REMARK VINA RESULT:      -9.2      0.000      0.000
REMARK  6 active torsions:
REMARK  status: ('A' for Active; 'I' for Inactive)
REMARK    1  A    between atoms: O1_2  and  C2_3 
REMARK    2  A    between atoms: C7_10  and  N3_11 
REMARK    3  A    between atoms: N3_11  and  C9_13 
REMARK    4  A    between atoms: C12_16  and  N4_17 
REMARK       I    between atoms: N4_17  and  C13_18 
REMARK       I    between atoms: C13_18  and  N5_20 
REMARK    5  A    between atoms: N5_20  and  C14_21 
REMARK    6  A    between atoms: C24_31  and  O3_32 
ROOT
HETATM    1  C9  UNL     1      25.861   5.700  49.096  1.00  0.00     0.035 A 
HETATM    2  C10 UNL     1      26.801   4.703  48.993  1.00  0.00     0.032 A 
HETATM    3  C11 UNL     1      28.062   5.005  48.522  1.00  0.00     0.032 A 
HETATM    4  C12 UNL     1      28.473   6.255  48.135  1.00  0.00     0.036 A 
HETATM    5  C20 UNL     1      27.518   7.237  48.246  1.00  0.00     0.032 A 
HETATM    6  C21 UNL     1      26.251   6.963  48.714  1.00  0.00     0.032 A 
ENDROOT
BRANCH   1   7
HETATM    7  N3  UNL     1      24.545   5.450  49.574  1.00  0.00    -0.335 N 
HETATM    8  C8  UNL     1      24.192   5.804  50.937  1.00  0.00     0.158 C 
BRANCH   7   9
HETATM    9  C7  UNL     1      23.601   4.850  48.678  1.00  0.00     0.144 A 
HETATM   10  C4  UNL     1      23.195   3.540  48.951  1.00  0.00     0.041 A 
HETATM   11  C3  UNL     1      23.816   2.925  50.146  1.00  0.00     0.053 C 
HETATM   12  C5  UNL     1      22.267   2.914  48.105  1.00  0.00     0.072 A 
HETATM   13  C2  UNL     1      23.299   1.971  50.937  1.00  0.00     0.082 C 
HETATM   14  C24 UNL     1      21.994   1.329  50.785  1.00  0.00     0.245 C 
HETATM   15  C23 UNL     1      21.637   0.942  49.405  1.00  0.00     0.017 C 
HETATM   16  C22 UNL     1      21.718   1.544  48.224  1.00  0.00     0.031 C 
HETATM   17  N1  UNL     1      21.757   3.553  47.029  1.00  0.00    -0.241 NA
HETATM   18  C6  UNL     1      22.179   4.829  46.797  1.00  0.00     0.236 A 
HETATM   19  N2  UNL     1      23.078   5.463  47.601  1.00  0.00    -0.223 NA
BRANCH  13  20
HETATM   20  O1  UNL     1      24.282   1.765  51.892  1.00  0.00    -0.357 OA
HETATM   21  C1  UNL     1      24.287   2.595  53.033  1.00  0.00     0.209 C 
ENDBRANCH  13  20
BRANCH  14  22
HETATM   22  O3  UNL     1      21.871   0.218  51.618  1.00  0.00    -0.183 OA
HETATM   23  F1  UNL     1      20.592  -0.156  51.683  1.00  0.00    -0.047 F 
ENDBRANCH  14  22
ENDBRANCH   7   9
ENDBRANCH   1   7
BRANCH   4  24
HETATM   24  N4  UNL     1      29.748   6.626  47.646  1.00  0.00    -0.309 N 
HETATM   25  C13 UNL     1      30.908   5.837  47.510  1.00  0.00     0.325 C 
HETATM   26  O2  UNL     1      30.899   4.646  47.841  1.00  0.00    -0.247 OA
HETATM   27  N5  UNL     1      32.148   6.302  47.006  1.00  0.00    -0.309 N 
HETATM   28  H12 UNL     1      32.222   7.319  46.703  1.00  0.00     0.170 HD
HETATM   29  H11 UNL     1      29.918   7.604  47.326  1.00  0.00     0.170 HD
BRANCH  27  30
HETATM   30  C14 UNL     1      33.168   5.282  46.977  1.00  0.00     0.036 A 
HETATM   31  C15 UNL     1      33.426   4.846  45.679  1.00  0.00     0.029 A 
HETATM   32  C16 UNL     1      34.382   3.862  45.451  1.00  0.00     0.002 A 
HETATM   33  C17 UNL     1      35.036   3.359  46.540  1.00  0.00     0.000 A 
HETATM   34  C18 UNL     1      34.788   3.783  47.830  1.00  0.00     0.002 A 
HETATM   35  C19 UNL     1      33.844   4.757  48.060  1.00  0.00     0.029 A 
ENDBRANCH  27  30
ENDBRANCH   4  24
TORSDOF 6
ENDMDL
MODEL 2
REMARK VINA RESULT:      -9.1      3.788      6.245
REMARK  6 active torsions:
REMARK  status: ('A' for Active; 'I' for Inactive)
REMARK    1  A    between atoms: O1_2  and  C2_3 
REMARK    2  A    between atoms: C7_10  and  N3_11 
REMARK    3  A    between atoms: N3_11  and  C9_13 
REMARK    4  A    between atoms: C12_16  and  N4_17 
REMARK       I    between atoms: N4_17  and  C13_18 
REMARK       I    between atoms: C13_18  and  N5_20 
REMARK    5  A    between atoms: N5_20  and  C14_21 
REMARK    6  A    between atoms: C24_31  and  O3_32 
ROOT
HETATM    1  C9  UNL     1      22.876   2.458  51.189  1.00  0.00     0.035 A 
HETATM    2  C10 UNL     1      22.740   3.472  52.107  1.00  0.00     0.032 A 
HETATM    3  C11 UNL     1      23.543   4.588  52.010  1.00  0.00     0.032 A 
HETATM    4  C12 UNL     1      24.497   4.782  51.045  1.00  0.00     0.036 A 
HETATM    5  C20 UNL     1      24.617   3.758  50.136  1.00  0.00     0.032 A 
HETATM    6  C21 UNL     1      23.827   2.632  50.209  1.00  0.00     0.032 A 
ENDROOT
BRANCH   1   7
HETATM    7  N3  UNL     1      22.076   1.283  51.237  1.00  0.00    -0.335 N 
HETATM    8  C8  UNL     1      21.611   0.675  50.004  1.00  0.00     0.158 C 
BRANCH   7   9
HETATM    9  C7  UNL     1      21.755   0.735  52.521  1.00  0.00     0.144 A 
HETATM   10  C4  UNL     1      22.768   0.055  53.205  1.00  0.00     0.041 A 
HETATM   11  C3  UNL     1      24.063  -0.024  52.493  1.00  0.00     0.053 C 
HETATM   12  C5  UNL     1      22.500  -0.493  54.470  1.00  0.00     0.072 A 
HETATM   13  C2  UNL     1      25.288  -0.121  53.034  1.00  0.00     0.082 C 
HETATM   14  C24 UNL     1      25.608  -0.166  54.460  1.00  0.00     0.245 C 
HETATM   15  C23 UNL     1      24.742  -1.042  55.274  1.00  0.00     0.017 C 
HETATM   16  C22 UNL     1      23.431  -1.242  55.343  1.00  0.00     0.031 C 
HETATM   17  N1  UNL     1      21.281  -0.375  55.040  1.00  0.00    -0.241 NA
HETATM   18  C6  UNL     1      20.321   0.294  54.341  1.00  0.00     0.236 A 
HETATM   19  N2  UNL     1      20.550   0.837  53.112  1.00  0.00    -0.223 NA
BRANCH  13  20
HETATM   20  O1  UNL     1      26.132  -0.163  51.934  1.00  0.00    -0.357 OA
HETATM   21  C1  UNL     1      26.836   1.010  51.589  1.00  0.00     0.209 C 
ENDBRANCH  13  20
BRANCH  14  22
HETATM   22  O3  UNL     1      26.941  -0.514  54.673  1.00  0.00    -0.183 OA
HETATM   23  F1  UNL     1      27.607   0.534  55.163  1.00  0.00    -0.047 F 
ENDBRANCH  14  22
ENDBRANCH   7   9
ENDBRANCH   1   7
BRANCH   4  24
HETATM   24  N4  UNL     1      25.349   5.902  50.893  1.00  0.00    -0.309 N 
HETATM   25  C13 UNL     1      25.998   6.371  49.733  1.00  0.00     0.325 C 
HETATM   26  O2  UNL     1      25.859   5.781  48.656  1.00  0.00    -0.247 OA
HETATM   27  N5  UNL     1      26.838   7.511  49.680  1.00  0.00    -0.309 N 
HETATM   28  H12 UNL     1      26.998   8.063  50.575  1.00  0.00     0.170 HD
HETATM   29  H11 UNL     1      25.567   6.506  51.716  1.00  0.00     0.170 HD
BRANCH  27  30
HETATM   30  C14 UNL     1      27.372   7.762  48.364  1.00  0.00     0.036 A 
HETATM   31  C15 UNL     1      28.653   7.236  48.215  1.00  0.00     0.029 A 
HETATM   32  C16 UNL     1      29.332   7.380  47.010  1.00  0.00     0.002 A 
HETATM   33  C17 UNL     1      28.691   8.049  46.006  1.00  0.00     0.000 A 
HETATM   34  C18 UNL     1      27.422   8.575  46.142  1.00  0.00     0.002 A 
HETATM   35  C19 UNL     1      26.747   8.435  47.332  1.00  0.00     0.029 A 
ENDBRANCH  27  30
ENDBRANCH   4  24
TORSDOF 6
ENDMDL
MODEL 3
REMARK VINA RESULT:      -8.8      1.693      2.133
REMARK  6 active torsions:
REMARK  status: ('A' for Active; 'I' for Inactive)
REMARK    1  A    between atoms: O1_2  and  C2_3 
REMARK    2  A    between atoms: C7_10  and  N3_11 
REMARK    3  A    between atoms: N3_11  and  C9_13 
REMARK    4  A    between atoms: C12_16  and  N4_17 
REMARK       I    between atoms: N4_17  and  C13_18 
REMARK       I    between atoms: C13_18  and  N5_20 
REMARK    5  A    between atoms: N5_20  and  C14_21 
REMARK    6  A    between atoms: C24_31  and  O3_32 
ROOT
HETATM    1  C9  UNL     1      25.168   5.068  50.115  1.00  0.00     0.035 A 
HETATM    2  C10 UNL     1      26.091   4.133  49.712  1.00  0.00     0.032 A 
HETATM    3  C11 UNL     1      27.175   4.530  48.957  1.00  0.00     0.032 A 
HETATM    4  C12 UNL     1      27.420   5.819  48.560  1.00  0.00     0.036 A 
HETATM    5  C20 UNL     1      26.486   6.739  48.973  1.00  0.00     0.032 A 
HETATM    6  C21 UNL     1      25.394   6.370  49.729  1.00  0.00     0.032 A 
ENDROOT
BRANCH   1   7
HETATM    7  N3  UNL     1      24.031   4.720  50.894  1.00  0.00    -0.335 N 
HETATM    8  C8  UNL     1      23.964   5.113  52.290  1.00  0.00     0.158 C 
BRANCH   7   9
HETATM    9  C7  UNL     1      22.977   3.981  50.263  1.00  0.00     0.144 A 
HETATM   10  C4  UNL     1      22.758   2.670  50.696  1.00  0.00     0.041 A 
HETATM   11  C3  UNL     1      23.670   2.199  51.762  1.00  0.00     0.053 C 
HETATM   12  C5  UNL     1      21.732   1.912  50.111  1.00  0.00     0.072 A 
HETATM   13  C2  UNL     1      23.421   1.273  52.702  1.00  0.00     0.082 C 
HETATM   14  C24 UNL     1      22.176   0.525  52.876  1.00  0.00     0.245 C 
HETATM   15  C23 UNL     1      21.572   0.005  51.632  1.00  0.00     0.017 C 
HETATM   16  C22 UNL     1      21.346   0.518  50.429  1.00  0.00     0.031 C 
HETATM   17  N1  UNL     1      20.950   2.426  49.135  1.00  0.00    -0.241 NA
HETATM   18  C6  UNL     1      21.196   3.707  48.741  1.00  0.00     0.236 A 
HETATM   19  N2  UNL     1      22.185   4.468  49.290  1.00  0.00    -0.223 NA
BRANCH  13  20
HETATM   20  O1  UNL     1      24.598   1.217  53.431  1.00  0.00    -0.357 OA
HETATM   21  C1  UNL     1      25.650   2.084  53.067  1.00  0.00     0.209 C 
ENDBRANCH  13  20
BRANCH  14  22
HETATM   22  O3  UNL     1      22.334  -0.523  53.780  1.00  0.00    -0.183 OA
HETATM   23  F1  UNL     1      21.906  -0.145  54.987  1.00  0.00    -0.047 F 
ENDBRANCH  14  22
ENDBRANCH   7   9
ENDBRANCH   1   7
BRANCH   4  24
HETATM   24  N4  UNL     1      28.510   6.287  47.788  1.00  0.00    -0.309 N 
HETATM   25  C13 UNL     1      29.891   6.116  48.010  1.00  0.00     0.325 C 
HETATM   26  O2  UNL     1      30.294   5.482  48.993  1.00  0.00    -0.247 OA
HETATM   27  N5  UNL     1      30.915   6.626  47.175  1.00  0.00    -0.309 N 
HETATM   28  H12 UNL     1      30.634   7.180  46.311  1.00  0.00     0.170 HD
HETATM   29  H11 UNL     1      28.334   6.843  46.922  1.00  0.00     0.170 HD
BRANCH  27  30
HETATM   30  C14 UNL     1      32.242   6.302  47.639  1.00  0.00     0.036 A 
HETATM   31  C15 UNL     1      32.920   7.430  48.096  1.00  0.00     0.029 A 
HETATM   32  C16 UNL     1      34.217   7.314  48.583  1.00  0.00     0.002 A 
HETATM   33  C17 UNL     1      34.776   6.067  48.590  1.00  0.00     0.000 A 
HETATM   34  C18 UNL     1      34.113   4.943  48.140  1.00  0.00     0.002 A 
HETATM   35  C19 UNL     1      32.830   5.052  47.657  1.00  0.00     0.029 A 
ENDBRANCH  27  30
ENDBRANCH   4  24
TORSDOF 6
ENDMDL
MODEL 4
REMARK VINA RESULT:      -8.7      3.653     10.091
REMARK  6 active torsions:
REMARK  status: ('A' for Active; 'I' for Inactive)
REMARK    1  A    between atoms: O1_2  and  C2_3 
REMARK    2  A    between atoms: C7_10  and  N3_11 
REMARK    3  A    between atoms: N3_11  and  C9_13 
REMARK    4  A    between atoms: C12_16  and  N4_17 
REMARK       I    between atoms: N4_17  and  C13_18 
REMARK       I    between atoms: C13_18  and  N5_20 
REMARK    5  A    between atoms: N5_20  and  C14_21 
REMARK    6  A    between atoms: C24_31  and  O3_32 
ROOT
HETATM    1  C9  UNL     1      31.176   8.167  46.844  1.00  0.00     0.035 A 
HETATM    2  C10 UNL     1      30.038   7.654  46.267  1.00  0.00     0.032 A 
HETATM    3  C11 UNL     1      28.921   7.438  47.046  1.00  0.00     0.032 A 
HETATM    4  C12 UNL     1      28.843   7.699  48.390  1.00  0.00     0.036 A 
HETATM    5  C20 UNL     1      29.990   8.211  48.947  1.00  0.00     0.032 A 
HETATM    6  C21 UNL     1      31.121   8.437  48.192  1.00  0.00     0.032 A 
ENDROOT
BRANCH   1   7
HETATM    7  N3  UNL     1      32.358   8.411  46.093  1.00  0.00    -0.335 N 
HETATM    8  C8  UNL     1      33.162   9.588  46.373  1.00  0.00     0.158 C 
BRANCH   7   9
HETATM    9  C7  UNL     1      32.719   7.472  45.072  1.00  0.00     0.144 A 
HETATM   10  C4  UNL     1      33.560   6.415  45.435  1.00  0.00     0.041 A 
HETATM   11  C3  UNL     1      33.990   6.412  46.851  1.00  0.00     0.053 C 
HETATM   12  C5  UNL     1      33.935   5.467  44.470  1.00  0.00     0.072 A 
HETATM   13  C2  UNL     1      34.325   5.349  47.601  1.00  0.00     0.082 C 
HETATM   14  C24 UNL     1      34.335   3.951  47.173  1.00  0.00     0.245 C 
HETATM   15  C23 UNL     1      34.923   3.702  45.841  1.00  0.00     0.017 C 
HETATM   16  C22 UNL     1      34.810   4.288  44.655  1.00  0.00     0.031 C 
HETATM   17  N1  UNL     1      33.496   5.556  43.194  1.00  0.00    -0.241 NA
HETATM   18  C6  UNL     1      32.678   6.601  42.881  1.00  0.00     0.236 A 
HETATM   19  N2  UNL     1      32.298   7.536  43.796  1.00  0.00    -0.223 NA
BRANCH  13  20
HETATM   20  O1  UNL     1      34.644   5.901  48.832  1.00  0.00    -0.357 OA
HETATM   21  C1  UNL     1      36.005   6.120  49.133  1.00  0.00     0.209 C 
ENDBRANCH  13  20
BRANCH  14  22
HETATM   22  O3  UNL     1      34.963   3.134  48.111  1.00  0.00    -0.183 OA
HETATM   23  F1  UNL     1      34.140   2.147  48.471  1.00  0.00    -0.047 F 
ENDBRANCH  14  22
ENDBRANCH   7   9
ENDBRANCH   1   7
BRANCH   4  24
HETATM   24  N4  UNL     1      27.729   7.500  49.239  1.00  0.00    -0.309 N 
HETATM   25  C13 UNL     1      26.826   6.417  49.278  1.00  0.00     0.325 C 
HETATM   26  O2  UNL     1      26.952   5.468  48.496  1.00  0.00    -0.247 OA
HETATM   27  N5  UNL     1      25.733   6.307  50.172  1.00  0.00    -0.309 N 
HETATM   28  H12 UNL     1      25.570   7.092  50.872  1.00  0.00     0.170 HD
HETATM   29  H11 UNL     1      27.488   8.216  49.959  1.00  0.00     0.170 HD
BRANCH  27  30
HETATM   30  C14 UNL     1      24.973   5.094  49.993  1.00  0.00     0.036 A 
HETATM   31  C15 UNL     1      23.963   5.252  49.045  1.00  0.00     0.029 A 
HETATM   32  C16 UNL     1      23.124   4.187  48.737  1.00  0.00     0.002 A 
HETATM   33  C17 UNL     1      23.336   3.009  49.396  1.00  0.00     0.000 A 
HETATM   34  C18 UNL     1      24.332   2.843  50.337  1.00  0.00     0.002 A 
HETATM   35  C19 UNL     1      25.166   3.892  50.645  1.00  0.00     0.029 A 
ENDBRANCH  27  30
ENDBRANCH   4  24
TORSDOF 6
ENDMDL
MODEL 5
REMARK VINA RESULT:      -8.7      2.449      3.222
REMARK  6 active torsions:
REMARK  status: ('A' for Active; 'I' for Inactive)
REMARK    1  A    between atoms: O1_2  and  C2_3 
REMARK    2  A    between atoms: C7_10  and  N3_11 
REMARK    3  A    between atoms: N3_11  and  C9_13 
REMARK    4  A    between atoms: C12_16  and  N4_17 
REMARK       I    between atoms: N4_17  and  C13_18 
REMARK       I    between atoms: C13_18  and  N5_20 
REMARK    5  A    between atoms: N5_20  and  C14_21 
REMARK    6  A    between atoms: C24_31  and  O3_32 
ROOT
HETATM    1  C9  UNL     1      25.757   5.662  49.800  1.00  0.00     0.035 A 
HETATM    2  C10 UNL     1      26.498   4.599  49.340  1.00  0.00     0.032 A 
HETATM    3  C11 UNL     1      27.651   4.836  48.622  1.00  0.00     0.032 A 
HETATM    4  C12 UNL     1      28.139   6.080  48.317  1.00  0.00     0.036 A 
HETATM    5  C20 UNL     1      27.385   7.129  48.786  1.00  0.00     0.032 A 
HETATM    6  C21 UNL     1      26.229   6.921  49.507  1.00  0.00     0.032 A 
ENDROOT
BRANCH   1   7
HETATM    7  N3  UNL     1      24.560   5.481  50.546  1.00  0.00    -0.335 N 
HETATM    8  C8  UNL     1      23.937   6.617  51.199  1.00  0.00     0.158 C 
BRANCH   7   9
HETATM    9  C7  UNL     1      24.004   4.162  50.626  1.00  0.00     0.144 A 
HETATM   10  C4  UNL     1      23.075   3.792  49.648  1.00  0.00     0.041 A 
HETATM   11  C3  UNL     1      22.768   4.837  48.646  1.00  0.00     0.053 C 
HETATM   12  C5  UNL     1      22.510   2.508  49.683  1.00  0.00     0.072 A 
HETATM   13  C2  UNL     1      22.371   4.659  47.376  1.00  0.00     0.082 C 
HETATM   14  C24 UNL     1      22.157   3.378  46.703  1.00  0.00     0.245 C 
HETATM   15  C23 UNL     1      21.434   2.363  47.493  1.00  0.00     0.017 C 
HETATM   16  C22 UNL     1      21.517   1.933  48.747  1.00  0.00     0.031 C 
HETATM   17  N1  UNL     1      22.847   1.620  50.645  1.00  0.00    -0.241 NA
HETATM   18  C6  UNL     1      23.756   2.019  51.579  1.00  0.00     0.236 A 
HETATM   19  N2  UNL     1      24.322   3.259  51.571  1.00  0.00    -0.223 NA
BRANCH  13  20
HETATM   20  O1  UNL     1      22.226   5.950  46.891  1.00  0.00    -0.357 OA
HETATM   21  C1  UNL     1      22.755   7.012  47.655  1.00  0.00     0.209 C 
ENDBRANCH  13  20
BRANCH  14  22
HETATM   22  O3  UNL     1      21.515   3.547  45.477  1.00  0.00    -0.183 OA
HETATM   23  F1  UNL     1      20.196   3.629  45.668  1.00  0.00    -0.047 F 
ENDBRANCH  14  22
ENDBRANCH   7   9
ENDBRANCH   1   7
BRANCH   4  24
HETATM   24  N4  UNL     1      29.312   6.386  47.587  1.00  0.00    -0.309 N 
HETATM   25  C13 UNL     1      30.579   5.770  47.646  1.00  0.00     0.325 C 
HETATM   26  O2  UNL     1      30.780   4.825  48.416  1.00  0.00    -0.247 OA
HETATM   27  N5  UNL     1      31.701   6.151  46.869  1.00  0.00    -0.309 N 
HETATM   28  H12 UNL     1      31.593   6.959  46.185  1.00  0.00     0.170 HD
HETATM   29  H11 UNL     1      29.305   7.165  46.891  1.00  0.00     0.170 HD
BRANCH  27  30
HETATM   30  C14 UNL     1      32.872   5.350  47.132  1.00  0.00     0.036 A 
HETATM   31  C15 UNL     1      32.950   4.252  46.278  1.00  0.00     0.029 A 
HETATM   32  C16 UNL     1      34.014   3.362  46.382  1.00  0.00     0.002 A 
HETATM   33  C17 UNL     1      34.952   3.616  47.341  1.00  0.00     0.000 A 
HETATM   34  C18 UNL     1      34.884   4.700  48.193  1.00  0.00     0.002 A 
HETATM   35  C19 UNL     1      33.835   5.583  48.094  1.00  0.00     0.029 A 
ENDBRANCH  27  30
ENDBRANCH   4  24
TORSDOF 6
ENDMDL
MODEL 6
REMARK VINA RESULT:      -8.6      4.071      5.344
REMARK  6 active torsions:
REMARK  status: ('A' for Active; 'I' for Inactive)
REMARK    1  A    between atoms: O1_2  and  C2_3 
REMARK    2  A    between atoms: C7_10  and  N3_11 
REMARK    3  A    between atoms: N3_11  and  C9_13 
REMARK    4  A    between atoms: C12_16  and  N4_17 
REMARK       I    between atoms: N4_17  and  C13_18 
REMARK       I    between atoms: C13_18  and  N5_20 
REMARK    5  A    between atoms: N5_20  and  C14_21 
REMARK    6  A    between atoms: C24_31  and  O3_32 
ROOT
HETATM    1  C9  UNL     1      23.461   4.193  49.863  1.00  0.00     0.035 A 
HETATM    2  C10 UNL     1      24.715   4.277  49.307  1.00  0.00     0.032 A 
HETATM    3  C11 UNL     1      25.538   5.331  49.644  1.00  0.00     0.032 A 
HETATM    4  C12 UNL     1      25.203   6.336  50.514  1.00  0.00     0.036 A 
HETATM    5  C20 UNL     1      23.946   6.233  51.060  1.00  0.00     0.032 A 
HETATM    6  C21 UNL     1      23.104   5.190  50.741  1.00  0.00     0.032 A 
ENDROOT
BRANCH   1   7
HETATM    7  N3  UNL     1      22.568   3.130  49.554  1.00  0.00    -0.335 N 
HETATM    8  C8  UNL     1      22.529   2.587  48.208  1.00  0.00     0.158 C 
BRANCH   7   9
HETATM    9  C7  UNL     1      21.728   2.626  50.600  1.00  0.00     0.144 A 
HETATM   10  C4  UNL     1      22.293   1.720  51.503  1.00  0.00     0.041 A 
HETATM   11  C3  UNL     1      23.711   1.381  51.248  1.00  0.00     0.053 C 
HETATM   12  C5  UNL     1      21.509   1.206  52.548  1.00  0.00     0.072 A 
HETATM   13  C2  UNL     1      24.635   1.002  52.146  1.00  0.00     0.082 C 
HETATM   14  C24 UNL     1      24.434   0.844  53.586  1.00  0.00     0.245 C 
HETATM   15  C23 UNL     1      23.189   0.155  53.979  1.00  0.00     0.017 C 
HETATM   16  C22 UNL     1      21.921   0.245  53.596  1.00  0.00     0.031 C 
HETATM   17  N1  UNL     1      20.216   1.570  52.698  1.00  0.00    -0.241 NA
HETATM   18  C6  UNL     1      19.703   2.455  51.797  1.00  0.00     0.236 A 
HETATM   19  N2  UNL     1      20.439   2.972  50.773  1.00  0.00    -0.223 NA
BRANCH  13  20
HETATM   20  O1  UNL     1      25.777   0.810  51.384  1.00  0.00    -0.357 OA
HETATM   21  C1  UNL     1      26.688   1.880  51.267  1.00  0.00     0.209 C 
ENDBRANCH  13  20
BRANCH  14  22
HETATM   22  O3  UNL     1      25.519   0.206  54.185  1.00  0.00    -0.183 OA
HETATM   23  F1  UNL     1      25.086  -0.602  55.156  1.00  0.00    -0.047 F 
ENDBRANCH  14  22
ENDBRANCH   7   9
ENDBRANCH   1   7
BRANCH   4  24
HETATM   24  N4  UNL     1      26.001   7.439  50.899  1.00  0.00    -0.309 N 
HETATM   25  C13 UNL     1      26.818   8.264  50.099  1.00  0.00     0.325 C 
HETATM   26  O2  UNL     1      26.908   8.065  48.882  1.00  0.00    -0.247 OA
HETATM   27  N5  UNL     1      27.585   9.353  50.580  1.00  0.00    -0.309 N 
HETATM   28  H12 UNL     1      27.551   9.577  51.619  1.00  0.00     0.170 HD
HETATM   29  H11 UNL     1      26.033   7.735  51.900  1.00  0.00     0.170 HD
BRANCH  27  30
HETATM   30  C14 UNL     1      28.329  10.026  49.542  1.00  0.00     0.036 A 
HETATM   31  C15 UNL     1      29.630   9.538  49.439  1.00  0.00     0.029 A 
HETATM   32  C16 UNL     1      30.500  10.066  48.492  1.00  0.00     0.002 A 
HETATM   33  C17 UNL     1      30.024  11.062  47.689  1.00  0.00     0.000 A 
HETATM   34  C18 UNL     1      28.737  11.554  47.783  1.00  0.00     0.002 A 
HETATM   35  C19 UNL     1      27.872  11.035  48.717  1.00  0.00     0.029 A 
ENDBRANCH  27  30
ENDBRANCH   4  24
TORSDOF 6
ENDMDL
MODEL 7
REMARK VINA RESULT:      -8.6      4.870      9.675
REMARK  6 active torsions:
REMARK  status: ('A' for Active; 'I' for Inactive)
REMARK    1  A    between atoms: O1_2  and  C2_3 
REMARK    2  A    between atoms: C7_10  and  N3_11 
REMARK    3  A    between atoms: N3_11  and  C9_13 
REMARK    4  A    between atoms: C12_16  and  N4_17 
REMARK       I    between atoms: N4_17  and  C13_18 
REMARK       I    between atoms: C13_18  and  N5_20 
REMARK    5  A    between atoms: N5_20  and  C14_21 
REMARK    6  A    between atoms: C24_31  and  O3_32 
ROOT
HETATM    1  C9  UNL     1      27.192   7.114  47.792  1.00  0.00     0.035 A 
HETATM    2  C10 UNL     1      27.957   6.027  48.141  1.00  0.00     0.032 A 
HETATM    3  C11 UNL     1      27.372   4.972  48.809  1.00  0.00     0.032 A 
HETATM    4  C12 UNL     1      26.050   4.910  49.166  1.00  0.00     0.036 A 
HETATM    5  C20 UNL     1      25.302   6.006  48.808  1.00  0.00     0.032 A 
HETATM    6  C21 UNL     1      25.861   7.074  48.139  1.00  0.00     0.032 A 
ENDROOT
BRANCH   1   7
HETATM    7  N3  UNL     1      27.738   8.231  47.102  1.00  0.00    -0.335 N 
HETATM    8  C8  UNL     1      28.447   8.033  45.851  1.00  0.00     0.158 C 
BRANCH   7   9
HETATM    9  C7  UNL     1      27.564   9.533  47.677  1.00  0.00     0.144 A 
HETATM   10  C4  UNL     1      28.713  10.215  48.091  1.00  0.00     0.041 A 
HETATM   11  C3  UNL     1      29.984   9.483  47.892  1.00  0.00     0.053 C 
HETATM   12  C5  UNL     1      28.592  11.495  48.653  1.00  0.00     0.072 A 
HETATM   13  C2  UNL     1      31.205  10.005  47.693  1.00  0.00     0.082 C 
HETATM   14  C24 UNL     1      31.543  11.427  47.628  1.00  0.00     0.245 C 
HETATM   15  C23 UNL     1      30.909  12.274  48.657  1.00  0.00     0.017 C 
HETATM   16  C22 UNL     1      29.679  12.370  49.149  1.00  0.00     0.031 C 
HETATM   17  N1  UNL     1      27.384  12.083  48.802  1.00  0.00    -0.241 NA
HETATM   18  C6  UNL     1      26.289  11.385  48.387  1.00  0.00     0.236 A 
HETATM   19  N2  UNL     1      26.375  10.141  47.837  1.00  0.00    -0.223 NA
BRANCH  13  20
HETATM   20  O1  UNL     1      32.024   8.893  47.569  1.00  0.00    -0.357 OA
HETATM   21  C1  UNL     1      32.369   8.186  48.740  1.00  0.00     0.209 C 
ENDBRANCH  13  20
BRANCH  14  22
HETATM   22  O3  UNL     1      32.922  11.625  47.658  1.00  0.00    -0.183 OA
HETATM   23  F1  UNL     1      33.390  11.724  46.412  1.00  0.00    -0.047 F 
ENDBRANCH  14  22
ENDBRANCH   7   9
ENDBRANCH   1   7
BRANCH   4  24
HETATM   24  N4  UNL     1      25.394   3.858  49.849  1.00  0.00    -0.309 N 
HETATM   25  C13 UNL     1      25.925   2.933  50.770  1.00  0.00     0.325 C 
HETATM   26  O2  UNL     1      27.121   2.973  51.080  1.00  0.00    -0.247 OA
HETATM   27  N5  UNL     1      25.183   1.908  51.406  1.00  0.00    -0.309 N 
HETATM   28  H12 UNL     1      24.147   1.820  51.183  1.00  0.00     0.170 HD
HETATM   29  H11 UNL     1      24.375   3.692  49.694  1.00  0.00     0.170 HD
BRANCH  27  30
HETATM   30  C14 UNL     1      25.978   1.103  52.302  1.00  0.00     0.036 A 
HETATM   31  C15 UNL     1      25.899   1.559  53.616  1.00  0.00     0.029 A 
HETATM   32  C16 UNL     1      26.600   0.908  54.624  1.00  0.00     0.002 A 
HETATM   33  C17 UNL     1      27.352  -0.175  54.266  1.00  0.00     0.000 A 
HETATM   34  C18 UNL     1      27.439  -0.635  52.968  1.00  0.00     0.002 A 
HETATM   35  C19 UNL     1      26.746   0.005  51.967  1.00  0.00     0.029 A 
ENDBRANCH  27  30
ENDBRANCH   4  24
TORSDOF 6
ENDMDL
MODEL 8
REMARK VINA RESULT:      -8.4      3.554      4.692
REMARK  6 active torsions:
REMARK  status: ('A' for Active; 'I' for Inactive)
REMARK    1  A    between atoms: O1_2  and  C2_3 
REMARK    2  A    between atoms: C7_10  and  N3_11 
REMARK    3  A    between atoms: N3_11  and  C9_13 
REMARK    4  A    between atoms: C12_16  and  N4_17 
REMARK       I    between atoms: N4_17  and  C13_18 
REMARK       I    between atoms: C13_18  and  N5_20 
REMARK    5  A    between atoms: N5_20  and  C14_21 
REMARK    6  A    between atoms: C24_31  and  O3_32 
ROOT
HETATM    1  C9  UNL     1      23.604   6.030  49.480  1.00  0.00     0.035 A 
HETATM    2  C10 UNL     1      24.377   6.526  48.458  1.00  0.00     0.032 A 
HETATM    3  C11 UNL     1      25.419   7.381  48.749  1.00  0.00     0.032 A 
HETATM    4  C12 UNL     1      25.763   7.793  50.011  1.00  0.00     0.036 A 
HETATM    5  C20 UNL     1      24.978   7.285  51.019  1.00  0.00     0.032 A 
HETATM    6  C21 UNL     1      23.931   6.428  50.756  1.00  0.00     0.032 A 
ENDROOT
BRANCH   1   7
HETATM    7  N3  UNL     1      22.517   5.144  49.243  1.00  0.00    -0.335 N 
HETATM    8  C8  UNL     1      21.898   5.095  47.930  1.00  0.00     0.158 C 
BRANCH   7   9
HETATM    9  C7  UNL     1      22.065   4.320  50.325  1.00  0.00     0.144 A 
HETATM   10  C4  UNL     1      22.925   3.311  50.771  1.00  0.00     0.041 A 
HETATM   11  C3  UNL     1      24.210   3.213  50.042  1.00  0.00     0.053 C 
HETATM   12  C5  UNL     1      22.528   2.484  51.833  1.00  0.00     0.072 A 
HETATM   13  C2  UNL     1      25.383   2.759  50.512  1.00  0.00     0.082 C 
HETATM   14  C24 UNL     1      25.645   2.259  51.861  1.00  0.00     0.245 C 
HETATM   15  C23 UNL     1      24.616   1.353  52.409  1.00  0.00     0.017 C 
HETATM   16  C22 UNL     1      23.289   1.370  52.442  1.00  0.00     0.031 C 
HETATM   17  N1  UNL     1      21.328   2.644  52.435  1.00  0.00    -0.241 NA
HETATM   18  C6  UNL     1      20.519   3.639  51.970  1.00  0.00     0.236 A 
HETATM   19  N2  UNL     1      20.877   4.458  50.942  1.00  0.00    -0.223 NA
BRANCH  13  20
HETATM   20  O1  UNL     1      26.242   2.883  49.431  1.00  0.00    -0.357 OA
HETATM   21  C1  UNL     1      26.976   4.081  49.296  1.00  0.00     0.209 C 
ENDBRANCH  13  20
BRANCH  14  22
HETATM   22  O3  UNL     1      26.891   1.641  51.943  1.00  0.00    -0.183 OA
HETATM   23  F1  UNL     1      26.823   0.420  51.408  1.00  0.00    -0.047 F 
ENDBRANCH  14  22
ENDBRANCH   7   9
ENDBRANCH   1   7
BRANCH   4  24
HETATM   24  N4  UNL     1      26.817   8.665  50.372  1.00  0.00    -0.309 N 
HETATM   25  C13 UNL     1      28.024   8.926  49.691  1.00  0.00     0.325 C 
HETATM   26  O2  UNL     1      28.277   8.355  48.624  1.00  0.00    -0.247 OA
HETATM   27  N5  UNL     1      29.026   9.823  50.136  1.00  0.00    -0.309 N 
HETATM   28  H12 UNL     1      28.868  10.346  51.048  1.00  0.00     0.170 HD
HETATM   29  H11 UNL     1      26.754   9.222  51.252  1.00  0.00     0.170 HD
BRANCH  27  30
HETATM   30  C14 UNL     1      30.158   9.896  49.244  1.00  0.00     0.036 A 
HETATM   31  C15 UNL     1      30.225  11.125  48.592  1.00  0.00     0.029 A 
HETATM   32  C16 UNL     1      31.252  11.382  47.690  1.00  0.00     0.002 A 
HETATM   33  C17 UNL     1      32.168  10.389  47.484  1.00  0.00     0.000 A 
HETATM   34  C18 UNL     1      32.111   9.168  48.124  1.00  0.00     0.002 A 
HETATM   35  C19 UNL     1      31.098   8.909  49.017  1.00  0.00     0.029 A 
ENDBRANCH  27  30
ENDBRANCH   4  24
TORSDOF 6
ENDMDL
MODEL 9
REMARK VINA RESULT:      -8.4      5.243      9.301
REMARK  6 active torsions:
REMARK  status: ('A' for Active; 'I' for Inactive)
REMARK    1  A    between atoms: O1_2  and  C2_3 
REMARK    2  A    between atoms: C7_10  and  N3_11 
REMARK    3  A    between atoms: N3_11  and  C9_13 
REMARK    4  A    between atoms: C12_16  and  N4_17 
REMARK       I    between atoms: N4_17  and  C13_18 
REMARK       I    between atoms: C13_18  and  N5_20 
REMARK    5  A    between atoms: N5_20  and  C14_21 
REMARK    6  A    between atoms: C24_31  and  O3_32 
ROOT
HETATM    1  C9  UNL     1      22.739   3.082  50.365  1.00  0.00     0.035 A 
HETATM    2  C10 UNL     1      22.286   1.974  49.690  1.00  0.00     0.032 A 
HETATM    3  C11 UNL     1      22.067   2.050  48.331  1.00  0.00     0.032 A 
HETATM    4  C12 UNL     1      22.269   3.172  47.569  1.00  0.00     0.036 A 
HETATM    5  C20 UNL     1      22.723   4.268  48.262  1.00  0.00     0.032 A 
HETATM    6  C21 UNL     1      22.950   4.220  49.621  1.00  0.00     0.032 A 
ENDROOT
BRANCH   1   7
HETATM    7  N3  UNL     1      22.984   3.065  51.766  1.00  0.00    -0.335 N 
HETATM    8  C8  UNL     1      23.049   4.313  52.504  1.00  0.00     0.158 C 
BRANCH   7   9
HETATM    9  C7  UNL     1      23.159   1.795  52.408  1.00  0.00     0.144 A 
HETATM   10  C4  UNL     1      24.447   1.251  52.423  1.00  0.00     0.041 A 
HETATM   11  C3  UNL     1      25.481   2.066  51.747  1.00  0.00     0.053 C 
HETATM   12  C5  UNL     1      24.667   0.013  53.046  1.00  0.00     0.072 A 
HETATM   13  C2  UNL     1      26.796   2.106  52.016  1.00  0.00     0.082 C 
HETATM   14  C24 UNL     1      27.495   1.343  53.050  1.00  0.00     0.245 C 
HETATM   15  C23 UNL     1      27.107  -0.078  53.158  1.00  0.00     0.017 C 
HETATM   16  C22 UNL     1      25.947  -0.723  53.165  1.00  0.00     0.031 C 
HETATM   17  N1  UNL     1      23.656  -0.665  53.634  1.00  0.00    -0.241 NA
HETATM   18  C6  UNL     1      22.416  -0.101  53.597  1.00  0.00     0.236 A 
HETATM   19  N2  UNL     1      22.171   1.099  53.000  1.00  0.00    -0.223 NA
BRANCH  13  20
HETATM   20  O1  UNL     1      27.294   3.019  51.100  1.00  0.00    -0.357 OA
HETATM   21  C1  UNL     1      26.532   3.285  49.943  1.00  0.00     0.209 C 
ENDBRANCH  13  20
BRANCH  14  22
HETATM   22  O3  UNL     1      28.878   1.430  52.901  1.00  0.00    -0.183 OA
HETATM   23  F1  UNL     1      29.479   0.719  53.858  1.00  0.00    -0.047 F 
ENDBRANCH  14  22
ENDBRANCH   7   9
ENDBRANCH   1   7
BRANCH   4  24
HETATM   24  N4  UNL     1      22.063   3.311  46.176  1.00  0.00    -0.309 N 
HETATM   25  C13 UNL     1      20.904   3.724  45.488  1.00  0.00     0.325 C 
HETATM   26  O2  UNL     1      19.879   4.023  46.111  1.00  0.00    -0.247 OA
HETATM   27  N5  UNL     1      20.794   3.833  44.080  1.00  0.00    -0.309 N 
HETATM   28  H12 UNL     1      21.642   3.590  43.486  1.00  0.00     0.170 HD
HETATM   29  H11 UNL     1      22.838   3.095  45.510  1.00  0.00     0.170 HD
BRANCH  27  30
HETATM   30  C14 UNL     1      19.493   4.278  43.645  1.00  0.00     0.036 A 
HETATM   31  C15 UNL     1      18.673   3.209  43.289  1.00  0.00     0.029 A 
HETATM   32  C16 UNL     1      17.377   3.443  42.842  1.00  0.00     0.002 A 
HETATM   33  C17 UNL     1      16.962   4.743  42.773  1.00  0.00     0.000 A 
HETATM   34  C18 UNL     1      17.766   5.809  43.122  1.00  0.00     0.002 A 
HETATM   35  C19 UNL     1      19.048   5.584  43.565  1.00  0.00     0.029 A 
ENDBRANCH  27  30
ENDBRANCH   4  24
TORSDOF 6
ENDMDL
