MODEL 1
REMARK VINA RESULT:      -6.9      0.000      0.000
REMARK  7 active torsions:
REMARK  status: ('A' for Active; 'I' for Inactive)
REMARK    1  A    between atoms: O1_2  and  C2_3 
REMARK    2  A    between atoms: C7_8  and  N1_9 
REMARK    3  A    between atoms: N1_9  and  C8_10 
REMARK    4  A    between atoms: C9_11  and  C10_12 
REMARK    5  A    between atoms: C10_12  and  N2_13 
REMARK    6  A    between atoms: N2_13  and  C11_14 
REMARK    7  A    between atoms: C16_19  and  O2_20 
ROOT
HETATM    1  C8  UNL     1      24.719   0.445  52.602  1.00  0.00     0.086 C 
HETATM    2  C9  UNL     1      23.735   1.348  52.742  1.00  0.00     0.010 C 
ENDROOT
BRANCH   2   3
HETATM    3  C10 UNL     1      22.535   1.501  51.854  1.00  0.00     0.148 C 
BRANCH   3   4
HETATM    4  N2  UNL     1      21.433   2.177  52.462  1.00  0.00    -0.384 N 
HETATM    5  H13 UNL     1      21.547   3.172  52.309  1.00  0.00     0.160 HD
BRANCH   4   6
HETATM    6  C11 UNL     1      20.712   1.035  52.998  1.00  0.00     0.062 A 
HETATM    7  C12 UNL     1      19.856   1.188  51.755  1.00  0.00     0.032 A 
HETATM    8  C13 UNL     1      18.718   0.431  51.297  1.00  0.00     0.002 A 
HETATM    9  C14 UNL     1      18.316  -0.633  52.125  1.00  0.00     0.003 A 
HETATM   10  C15 UNL     1      19.049  -0.826  53.269  1.00  0.00     0.039 A 
HETATM   11  C16 UNL     1      20.076   0.027  53.471  1.00  0.00     0.094 A 
BRANCH  11  12
HETATM   12  O2  UNL     1      21.044   0.136  54.533  1.00  0.00    -0.354 OA
HETATM   13  C17 UNL     1      21.840  -0.957  54.860  1.00  0.00     0.210 C 
ENDBRANCH  11  12
ENDBRANCH   4   6
ENDBRANCH   3   4
ENDBRANCH   2   3
BRANCH   1  14
HETATM   14  N1  UNL     1      25.723   0.573  53.629  1.00  0.00    -0.364 N 
HETATM   15  H8  UNL     1      25.719   1.207  54.457  1.00  0.00     0.165 HD
BRANCH  14  16
HETATM   16  C7  UNL     1      26.874  -0.283  53.484  1.00  0.00     0.065 A 
HETATM   17  C2  UNL     1      28.133   0.098  53.905  1.00  0.00     0.094 A 
HETATM   18  C3  UNL     1      29.185  -0.787  53.729  1.00  0.00     0.039 A 
HETATM   19  C4  UNL     1      29.043  -2.022  53.158  1.00  0.00     0.003 A 
HETATM   20  C5  UNL     1      27.798  -2.436  52.725  1.00  0.00     0.002 A 
HETATM   21  C6  UNL     1      26.765  -1.545  52.909  1.00  0.00     0.032 A 
BRANCH  17  22
HETATM   22  O1  UNL     1      28.292   1.349  54.486  1.00  0.00    -0.354 OA
HETATM   23  C1  UNL     1      28.663   2.436  53.634  1.00  0.00     0.210 C 
ENDBRANCH  17  22
ENDBRANCH  14  16
ENDBRANCH   1  14
TORSDOF 7
ENDMDL
MODEL 2
REMARK VINA RESULT:      -6.9      3.829      5.675
REMARK  7 active torsions:
REMARK  status: ('A' for Active; 'I' for Inactive)
REMARK    1  A    between atoms: O1_2  and  C2_3 
REMARK    2  A    between atoms: C7_8  and  N1_9 
REMARK    3  A    between atoms: N1_9  and  C8_10 
REMARK    4  A    between atoms: C9_11  and  C10_12 
REMARK    5  A    between atoms: C10_12  and  N2_13 
REMARK    6  A    between atoms: N2_13  and  C11_14 
REMARK    7  A    between atoms: C16_19  and  O2_20 
ROOT
HETATM    1  C8  UNL     1      25.553   1.129  52.270  1.00  0.00     0.086 C 
HETATM    2  C9  UNL     1      24.835   2.214  52.604  1.00  0.00     0.010 C 
ENDROOT
BRANCH   2   3
HETATM    3  C10 UNL     1      24.416   3.322  51.683  1.00  0.00     0.148 C 
BRANCH   3   4
HETATM    4  N2  UNL     1      24.430   2.976  50.298  1.00  0.00    -0.384 N 
HETATM    5  H13 UNL     1      24.249   1.982  50.216  1.00  0.00     0.160 HD
BRANCH   4   6
HETATM    6  C11 UNL     1      24.711   4.280  49.723  1.00  0.00     0.062 A 
HETATM    7  C12 UNL     1      26.121   3.741  49.576  1.00  0.00     0.032 A 
HETATM    8  C13 UNL     1      27.311   4.352  49.038  1.00  0.00     0.002 A 
HETATM    9  C14 UNL     1      27.163   5.668  48.564  1.00  0.00     0.003 A 
HETATM   10  C15 UNL     1      25.911   6.218  48.669  1.00  0.00     0.039 A 
HETATM   11  C16 UNL     1      24.958   5.432  49.215  1.00  0.00     0.094 A 
BRANCH  11  12
HETATM   12  O2  UNL     1      23.560   5.656  49.485  1.00  0.00    -0.354 OA
HETATM   13  C17 UNL     1      22.658   5.754  48.431  1.00  0.00     0.210 C 
ENDBRANCH  11  12
ENDBRANCH   4   6
ENDBRANCH   3   4
ENDBRANCH   2   3
BRANCH   1  14
HETATM   14  N1  UNL     1      25.781   0.261  53.399  1.00  0.00    -0.364 N 
HETATM   15  H8  UNL     1      25.156   0.090  54.215  1.00  0.00     0.165 HD
BRANCH  14  16
HETATM   16  C7  UNL     1      27.034  -0.453  53.391  1.00  0.00     0.065 A 
HETATM   17  C2  UNL     1      28.194   0.091  53.907  1.00  0.00     0.094 A 
HETATM   18  C3  UNL     1      29.355  -0.665  53.860  1.00  0.00     0.039 A 
HETATM   19  C4  UNL     1      29.415  -1.924  53.329  1.00  0.00     0.003 A 
HETATM   20  C5  UNL     1      28.272  -2.499  52.803  1.00  0.00     0.002 A 
HETATM   21  C6  UNL     1      27.129  -1.734  52.859  1.00  0.00     0.032 A 
BRANCH  17  22
HETATM   22  O1  UNL     1      28.149   1.367  54.449  1.00  0.00    -0.354 OA
HETATM   23  C1  UNL     1      28.727   2.434  53.691  1.00  0.00     0.210 C 
ENDBRANCH  17  22
ENDBRANCH  14  16
ENDBRANCH   1  14
TORSDOF 7
ENDMDL
MODEL 3
REMARK VINA RESULT:      -6.9      5.096      7.300
REMARK  7 active torsions:
REMARK  status: ('A' for Active; 'I' for Inactive)
REMARK    1  A    between atoms: O1_2  and  C2_3 
REMARK    2  A    between atoms: C7_8  and  N1_9 
REMARK    3  A    between atoms: N1_9  and  C8_10 
REMARK    4  A    between atoms: C9_11  and  C10_12 
REMARK    5  A    between atoms: C10_12  and  N2_13 
REMARK    6  A    between atoms: N2_13  and  C11_14 
REMARK    7  A    between atoms: C16_19  and  O2_20 
ROOT
HETATM    1  C8  UNL     1      26.182   4.147  49.813  1.00  0.00     0.086 C 
HETATM    2  C9  UNL     1      26.139   3.014  50.532  1.00  0.00     0.010 C 
ENDROOT
BRANCH   2   3
HETATM    3  C10 UNL     1      24.974   2.514  51.337  1.00  0.00     0.148 C 
BRANCH   3   4
HETATM    4  N2  UNL     1      24.841   3.120  52.622  1.00  0.00    -0.384 N 
HETATM    5  H13 UNL     1      24.295   3.967  52.521  1.00  0.00     0.160 HD
BRANCH   4   6
HETATM    6  C11 UNL     1      25.591   2.165  53.421  1.00  0.00     0.062 A 
HETATM    7  C12 UNL     1      24.406   1.254  53.164  1.00  0.00     0.032 A 
HETATM    8  C13 UNL     1      24.150  -0.100  53.587  1.00  0.00     0.002 A 
HETATM    9  C14 UNL     1      25.155  -0.697  54.371  1.00  0.00     0.003 A 
HETATM   10  C15 UNL     1      26.256   0.074  54.643  1.00  0.00     0.039 A 
HETATM   11  C16 UNL     1      26.253   1.322  54.125  1.00  0.00     0.094 A 
BRANCH  11  12
HETATM   12  O2  UNL     1      27.210   2.398  54.196  1.00  0.00    -0.354 OA
HETATM   13  C17 UNL     1      28.387   2.327  53.459  1.00  0.00     0.210 C 
ENDBRANCH  11  12
ENDBRANCH   4   6
ENDBRANCH   3   4
ENDBRANCH   2   3
BRANCH   1  14
HETATM   14  N1  UNL     1      27.456   4.328  49.162  1.00  0.00    -0.364 N 
HETATM   15  H8  UNL     1      28.252   3.657  49.108  1.00  0.00     0.165 HD
BRANCH  14  16
HETATM   16  C7  UNL     1      27.645   5.598  48.507  1.00  0.00     0.065 A 
HETATM   17  C2  UNL     1      28.881   6.017  48.055  1.00  0.00     0.094 A 
HETATM   18  C3  UNL     1      28.974   7.253  47.435  1.00  0.00     0.039 A 
HETATM   19  C4  UNL     1      27.905   8.085  47.247  1.00  0.00     0.003 A 
HETATM   20  C5  UNL     1      26.652   7.698  47.687  1.00  0.00     0.002 A 
HETATM   21  C6  UNL     1      26.579   6.468  48.300  1.00  0.00     0.032 A 
BRANCH  17  22
HETATM   22  O1  UNL     1      29.976   5.184  48.240  1.00  0.00    -0.354 OA
HETATM   23  C1  UNL     1      31.194   5.529  47.576  1.00  0.00     0.210 C 
ENDBRANCH  17  22
ENDBRANCH  14  16
ENDBRANCH   1  14
TORSDOF 7
ENDMDL
MODEL 4
REMARK VINA RESULT:      -6.7      2.216      3.308
REMARK  7 active torsions:
REMARK  status: ('A' for Active; 'I' for Inactive)
REMARK    1  A    between atoms: O1_2  and  C2_3 
REMARK    2  A    between atoms: C7_8  and  N1_9 
REMARK    3  A    between atoms: N1_9  and  C8_10 
REMARK    4  A    between atoms: C9_11  and  C10_12 
REMARK    5  A    between atoms: C10_12  and  N2_13 
REMARK    6  A    between atoms: N2_13  and  C11_14 
REMARK    7  A    between atoms: C16_19  and  O2_20 
ROOT
HETATM    1  C8  UNL     1      24.941   0.626  52.835  1.00  0.00     0.086 C 
HETATM    2  C9  UNL     1      23.660   0.348  53.125  1.00  0.00     0.010 C 
ENDROOT
BRANCH   2   3
HETATM    3  C10 UNL     1      22.490   0.463  52.191  1.00  0.00     0.148 C 
BRANCH   3   4
HETATM    4  N2  UNL     1      21.868   1.747  52.180  1.00  0.00    -0.384 N 
HETATM    5  H13 UNL     1      21.256   1.813  52.986  1.00  0.00     0.160 HD
BRANCH   4   6
HETATM    6  C11 UNL     1      22.462   2.296  50.973  1.00  0.00     0.062 A 
HETATM    7  C12 UNL     1      21.542   1.322  50.262  1.00  0.00     0.032 A 
HETATM    8  C13 UNL     1      21.352   1.061  48.857  1.00  0.00     0.002 A 
HETATM    9  C14 UNL     1      22.141   1.827  47.980  1.00  0.00     0.003 A 
HETATM   10  C15 UNL     1      22.998   2.729  48.558  1.00  0.00     0.039 A 
HETATM   11  C16 UNL     1      22.987   2.781  49.908  1.00  0.00     0.094 A 
BRANCH  11  12
HETATM   12  O2  UNL     1      23.730   3.581  50.849  1.00  0.00    -0.354 OA
HETATM   13  C17 UNL     1      25.110   3.702  50.718  1.00  0.00     0.210 C 
ENDBRANCH  11  12
ENDBRANCH   4   6
ENDBRANCH   3   4
ENDBRANCH   2   3
BRANCH   1  14
HETATM   14  N1  UNL     1      25.812   0.409  53.963  1.00  0.00    -0.364 N 
HETATM   15  H8  UNL     1      25.689   0.740  54.944  1.00  0.00     0.165 HD
BRANCH  14  16
HETATM   16  C7  UNL     1      27.000  -0.363  53.693  1.00  0.00     0.065 A 
HETATM   17  C2  UNL     1      28.265   0.103  53.995  1.00  0.00     0.094 A 
HETATM   18  C3  UNL     1      29.353  -0.704  53.702  1.00  0.00     0.039 A 
HETATM   19  C4  UNL     1      29.242  -1.940  53.127  1.00  0.00     0.003 A 
HETATM   20  C5  UNL     1      27.992  -2.438  52.810  1.00  0.00     0.002 A 
HETATM   21  C6  UNL     1      26.923  -1.623  53.109  1.00  0.00     0.032 A 
BRANCH  17  22
HETATM   22  O1  UNL     1      28.393   1.355  54.578  1.00  0.00    -0.354 OA
HETATM   23  C1  UNL     1      28.757   2.450  53.733  1.00  0.00     0.210 C 
ENDBRANCH  17  22
ENDBRANCH  14  16
ENDBRANCH   1  14
TORSDOF 7
ENDMDL
MODEL 5
REMARK VINA RESULT:      -6.7      1.781      7.772
REMARK  7 active torsions:
REMARK  status: ('A' for Active; 'I' for Inactive)
REMARK    1  A    between atoms: O1_2  and  C2_3 
REMARK    2  A    between atoms: C7_8  and  N1_9 
REMARK    3  A    between atoms: N1_9  and  C8_10 
REMARK    4  A    between atoms: C9_11  and  C10_12 
REMARK    5  A    between atoms: C10_12  and  N2_13 
REMARK    6  A    between atoms: N2_13  and  C11_14 
REMARK    7  A    between atoms: C16_19  and  O2_20 
ROOT
HETATM    1  C8  UNL     1      23.091  -0.575  53.379  1.00  0.00     0.086 C 
HETATM    2  C9  UNL     1      24.325  -0.057  53.489  1.00  0.00     0.010 C 
ENDROOT
BRANCH   2   3
HETATM    3  C10 UNL     1      25.620  -0.798  53.323  1.00  0.00     0.148 C 
BRANCH   3   4
HETATM    4  N2  UNL     1      26.332  -0.483  52.126  1.00  0.00    -0.384 N 
HETATM    5  H13 UNL     1      26.155  -1.214  51.448  1.00  0.00     0.160 HD
BRANCH   4   6
HETATM    6  C11 UNL     1      26.955   0.764  52.535  1.00  0.00     0.062 A 
HETATM    7  C12 UNL     1      27.949  -0.142  53.237  1.00  0.00     0.032 A 
HETATM    8  C13 UNL     1      29.110   0.172  54.032  1.00  0.00     0.002 A 
HETATM    9  C14 UNL     1      29.388   1.541  54.198  1.00  0.00     0.003 A 
HETATM   10  C15 UNL     1      28.525   2.417  53.589  1.00  0.00     0.039 A 
HETATM   11  C16 UNL     1      27.505   1.865  52.896  1.00  0.00     0.094 A 
BRANCH  11  12
HETATM   12  O2  UNL     1      26.424   2.449  52.143  1.00  0.00    -0.354 OA
HETATM   13  C17 UNL     1      26.617   2.803  50.812  1.00  0.00     0.210 C 
ENDBRANCH  11  12
ENDBRANCH   4   6
ENDBRANCH   3   4
ENDBRANCH   2   3
BRANCH   1  14
HETATM   14  N1  UNL     1      22.066   0.415  53.600  1.00  0.00    -0.364 N 
HETATM   15  H8  UNL     1      22.139   1.309  54.132  1.00  0.00     0.165 HD
BRANCH  14  16
HETATM   16  C7  UNL     1      20.783   0.124  53.012  1.00  0.00     0.065 A 
HETATM   17  C2  UNL     1      20.403   0.631  51.785  1.00  0.00     0.094 A 
HETATM   18  C3  UNL     1      19.151   0.300  51.291  1.00  0.00     0.039 A 
HETATM   19  C4  UNL     1      18.267  -0.505  51.956  1.00  0.00     0.003 A 
HETATM   20  C5  UNL     1      18.613  -1.030  53.187  1.00  0.00     0.002 A 
HETATM   21  C6  UNL     1      19.860  -0.691  53.661  1.00  0.00     0.032 A 
BRANCH  17  22
HETATM   22  O1  UNL     1      21.289   1.449  51.098  1.00  0.00    -0.354 OA
HETATM   23  C1  UNL     1      21.683   1.049  49.783  1.00  0.00     0.210 C 
ENDBRANCH  17  22
ENDBRANCH  14  16
ENDBRANCH   1  14
TORSDOF 7
ENDMDL
MODEL 6
REMARK VINA RESULT:      -6.6      0.705      7.771
REMARK  7 active torsions:
REMARK  status: ('A' for Active; 'I' for Inactive)
REMARK    1  A    between atoms: O1_2  and  C2_3 
REMARK    2  A    between atoms: C7_8  and  N1_9 
REMARK    3  A    between atoms: N1_9  and  C8_10 
REMARK    4  A    between atoms: C9_11  and  C10_12 
REMARK    5  A    between atoms: C10_12  and  N2_13 
REMARK    6  A    between atoms: N2_13  and  C11_14 
REMARK    7  A    between atoms: C16_19  and  O2_20 
ROOT
HETATM    1  C8  UNL     1      23.352   1.250  51.936  1.00  0.00     0.086 C 
HETATM    2  C9  UNL     1      24.244   1.417  52.926  1.00  0.00     0.010 C 
ENDROOT
BRANCH   2   3
HETATM    3  C10 UNL     1      25.611   0.801  53.005  1.00  0.00     0.148 C 
BRANCH   3   4
HETATM    4  N2  UNL     1      25.911   0.188  54.259  1.00  0.00    -0.384 N 
HETATM    5  H13 UNL     1      25.044   0.068  54.770  1.00  0.00     0.160 HD
BRANCH   4   6
HETATM    6  C11 UNL     1      27.353   0.062  54.130  1.00  0.00     0.062 A 
HETATM    7  C12 UNL     1      27.023  -1.268  53.480  1.00  0.00     0.032 A 
HETATM    8  C13 UNL     1      27.884  -2.286  52.931  1.00  0.00     0.002 A 
HETATM    9  C14 UNL     1      29.264  -2.023  52.997  1.00  0.00     0.003 A 
HETATM   10  C15 UNL     1      29.632  -0.835  53.576  1.00  0.00     0.039 A 
HETATM   11  C16 UNL     1      28.625  -0.049  54.017  1.00  0.00     0.094 A 
BRANCH  11  12
HETATM   12  O2  UNL     1      28.619   1.239  54.665  1.00  0.00    -0.354 OA
HETATM   13  C17 UNL     1      28.899   2.386  53.930  1.00  0.00     0.210 C 
ENDBRANCH  11  12
ENDBRANCH   4   6
ENDBRANCH   3   4
ENDBRANCH   2   3
BRANCH   1  14
HETATM   14  N1  UNL     1      22.134   1.984  52.175  1.00  0.00    -0.364 N 
HETATM   15  H8  UNL     1      22.029   2.979  52.467  1.00  0.00     0.165 HD
BRANCH  14  16
HETATM   16  C7  UNL     1      20.913   1.240  51.987  1.00  0.00     0.065 A 
HETATM   17  C2  UNL     1      20.330   0.511  53.005  1.00  0.00     0.094 A 
HETATM   18  C3  UNL     1      19.154  -0.174  52.738  1.00  0.00     0.039 A 
HETATM   19  C4  UNL     1      18.539  -0.168  51.516  1.00  0.00     0.003 A 
HETATM   20  C5  UNL     1      19.095   0.551  50.474  1.00  0.00     0.002 A 
HETATM   21  C6  UNL     1      20.261   1.225  50.757  1.00  0.00     0.032 A 
BRANCH  17  22
HETATM   22  O1  UNL     1      20.943   0.496  54.249  1.00  0.00    -0.354 OA
HETATM   23  C1  UNL     1      21.608  -0.705  54.649  1.00  0.00     0.210 C 
ENDBRANCH  17  22
ENDBRANCH  14  16
ENDBRANCH   1  14
TORSDOF 7
ENDMDL
MODEL 7
REMARK VINA RESULT:      -6.6      4.679      7.868
REMARK  7 active torsions:
REMARK  status: ('A' for Active; 'I' for Inactive)
REMARK    1  A    between atoms: O1_2  and  C2_3 
REMARK    2  A    between atoms: C7_8  and  N1_9 
REMARK    3  A    between atoms: N1_9  and  C8_10 
REMARK    4  A    between atoms: C9_11  and  C10_12 
REMARK    5  A    between atoms: C10_12  and  N2_13 
REMARK    6  A    between atoms: N2_13  and  C11_14 
REMARK    7  A    between atoms: C16_19  and  O2_20 
ROOT
HETATM    1  C8  UNL     1      26.469   3.204  50.156  1.00  0.00     0.086 C 
HETATM    2  C9  UNL     1      25.745   2.505  51.045  1.00  0.00     0.010 C 
ENDROOT
BRANCH   2   3
HETATM    3  C10 UNL     1      26.076   1.145  51.588  1.00  0.00     0.148 C 
BRANCH   3   4
HETATM    4  N2  UNL     1      25.808   0.985  52.982  1.00  0.00    -0.384 N 
HETATM    5  H13 UNL     1      24.838   1.225  53.149  1.00  0.00     0.160 HD
BRANCH   4   6
HETATM    6  C11 UNL     1      27.119   0.550  53.434  1.00  0.00     0.062 A 
HETATM    7  C12 UNL     1      26.758  -0.748  52.738  1.00  0.00     0.032 A 
HETATM    8  C13 UNL     1      27.498  -1.977  52.596  1.00  0.00     0.002 A 
HETATM    9  C14 UNL     1      28.771  -1.998  53.194  1.00  0.00     0.003 A 
HETATM   10  C15 UNL     1      29.160  -0.853  53.843  1.00  0.00     0.039 A 
HETATM   11  C16 UNL     1      28.275   0.168  53.833  1.00  0.00     0.094 A 
BRANCH  11  12
HETATM   12  O2  UNL     1      28.327   1.493  54.396  1.00  0.00    -0.354 OA
HETATM   13  C17 UNL     1      28.861   2.541  53.653  1.00  0.00     0.210 C 
ENDBRANCH  11  12
ENDBRANCH   4   6
ENDBRANCH   3   4
ENDBRANCH   2   3
BRANCH   1  14
HETATM   14  N1  UNL     1      25.865   4.477  49.847  1.00  0.00    -0.364 N 
HETATM   15  H8  UNL     1      24.918   4.821  50.115  1.00  0.00     0.165 HD
BRANCH  14  16
HETATM   16  C7  UNL     1      26.677   5.377  49.067  1.00  0.00     0.065 A 
HETATM   17  C2  UNL     1      26.208   6.601  48.631  1.00  0.00     0.094 A 
HETATM   18  C3  UNL     1      27.056   7.407  47.887  1.00  0.00     0.039 A 
HETATM   19  C4  UNL     1      28.336   7.053  47.558  1.00  0.00     0.003 A 
HETATM   20  C5  UNL     1      28.838   5.835  47.976  1.00  0.00     0.002 A 
HETATM   21  C6  UNL     1      27.982   5.049  48.715  1.00  0.00     0.032 A 
BRANCH  17  22
HETATM   22  O1  UNL     1      24.912   6.974  48.957  1.00  0.00    -0.354 OA
HETATM   23  C1  UNL     1      24.739   7.990  49.948  1.00  0.00     0.210 C 
ENDBRANCH  17  22
ENDBRANCH  14  16
ENDBRANCH   1  14
TORSDOF 7
ENDMDL
MODEL 8
REMARK VINA RESULT:      -6.5      1.814      7.145
REMARK  7 active torsions:
REMARK  status: ('A' for Active; 'I' for Inactive)
REMARK    1  A    between atoms: O1_2  and  C2_3 
REMARK    2  A    between atoms: C7_8  and  N1_9 
REMARK    3  A    between atoms: N1_9  and  C8_10 
REMARK    4  A    between atoms: C9_11  and  C10_12 
REMARK    5  A    between atoms: C10_12  and  N2_13 
REMARK    6  A    between atoms: N2_13  and  C11_14 
REMARK    7  A    between atoms: C16_19  and  O2_20 
ROOT
HETATM    1  C8  UNL     1      23.060   1.995  51.735  1.00  0.00     0.086 C 
HETATM    2  C9  UNL     1      24.355   1.687  51.561  1.00  0.00     0.010 C 
ENDROOT
BRANCH   2   3
HETATM    3  C10 UNL     1      25.531   2.524  51.974  1.00  0.00     0.148 C 
BRANCH   3   4
HETATM    4  N2  UNL     1      25.601   2.793  53.375  1.00  0.00    -0.384 N 
HETATM    5  H13 UNL     1      25.176   3.697  53.547  1.00  0.00     0.160 HD
BRANCH   4   6
HETATM    6  C11 UNL     1      26.273   1.585  53.823  1.00  0.00     0.062 A 
HETATM    7  C12 UNL     1      27.539   2.382  53.574  1.00  0.00     0.032 A 
HETATM    8  C13 UNL     1      28.926   2.022  53.741  1.00  0.00     0.002 A 
HETATM    9  C14 UNL     1      29.168   0.720  54.213  1.00  0.00     0.003 A 
HETATM   10  C15 UNL     1      28.063  -0.057  54.458  1.00  0.00     0.039 A 
HETATM   11  C16 UNL     1      26.865   0.519  54.218  1.00  0.00     0.094 A 
BRANCH  11  12
HETATM   12  O2  UNL     1      25.516   0.029  54.352  1.00  0.00    -0.354 OA
HETATM   13  C17 UNL     1      25.207  -0.886  55.353  1.00  0.00     0.210 C 
ENDBRANCH  11  12
ENDBRANCH   4   6
ENDBRANCH   3   4
ENDBRANCH   2   3
BRANCH   1  14
HETATM   14  N1  UNL     1      22.186   0.970  51.220  1.00  0.00    -0.364 N 
HETATM   15  H8  UNL     1      21.962   0.755  50.225  1.00  0.00     0.165 HD
BRANCH  14  16
HETATM   16  C7  UNL     1      21.543   0.144  52.212  1.00  0.00     0.065 A 
HETATM   17  C2  UNL     1      20.183   0.195  52.444  1.00  0.00     0.094 A 
HETATM   18  C3  UNL     1      19.646  -0.635  53.416  1.00  0.00     0.039 A 
HETATM   19  C4  UNL     1      20.394  -1.503  54.162  1.00  0.00     0.003 A 
HETATM   20  C5  UNL     1      21.759  -1.580  53.958  1.00  0.00     0.002 A 
HETATM   21  C6  UNL     1      22.274  -0.750  52.988  1.00  0.00     0.032 A 
BRANCH  17  22
HETATM   22  O1  UNL     1      19.411   1.072  51.694  1.00  0.00    -0.354 OA
HETATM   23  C1  UNL     1      18.596   0.522  50.656  1.00  0.00     0.210 C 
ENDBRANCH  17  22
ENDBRANCH  14  16
ENDBRANCH   1  14
TORSDOF 7
ENDMDL
MODEL 9
REMARK VINA RESULT:      -6.5      4.503      7.596
REMARK  7 active torsions:
REMARK  status: ('A' for Active; 'I' for Inactive)
REMARK    1  A    between atoms: O1_2  and  C2_3 
REMARK    2  A    between atoms: C7_8  and  N1_9 
REMARK    3  A    between atoms: N1_9  and  C8_10 
REMARK    4  A    between atoms: C9_11  and  C10_12 
REMARK    5  A    between atoms: C10_12  and  N2_13 
REMARK    6  A    between atoms: N2_13  and  C11_14 
REMARK    7  A    between atoms: C16_19  and  O2_20 
ROOT
HETATM    1  C8  UNL     1      25.806   3.081  50.569  1.00  0.00     0.086 C 
HETATM    2  C9  UNL     1      24.858   2.338  51.162  1.00  0.00     0.010 C 
ENDROOT
BRANCH   2   3
HETATM    3  C10 UNL     1      25.084   1.125  52.018  1.00  0.00     0.148 C 
BRANCH   3   4
HETATM    4  N2  UNL     1      25.407   1.414  53.378  1.00  0.00    -0.384 N 
HETATM    5  H13 UNL     1      24.725   2.073  53.734  1.00  0.00     0.160 HD
BRANCH   4   6
HETATM    6  C11 UNL     1      26.587   0.580  53.531  1.00  0.00     0.062 A 
HETATM    7  C12 UNL     1      27.321   1.904  53.624  1.00  0.00     0.032 A 
HETATM    8  C13 UNL     1      28.722   2.192  53.805  1.00  0.00     0.002 A 
HETATM    9  C14 UNL     1      29.568   1.074  53.918  1.00  0.00     0.003 A 
HETATM   10  C15 UNL     1      28.967  -0.157  53.841  1.00  0.00     0.039 A 
HETATM   11  C16 UNL     1      27.628  -0.157  53.667  1.00  0.00     0.094 A 
BRANCH  11  12
HETATM   12  O2  UNL     1      26.671  -1.228  53.542  1.00  0.00    -0.354 OA
HETATM   13  C17 UNL     1      26.808  -2.164  52.522  1.00  0.00     0.210 C 
ENDBRANCH  11  12
ENDBRANCH   4   6
ENDBRANCH   3   4
ENDBRANCH   2   3
BRANCH   1  14
HETATM   14  N1  UNL     1      25.245   4.176  49.818  1.00  0.00    -0.364 N 
HETATM   15  H8  UNL     1      24.239   4.407  49.671  1.00  0.00     0.165 HD
BRANCH  14  16
HETATM   16  C7  UNL     1      26.200   5.056  49.192  1.00  0.00     0.065 A 
HETATM   17  C2  UNL     1      25.897   6.365  48.872  1.00  0.00     0.094 A 
HETATM   18  C3  UNL     1      26.876   7.143  48.273  1.00  0.00     0.039 A 
HETATM   19  C4  UNL     1      28.130   6.682  47.979  1.00  0.00     0.003 A 
HETATM   20  C5  UNL     1      28.468   5.376  48.284  1.00  0.00     0.002 A 
HETATM   21  C6  UNL     1      27.484   4.620  48.879  1.00  0.00     0.032 A 
BRANCH  17  22
HETATM   22  O1  UNL     1      24.629   6.846  49.165  1.00  0.00    -0.354 OA
HETATM   23  C1  UNL     1      24.501   7.775  50.245  1.00  0.00     0.210 C 
ENDBRANCH  17  22
ENDBRANCH  14  16
ENDBRANCH   1  14
TORSDOF 7
ENDMDL
