MODEL 1
REMARK VINA RESULT:      -7.2      0.000      0.000
REMARK  7 active torsions:
REMARK  status: ('A' for Active; 'I' for Inactive)
REMARK    1  A    between atoms: C5_5  and  N1_6 
REMARK       I    between atoms: N1_6  and  C6_7 
REMARK    2  A    between atoms: C6_7  and  C7_9 
REMARK    3  A    between atoms: C10_12  and  N2_13 
REMARK    4  A    between atoms: N2_13  and  C11_14 
REMARK    5  A    between atoms: N2_13  and  C13_17 
REMARK    6  A    between atoms: C11_14  and  C12_15 
REMARK    7  A    between atoms: C13_17  and  C14_18 
ROOT
HETATM    1  C7  UNL     1      22.279   0.063  52.917  1.00  0.00     0.032 A 
HETATM    2  C8  UNL     1      21.784   0.230  51.646  1.00  0.00     0.019 A 
HETATM    3  C9  UNL     1      20.421   0.274  51.442  1.00  0.00     0.030 A 
HETATM    4  C10 UNL     1      19.473   0.160  52.450  1.00  0.00     0.030 A 
HETATM    5  C15 UNL     1      20.053  -0.004  53.675  1.00  0.00     0.030 A 
HETATM    6  C16 UNL     1      21.395  -0.054  53.938  1.00  0.00     0.019 A 
ENDROOT
BRANCH   1   7
HETATM    7  C6  UNL     1      23.719   0.034  53.127  1.00  0.00     0.256 C 
HETATM    8  N1  UNL     1      24.357  -0.765  54.126  1.00  0.00    -0.323 N 
HETATM    9  H6  UNL     1      23.794  -1.373  54.753  1.00  0.00     0.169 HD
HETATM   10  O1  UNL     1      24.542   0.703  52.452  1.00  0.00    -0.267 OA
BRANCH   8  11
HETATM   11  C5  UNL     1      25.784  -0.555  54.063  1.00  0.00     0.035 A 
HETATM   12  C4  UNL     1      26.360  -1.304  53.035  1.00  0.00     0.030 A 
HETATM   13  C3  UNL     1      27.721  -1.174  52.887  1.00  0.00     0.009 A 
HETATM   14  C2  UNL     1      28.453  -0.351  53.712  1.00  0.00    -0.062 A 
HETATM   15  C1  UNL     1      29.907  -0.228  53.530  1.00  0.00     0.048 C 
HETATM   16  C18 UNL     1      27.842   0.383  54.731  1.00  0.00     0.009 A 
HETATM   17  C17 UNL     1      26.479   0.279  54.911  1.00  0.00     0.030 A 
ENDBRANCH   8  11
ENDBRANCH   1   7
BRANCH   4  18
HETATM   18  N2  UNL     1      18.065   0.159  52.146  1.00  0.00    -0.379 N 
BRANCH  18  19
HETATM   19  C11 UNL     1      17.793   1.098  51.094  1.00  0.00     0.138 C 
BRANCH  19  20
HETATM   20  C12 UNL     1      17.470   2.493  51.432  1.00  0.00     0.134 C 
HETATM   21 CL1  UNL     1      18.844   3.579  51.508  1.00  0.00    -0.129 Cl
ENDBRANCH  19  20
ENDBRANCH  18  19
BRANCH  18  22
HETATM   22  C13 UNL     1      16.935  -0.490  52.669  1.00  0.00     0.138 C 
BRANCH  22  23
HETATM   23  C14 UNL     1      16.830  -1.976  52.640  1.00  0.00     0.134 C 
HETATM   24 CL2  UNL     1      17.820  -2.784  53.875  1.00  0.00    -0.129 Cl
ENDBRANCH  22  23
ENDBRANCH  18  22
ENDBRANCH   4  18
TORSDOF 7
ENDMDL
MODEL 2
REMARK VINA RESULT:      -7.1      0.682      2.616
REMARK  7 active torsions:
REMARK  status: ('A' for Active; 'I' for Inactive)
REMARK    1  A    between atoms: C5_5  and  N1_6 
REMARK       I    between atoms: N1_6  and  C6_7 
REMARK    2  A    between atoms: C6_7  and  C7_9 
REMARK    3  A    between atoms: C10_12  and  N2_13 
REMARK    4  A    between atoms: N2_13  and  C11_14 
REMARK    5  A    between atoms: N2_13  and  C13_17 
REMARK    6  A    between atoms: C11_14  and  C12_15 
REMARK    7  A    between atoms: C13_17  and  C14_18 
ROOT
HETATM    1  C7  UNL     1      22.490   0.493  52.608  1.00  0.00     0.032 A 
HETATM    2  C8  UNL     1      22.061   0.568  51.305  1.00  0.00     0.019 A 
HETATM    3  C9  UNL     1      20.720   0.737  51.033  1.00  0.00     0.030 A 
HETATM    4  C10 UNL     1      19.730   0.843  52.002  1.00  0.00     0.030 A 
HETATM    5  C15 UNL     1      20.245   0.757  53.263  1.00  0.00     0.030 A 
HETATM    6  C16 UNL     1      21.563   0.591  53.593  1.00  0.00     0.019 A 
ENDROOT
BRANCH   1   7
HETATM    7  C6  UNL     1      23.908   0.331  52.888  1.00  0.00     0.256 C 
HETATM    8  N1  UNL     1      24.424  -0.586  53.856  1.00  0.00    -0.323 N 
HETATM    9  H6  UNL     1      23.781  -1.189  54.406  1.00  0.00     0.169 HD
HETATM   10  O1  UNL     1      24.818   0.975  52.308  1.00  0.00    -0.267 OA
BRANCH   8  11
HETATM   11  C5  UNL     1      25.864  -0.491  53.881  1.00  0.00     0.035 A 
HETATM   12  C4  UNL     1      26.444  -1.330  52.926  1.00  0.00     0.030 A 
HETATM   13  C3  UNL     1      27.817  -1.312  52.865  1.00  0.00     0.009 A 
HETATM   14  C2  UNL     1      28.558  -0.511  53.704  1.00  0.00    -0.062 A 
HETATM   15  C1  UNL     1      30.026  -0.510  53.616  1.00  0.00     0.048 C 
HETATM   16  C18 UNL     1      27.945   0.315  54.648  1.00  0.00     0.009 A 
HETATM   17  C17 UNL     1      26.569   0.326  54.740  1.00  0.00     0.030 A 
ENDBRANCH   8  11
ENDBRANCH   1   7
BRANCH   4  18
HETATM   18  N2  UNL     1      18.343   0.961  51.633  1.00  0.00    -0.379 N 
BRANCH  18  19
HETATM   19  C11 UNL     1      17.774  -0.344  51.451  1.00  0.00     0.138 C 
BRANCH  19  20
HETATM   20  C12 UNL     1      17.035  -0.975  52.556  1.00  0.00     0.134 C 
HETATM   21 CL1  UNL     1      17.967  -2.091  53.536  1.00  0.00    -0.129 Cl
ENDBRANCH  19  20
ENDBRANCH  18  19
BRANCH  18  22
HETATM   22  C13 UNL     1      17.473   2.030  51.368  1.00  0.00     0.138 C 
BRANCH  22  23
HETATM   23  C14 UNL     1      17.891   3.436  51.632  1.00  0.00     0.134 C 
HETATM   24 CL2  UNL     1      19.081   4.055  50.466  1.00  0.00    -0.129 Cl
ENDBRANCH  22  23
ENDBRANCH  18  22
ENDBRANCH   4  18
TORSDOF 7
ENDMDL
MODEL 3
REMARK VINA RESULT:      -6.9      1.288      1.741
REMARK  7 active torsions:
REMARK  status: ('A' for Active; 'I' for Inactive)
REMARK    1  A    between atoms: C5_5  and  N1_6 
REMARK       I    between atoms: N1_6  and  C6_7 
REMARK    2  A    between atoms: C6_7  and  C7_9 
REMARK    3  A    between atoms: C10_12  and  N2_13 
REMARK    4  A    between atoms: N2_13  and  C11_14 
REMARK    5  A    between atoms: N2_13  and  C13_17 
REMARK    6  A    between atoms: C11_14  and  C12_15 
REMARK    7  A    between atoms: C13_17  and  C14_18 
ROOT
HETATM    1  C7  UNL     1      22.722   0.804  52.440  1.00  0.00     0.032 A 
HETATM    2  C8  UNL     1      22.318   1.207  51.190  1.00  0.00     0.019 A 
HETATM    3  C9  UNL     1      21.003   1.563  50.977  1.00  0.00     0.030 A 
HETATM    4  C10 UNL     1      20.018   1.550  51.956  1.00  0.00     0.030 A 
HETATM    5  C15 UNL     1      20.508   1.137  53.161  1.00  0.00     0.030 A 
HETATM    6  C16 UNL     1      21.798   0.773  53.432  1.00  0.00     0.019 A 
ENDROOT
BRANCH   1   7
HETATM    7  C6  UNL     1      24.114   0.444  52.661  1.00  0.00     0.256 C 
HETATM    8  N1  UNL     1      24.547  -0.448  53.691  1.00  0.00    -0.323 N 
HETATM    9  H6  UNL     1      23.858  -0.886  54.333  1.00  0.00     0.169 HD
HETATM   10  O1  UNL     1      25.071   0.878  51.971  1.00  0.00    -0.267 OA
BRANCH   8  11
HETATM   11  C5  UNL     1      25.983  -0.582  53.632  1.00  0.00     0.035 A 
HETATM   12  C4  UNL     1      26.609   0.275  54.541  1.00  0.00     0.030 A 
HETATM   13  C3  UNL     1      27.982   0.224  54.566  1.00  0.00     0.009 A 
HETATM   14  C2  UNL     1      28.681  -0.626  53.739  1.00  0.00    -0.062 A 
HETATM   15  C1  UNL     1      30.150  -0.662  53.789  1.00  0.00     0.048 C 
HETATM   16  C18 UNL     1      28.021  -1.469  52.841  1.00  0.00     0.009 A 
HETATM   17  C17 UNL     1      26.644  -1.447  52.786  1.00  0.00     0.030 A 
ENDBRANCH   8  11
ENDBRANCH   1   7
BRANCH   4  18
HETATM   18  N2  UNL     1      18.653   1.884  51.638  1.00  0.00    -0.379 N 
BRANCH  18  19
HETATM   19  C11 UNL     1      18.508   3.310  51.554  1.00  0.00     0.138 C 
BRANCH  19  20
HETATM   20  C12 UNL     1      17.243   3.883  51.066  1.00  0.00     0.134 C 
HETATM   21 CL1  UNL     1      16.135   4.416  52.317  1.00  0.00    -0.129 Cl
ENDBRANCH  19  20
ENDBRANCH  18  19
BRANCH  18  22
HETATM   22  C13 UNL     1      17.468   1.155  51.455  1.00  0.00     0.138 C 
BRANCH  22  23
HETATM   23  C14 UNL     1      17.508  -0.315  51.211  1.00  0.00     0.134 C 
HETATM   24 CL2  UNL     1      17.770  -1.274  52.684  1.00  0.00    -0.129 Cl
ENDBRANCH  22  23
ENDBRANCH  18  22
ENDBRANCH   4  18
TORSDOF 7
ENDMDL
MODEL 4
REMARK VINA RESULT:      -6.8      7.057      9.374
REMARK  7 active torsions:
REMARK  status: ('A' for Active; 'I' for Inactive)
REMARK    1  A    between atoms: C5_5  and  N1_6 
REMARK       I    between atoms: N1_6  and  C6_7 
REMARK    2  A    between atoms: C6_7  and  C7_9 
REMARK    3  A    between atoms: C10_12  and  N2_13 
REMARK    4  A    between atoms: N2_13  and  C11_14 
REMARK    5  A    between atoms: N2_13  and  C13_17 
REMARK    6  A    between atoms: C11_14  and  C12_15 
REMARK    7  A    between atoms: C13_17  and  C14_18 
ROOT
HETATM    1  C7  UNL     1      25.654   4.110  50.064  1.00  0.00     0.032 A 
HETATM    2  C8  UNL     1      25.169   5.390  49.937  1.00  0.00     0.019 A 
HETATM    3  C9  UNL     1      25.868   6.316  49.192  1.00  0.00     0.030 A 
HETATM    4  C10 UNL     1      27.063   6.053  48.535  1.00  0.00     0.030 A 
HETATM    5  C15 UNL     1      27.468   4.763  48.716  1.00  0.00     0.030 A 
HETATM    6  C16 UNL     1      26.818   3.802  49.442  1.00  0.00     0.019 A 
ENDROOT
BRANCH   1   7
HETATM    7  C6  UNL     1      24.903   3.133  50.839  1.00  0.00     0.256 C 
HETATM    8  N1  UNL     1      25.012   2.996  52.258  1.00  0.00    -0.323 N 
HETATM    9  H6  UNL     1      25.649   3.612  52.800  1.00  0.00     0.169 HD
HETATM   10  O1  UNL     1      24.086   2.318  50.341  1.00  0.00    -0.267 OA
BRANCH   8  11
HETATM   11  C5  UNL     1      24.137   1.937  52.701  1.00  0.00     0.035 A 
HETATM   12  C4  UNL     1      24.864   0.803  53.073  1.00  0.00     0.030 A 
HETATM   13  C3  UNL     1      24.122  -0.267  53.515  1.00  0.00     0.009 A 
HETATM   14  C2  UNL     1      22.749  -0.206  53.580  1.00  0.00    -0.062 A 
HETATM   15  C1  UNL     1      21.980  -1.364  54.060  1.00  0.00     0.048 C 
HETATM   16  C18 UNL     1      22.055   0.945  53.199  1.00  0.00     0.009 A 
HETATM   17  C17 UNL     1      22.764   2.040  52.750  1.00  0.00     0.030 A 
ENDBRANCH   8  11
ENDBRANCH   1   7
BRANCH   4  18
HETATM   18  N2  UNL     1      27.760   7.093  47.822  1.00  0.00    -0.379 N 
BRANCH  18  19
HETATM   19  C11 UNL     1      26.919   8.251  47.705  1.00  0.00     0.138 C 
BRANCH  19  20
HETATM   20  C12 UNL     1      27.294   9.494  48.398  1.00  0.00     0.134 C 
HETATM   21 CL1  UNL     1      27.914   9.283  50.025  1.00  0.00    -0.129 Cl
ENDBRANCH  19  20
ENDBRANCH  18  19
BRANCH  18  22
HETATM   22  C13 UNL     1      29.010   7.202  47.193  1.00  0.00     0.138 C 
BRANCH  22  23
HETATM   23  C14 UNL     1      30.271   7.038  47.970  1.00  0.00     0.134 C 
HETATM   24 CL2  UNL     1      30.917   5.383  47.939  1.00  0.00    -0.129 Cl
ENDBRANCH  22  23
ENDBRANCH  18  22
ENDBRANCH   4  18
TORSDOF 7
ENDMDL
MODEL 5
REMARK VINA RESULT:      -6.7      6.820      9.342
REMARK  7 active torsions:
REMARK  status: ('A' for Active; 'I' for Inactive)
REMARK    1  A    between atoms: C5_5  and  N1_6 
REMARK       I    between atoms: N1_6  and  C6_7 
REMARK    2  A    between atoms: C6_7  and  C7_9 
REMARK    3  A    between atoms: C10_12  and  N2_13 
REMARK    4  A    between atoms: N2_13  and  C11_14 
REMARK    5  A    between atoms: N2_13  and  C13_17 
REMARK    6  A    between atoms: C11_14  and  C12_15 
REMARK    7  A    between atoms: C13_17  and  C14_18 
ROOT
HETATM    1  C7  UNL     1      25.307   3.850  50.297  1.00  0.00     0.032 A 
HETATM    2  C8  UNL     1      26.453   3.462  49.644  1.00  0.00     0.019 A 
HETATM    3  C9  UNL     1      27.197   4.396  48.954  1.00  0.00     0.030 A 
HETATM    4  C10 UNL     1      26.875   5.744  48.861  1.00  0.00     0.030 A 
HETATM    5  C15 UNL     1      25.725   6.037  49.537  1.00  0.00     0.030 A 
HETATM    6  C16 UNL     1      24.947   5.156  50.237  1.00  0.00     0.019 A 
ENDROOT
BRANCH   1   7
HETATM    7  C6  UNL     1      24.535   2.863  51.036  1.00  0.00     0.256 C 
HETATM    8  N1  UNL     1      24.590   2.717  52.457  1.00  0.00    -0.323 N 
HETATM    9  H6  UNL     1      25.201   3.335  53.027  1.00  0.00     0.169 HD
HETATM   10  O1  UNL     1      23.743   2.045  50.502  1.00  0.00    -0.267 OA
BRANCH   8  11
HETATM   11  C5  UNL     1      23.707   1.649  52.860  1.00  0.00     0.035 A 
HETATM   12  C4  UNL     1      24.427   0.514  53.242  1.00  0.00     0.030 A 
HETATM   13  C3  UNL     1      23.677  -0.564  53.648  1.00  0.00     0.009 A 
HETATM   14  C2  UNL     1      22.302  -0.510  53.670  1.00  0.00    -0.062 A 
HETATM   15  C1  UNL     1      21.524  -1.677  54.111  1.00  0.00     0.048 C 
HETATM   16  C18 UNL     1      21.615   0.642  53.280  1.00  0.00     0.009 A 
HETATM   17  C17 UNL     1      22.332   1.745  52.867  1.00  0.00     0.030 A 
ENDBRANCH   8  11
ENDBRANCH   1   7
BRANCH   4  18
HETATM   18  N2  UNL     1      27.676   6.644  48.073  1.00  0.00    -0.379 N 
BRANCH  18  19
HETATM   19  C11 UNL     1      29.023   6.153  47.992  1.00  0.00     0.138 C 
BRANCH  19  20
HETATM   20  C12 UNL     1      30.113   7.078  47.644  1.00  0.00     0.134 C 
HETATM   21 CL1  UNL     1      30.953   7.789  49.009  1.00  0.00    -0.129 Cl
ENDBRANCH  19  20
ENDBRANCH  18  19
BRANCH  18  22
HETATM   22  C13 UNL     1      27.454   7.876  47.438  1.00  0.00     0.138 C 
BRANCH  22  23
HETATM   23  C14 UNL     1      27.069   9.080  48.226  1.00  0.00     0.134 C 
HETATM   24 CL2  UNL     1      27.763   9.112  49.862  1.00  0.00    -0.129 Cl
ENDBRANCH  22  23
ENDBRANCH  18  22
ENDBRANCH   4  18
TORSDOF 7
ENDMDL
MODEL 6
REMARK VINA RESULT:      -6.7      1.400      3.176
REMARK  7 active torsions:
REMARK  status: ('A' for Active; 'I' for Inactive)
REMARK    1  A    between atoms: C5_5  and  N1_6 
REMARK       I    between atoms: N1_6  and  C6_7 
REMARK    2  A    between atoms: C6_7  and  C7_9 
REMARK    3  A    between atoms: C10_12  and  N2_13 
REMARK    4  A    between atoms: N2_13  and  C11_14 
REMARK    5  A    between atoms: N2_13  and  C13_17 
REMARK    6  A    between atoms: C11_14  and  C12_15 
REMARK    7  A    between atoms: C13_17  and  C14_18 
ROOT
HETATM    1  C7  UNL     1      21.883   0.071  52.709  1.00  0.00     0.032 A 
HETATM    2  C8  UNL     1      21.104  -0.494  53.690  1.00  0.00     0.019 A 
HETATM    3  C9  UNL     1      19.743  -0.612  53.501  1.00  0.00     0.030 A 
HETATM    4  C10 UNL     1      19.070  -0.193  52.360  1.00  0.00     0.030 A 
HETATM    5  C15 UNL     1      19.920   0.355  51.443  1.00  0.00     0.030 A 
HETATM    6  C16 UNL     1      21.275   0.497  51.575  1.00  0.00     0.019 A 
ENDROOT
BRANCH   1   7
HETATM    7  C6  UNL     1      23.321   0.178  52.908  1.00  0.00     0.256 C 
HETATM    8  N1  UNL     1      24.185   0.928  52.052  1.00  0.00    -0.323 N 
HETATM    9  H6  UNL     1      23.801   1.441  51.234  1.00  0.00     0.169 HD
HETATM   10  O1  UNL     1      23.943  -0.374  53.851  1.00  0.00    -0.267 OA
BRANCH   8  11
HETATM   11  C5  UNL     1      25.542   0.819  52.533  1.00  0.00     0.035 A 
HETATM   12  C4  UNL     1      25.934   1.980  53.205  1.00  0.00     0.030 A 
HETATM   13  C3  UNL     1      27.214   1.979  53.706  1.00  0.00     0.009 A 
HETATM   14  C2  UNL     1      28.043   0.893  53.546  1.00  0.00    -0.062 A 
HETATM   15  C1  UNL     1      29.407   0.918  54.095  1.00  0.00     0.048 C 
HETATM   16  C18 UNL     1      27.617  -0.251  52.867  1.00  0.00     0.009 A 
HETATM   17  C17 UNL     1      26.340  -0.289  52.349  1.00  0.00     0.030 A 
ENDBRANCH   8  11
ENDBRANCH   1   7
BRANCH   4  18
HETATM   18  N2  UNL     1      17.637  -0.301  52.264  1.00  0.00    -0.379 N 
BRANCH  18  19
HETATM   19  C11 UNL     1      17.154  -1.239  53.237  1.00  0.00     0.138 C 
BRANCH  19  20
HETATM   20  C12 UNL     1      16.510  -2.484  52.787  1.00  0.00     0.134 C 
HETATM   21 CL1  UNL     1      17.142  -3.952  53.507  1.00  0.00    -0.129 Cl
ENDBRANCH  19  20
ENDBRANCH  18  19
BRANCH  18  22
HETATM   22  C13 UNL     1      16.653   0.245  51.425  1.00  0.00     0.138 C 
BRANCH  22  23
HETATM   23  C14 UNL     1      16.082   1.594  51.699  1.00  0.00     0.134 C 
HETATM   24 CL2  UNL     1      17.163   2.930  51.250  1.00  0.00    -0.129 Cl
ENDBRANCH  22  23
ENDBRANCH  18  22
ENDBRANCH   4  18
TORSDOF 7
ENDMDL
MODEL 7
REMARK VINA RESULT:      -6.4      8.376     11.032
REMARK  7 active torsions:
REMARK  status: ('A' for Active; 'I' for Inactive)
REMARK    1  A    between atoms: C5_5  and  N1_6 
REMARK       I    between atoms: N1_6  and  C6_7 
REMARK    2  A    between atoms: C6_7  and  C7_9 
REMARK    3  A    between atoms: C10_12  and  N2_13 
REMARK    4  A    between atoms: N2_13  and  C11_14 
REMARK    5  A    between atoms: N2_13  and  C13_17 
REMARK    6  A    between atoms: C11_14  and  C12_15 
REMARK    7  A    between atoms: C13_17  and  C14_18 
ROOT
HETATM    1  C7  UNL     1      26.764   5.215  48.899  1.00  0.00     0.032 A 
HETATM    2  C8  UNL     1      26.271   6.438  48.511  1.00  0.00     0.019 A 
HETATM    3  C9  UNL     1      27.102   7.346  47.891  1.00  0.00     0.030 A 
HETATM    4  C10 UNL     1      28.445   7.120  47.616  1.00  0.00     0.030 A 
HETATM    5  C15 UNL     1      28.847   5.885  48.036  1.00  0.00     0.030 A 
HETATM    6  C16 UNL     1      28.070   4.944  48.654  1.00  0.00     0.019 A 
ENDROOT
BRANCH   1   7
HETATM    7  C6  UNL     1      25.877   4.255  49.538  1.00  0.00     0.256 C 
HETATM    8  N1  UNL     1      24.652   4.615  50.181  1.00  0.00    -0.323 N 
HETATM    9  H6  UNL     1      24.343   5.607  50.210  1.00  0.00     0.169 HD
HETATM   10  O1  UNL     1      26.096   3.018  49.587  1.00  0.00    -0.267 OA
BRANCH   8  11
HETATM   11  C5  UNL     1      24.024   3.427  50.709  1.00  0.00     0.035 A 
HETATM   12  C4  UNL     1      24.385   3.214  52.042  1.00  0.00     0.030 A 
HETATM   13  C3  UNL     1      23.837   2.105  52.642  1.00  0.00     0.009 A 
HETATM   14  C2  UNL     1      22.988   1.268  51.955  1.00  0.00    -0.062 A 
HETATM   15  C1  UNL     1      22.414   0.090  52.622  1.00  0.00     0.048 C 
HETATM   16  C18 UNL     1      22.650   1.512  50.622  1.00  0.00     0.009 A 
HETATM   17  C17 UNL     1      23.179   2.614  49.985  1.00  0.00     0.030 A 
ENDBRANCH   8  11
ENDBRANCH   1   7
BRANCH   4  18
HETATM   18  N2  UNL     1      29.260   8.145  47.016  1.00  0.00    -0.379 N 
BRANCH  18  19
HETATM   19  C11 UNL     1      29.282   9.306  47.859  1.00  0.00     0.138 C 
BRANCH  19  20
HETATM   20  C12 UNL     1      29.855   9.211  49.211  1.00  0.00     0.134 C 
HETATM   21 CL1  UNL     1      31.356   8.311  49.323  1.00  0.00    -0.129 Cl
ENDBRANCH  19  20
ENDBRANCH  18  19
BRANCH  18  22
HETATM   22  C13 UNL     1      29.965   8.274  45.808  1.00  0.00     0.138 C 
BRANCH  22  23
HETATM   23  C14 UNL     1      31.442   8.082  45.765  1.00  0.00     0.134 C 
HETATM   24 CL2  UNL     1      31.966   6.466  46.284  1.00  0.00    -0.129 Cl
ENDBRANCH  22  23
ENDBRANCH  18  22
ENDBRANCH   4  18
TORSDOF 7
ENDMDL
MODEL 8
REMARK VINA RESULT:      -6.4      7.489      8.643
REMARK  7 active torsions:
REMARK  status: ('A' for Active; 'I' for Inactive)
REMARK    1  A    between atoms: C5_5  and  N1_6 
REMARK       I    between atoms: N1_6  and  C6_7 
REMARK    2  A    between atoms: C6_7  and  C7_9 
REMARK    3  A    between atoms: C10_12  and  N2_13 
REMARK    4  A    between atoms: N2_13  and  C11_14 
REMARK    5  A    between atoms: N2_13  and  C13_17 
REMARK    6  A    between atoms: C11_14  and  C12_15 
REMARK    7  A    between atoms: C13_17  and  C14_18 
ROOT
HETATM    1  C7  UNL     1      27.276   5.234  48.770  1.00  0.00     0.032 A 
HETATM    2  C8  UNL     1      26.326   6.204  48.559  1.00  0.00     0.019 A 
HETATM    3  C9  UNL     1      25.000   5.933  48.823  1.00  0.00     0.030 A 
HETATM    4  C10 UNL     1      24.528   4.718  49.303  1.00  0.00     0.030 A 
HETATM    5  C15 UNL     1      25.537   3.817  49.482  1.00  0.00     0.030 A 
HETATM    6  C16 UNL     1      26.867   4.029  49.238  1.00  0.00     0.019 A 
ENDROOT
BRANCH   1   7
HETATM    7  C6  UNL     1      28.675   5.531  48.505  1.00  0.00     0.256 C 
HETATM    8  N1  UNL     1      29.302   6.767  48.855  1.00  0.00    -0.323 N 
HETATM    9  H6  UNL     1      28.761   7.516  49.331  1.00  0.00     0.169 HD
HETATM   10  O1  UNL     1      29.470   4.733  47.946  1.00  0.00    -0.267 OA
BRANCH   8  11
HETATM   11  C5  UNL     1      30.687   6.730  48.449  1.00  0.00     0.035 A 
HETATM   12  C4  UNL     1      31.495   6.188  49.452  1.00  0.00     0.030 A 
HETATM   13  C3  UNL     1      32.836   6.106  49.163  1.00  0.00     0.009 A 
HETATM   14  C2  UNL     1      33.334   6.537  47.955  1.00  0.00    -0.062 A 
HETATM   15  C1  UNL     1      34.773   6.434  47.671  1.00  0.00     0.048 C 
HETATM   16  C18 UNL     1      32.497   7.074  46.975  1.00  0.00     0.009 A 
HETATM   17  C17 UNL     1      31.144   7.174  47.227  1.00  0.00     0.030 A 
ENDBRANCH   8  11
ENDBRANCH   1   7
BRANCH   4  18
HETATM   18  N2  UNL     1      23.118   4.498  49.500  1.00  0.00    -0.379 N 
BRANCH  18  19
HETATM   19  C11 UNL     1      22.435   4.560  48.238  1.00  0.00     0.138 C 
BRANCH  19  20
HETATM   20  C12 UNL     1      21.678   3.390  47.764  1.00  0.00     0.134 C 
HETATM   21 CL1  UNL     1      22.633   1.944  47.496  1.00  0.00    -0.129 Cl
ENDBRANCH  19  20
ENDBRANCH  18  19
BRANCH  18  22
HETATM   22  C13 UNL     1      22.289   4.299  50.615  1.00  0.00     0.138 C 
BRANCH  22  23
HETATM   23  C14 UNL     1      22.622   3.269  51.638  1.00  0.00     0.134 C 
HETATM   24 CL2  UNL     1      23.026   1.683  50.946  1.00  0.00    -0.129 Cl
ENDBRANCH  22  23
ENDBRANCH  18  22
ENDBRANCH   4  18
TORSDOF 7
ENDMDL
MODEL 9
REMARK VINA RESULT:      -6.3      2.122      2.854
REMARK  7 active torsions:
REMARK  status: ('A' for Active; 'I' for Inactive)
REMARK    1  A    between atoms: C5_5  and  N1_6 
REMARK       I    between atoms: N1_6  and  C6_7 
REMARK    2  A    between atoms: C6_7  and  C7_9 
REMARK    3  A    between atoms: C10_12  and  N2_13 
REMARK    4  A    between atoms: N2_13  and  C11_14 
REMARK    5  A    between atoms: N2_13  and  C13_17 
REMARK    6  A    between atoms: C11_14  and  C12_15 
REMARK    7  A    between atoms: C13_17  and  C14_18 
ROOT
HETATM    1  C7  UNL     1      22.976   1.494  52.072  1.00  0.00     0.032 A 
HETATM    2  C8  UNL     1      22.777   2.853  52.118  1.00  0.00     0.019 A 
HETATM    3  C9  UNL     1      21.528   3.372  51.851  1.00  0.00     0.030 A 
HETATM    4  C10 UNL     1      20.413   2.608  51.529  1.00  0.00     0.030 A 
HETATM    5  C15 UNL     1      20.703   1.275  51.505  1.00  0.00     0.030 A 
HETATM    6  C16 UNL     1      21.919   0.703  51.761  1.00  0.00     0.019 A 
ENDROOT
BRANCH   1   7
HETATM    7  C6  UNL     1      24.293   0.952  52.370  1.00  0.00     0.256 C 
HETATM    8  N1  UNL     1      24.542   0.006  53.413  1.00  0.00    -0.323 N 
HETATM    9  H6  UNL     1      23.763  -0.338  54.009  1.00  0.00     0.169 HD
HETATM   10  O1  UNL     1      25.338   1.257  51.742  1.00  0.00    -0.267 OA
BRANCH   8  11
HETATM   11  C5  UNL     1      25.948  -0.317  53.436  1.00  0.00     0.035 A 
HETATM   12  C4  UNL     1      26.643   0.514  54.320  1.00  0.00     0.030 A 
HETATM   13  C3  UNL     1      27.995   0.286  54.419  1.00  0.00     0.009 A 
HETATM   14  C2  UNL     1      28.609  -0.703  53.684  1.00  0.00    -0.062 A 
HETATM   15  C1  UNL     1      30.057  -0.926  53.812  1.00  0.00     0.048 C 
HETATM   16  C18 UNL     1      27.882  -1.514  52.810  1.00  0.00     0.009 A 
HETATM   17  C17 UNL     1      26.523  -1.317  52.683  1.00  0.00     0.030 A 
ENDBRANCH   8  11
ENDBRANCH   1   7
BRANCH   4  18
HETATM   18  N2  UNL     1      19.155   3.233  51.208  1.00  0.00    -0.379 N 
BRANCH  18  19
HETATM   19  C11 UNL     1      19.367   4.300  50.271  1.00  0.00     0.138 C 
BRANCH  19  20
HETATM   20  C12 UNL     1      19.423   4.002  48.831  1.00  0.00     0.134 C 
HETATM   21 CL1  UNL     1      21.031   3.728  48.189  1.00  0.00    -0.129 Cl
ENDBRANCH  19  20
ENDBRANCH  18  19
BRANCH  18  22
HETATM   22  C13 UNL     1      17.828   3.072  51.635  1.00  0.00     0.138 C 
BRANCH  22  23
HETATM   23  C14 UNL     1      17.097   1.798  51.383  1.00  0.00     0.134 C 
HETATM   24 CL2  UNL     1      17.511   1.033  49.834  1.00  0.00    -0.129 Cl
ENDBRANCH  22  23
ENDBRANCH  18  22
ENDBRANCH   4  18
TORSDOF 7
ENDMDL
