MODEL 1
REMARK VINA RESULT:      -7.4      0.000      0.000
REMARK  9 active torsions:
REMARK  status: ('A' for Active; 'I' for Inactive)
REMARK    1  A    between atoms: O1_2  and  C2_3 
REMARK    2  A    between atoms: C2_3  and  C16_21 
REMARK    3  A    between atoms: C3_4  and  C4_5 
REMARK    4  A    between atoms: C4_5  and  C5_6 
REMARK    5  A    between atoms: C5_6  and  N1_7 
REMARK    6  A    between atoms: N1_7  and  C6_8 
REMARK    7  A    between atoms: C10_13  and  C11_14 
REMARK    8  A    between atoms: C11_14  and  N3_15 
REMARK    9  A    between atoms: C12_16  and  O2_17 
ROOT
HETATM    1  C6  UNL     1      26.941   1.453  52.512  1.00  0.00     0.094 A 
HETATM    2  N2  UNL     1      28.257   2.438  52.682  1.00  0.00    -0.219 NA
HETATM    3  C7  UNL     1      28.761   1.219  53.559  1.00  0.00     0.125 A 
HETATM    4  C8  UNL     1      27.302   0.596  53.000  1.00  0.00     0.028 A 
HETATM    5  C9  UNL     1      26.374   1.924  53.242  1.00  0.00     0.075 A 
HETATM    6  C10 UNL     1      24.927   2.375  52.961  1.00  0.00    -0.013 C 
HETATM    7  C12 UNL     1      24.703   1.178  52.336  1.00  0.00     0.064 C 
HETATM    8  C14 UNL     1      25.648   0.275  52.348  1.00  0.00     0.069 C 
HETATM    9  C15 UNL     1      26.683  -0.469  52.468  1.00  0.00     0.026 C 
ENDROOT
BRANCH   1  10
HETATM   10  N1  UNL     1      26.713   2.614  51.199  1.00  0.00    -0.394 N 
HETATM   11  H7  UNL     1      26.707   3.684  51.355  1.00  0.00     0.155 HD
BRANCH  10  12
HETATM   12  C5  UNL     1      26.510   2.972  49.857  1.00  0.00     0.136 C 
BRANCH  12  13
HETATM   13  C4  UNL     1      26.462   4.176  49.348  1.00  0.00     0.024 C 
BRANCH  13  14
HETATM   14  C3  UNL     1      26.419   5.587  48.890  1.00  0.00     0.015 C 
HETATM   15  C2  UNL     1      27.256   6.450  48.418  1.00  0.00     0.097 C 
BRANCH  15  16
HETATM   16  O1  UNL     1      26.535   7.583  48.204  1.00  0.00    -0.353 OA
HETATM   17  C1  UNL     1      25.182   7.498  47.757  1.00  0.00     0.210 C 
ENDBRANCH  15  16
BRANCH  15  18
HETATM   18  C16 UNL     1      28.643   6.141  48.212  1.00  0.00     0.100 A 
HETATM   19  C17 UNL     1      29.533   6.725  47.495  1.00  0.00     0.039 A 
HETATM   20  C18 UNL     1      30.559   5.763  47.889  1.00  0.00     0.206 A 
HETATM   21  O3  UNL     1      29.525   5.194  48.641  1.00  0.00    -0.345 OA
ENDBRANCH  15  18
ENDBRANCH  13  14
ENDBRANCH  12  13
ENDBRANCH  10  12
ENDBRANCH   1  10
BRANCH   7  22
HETATM   22  O2  UNL     1      23.572   1.588  52.002  1.00  0.00    -0.359 OA
HETATM   23  C13 UNL     1      22.838   1.417  50.801  1.00  0.00     0.209 C 
ENDBRANCH   7  22
BRANCH   6  24
HETATM   24  C11 UNL     1      24.295   3.623  53.397  1.00  0.00     0.304 C 
BRANCH  24  25
HETATM   25  N3  UNL     1      24.179   4.521  52.266  1.00  0.00     0.082 N 
HETATM   26  H13 UNL     1      23.195   4.825  52.104  1.00  0.00     0.313 HD
HETATM   27  H14 UNL     1      24.765   5.374  52.381  1.00  0.00     0.313 HD
ENDBRANCH  24  25
ENDBRANCH   6  24
TORSDOF 9
ENDMDL
MODEL 2
REMARK VINA RESULT:      -7.4      1.018      2.331
REMARK  9 active torsions:
REMARK  status: ('A' for Active; 'I' for Inactive)
REMARK    1  A    between atoms: O1_2  and  C2_3 
REMARK    2  A    between atoms: C2_3  and  C16_21 
REMARK    3  A    between atoms: C3_4  and  C4_5 
REMARK    4  A    between atoms: C4_5  and  C5_6 
REMARK    5  A    between atoms: C5_6  and  N1_7 
REMARK    6  A    between atoms: N1_7  and  C6_8 
REMARK    7  A    between atoms: C10_13  and  C11_14 
REMARK    8  A    between atoms: C11_14  and  N3_15 
REMARK    9  A    between atoms: C12_16  and  O2_17 
ROOT
HETATM    1  C6  UNL     1      26.910   1.517  52.480  1.00  0.00     0.094 A 
HETATM    2  N2  UNL     1      28.228   2.488  52.700  1.00  0.00    -0.219 NA
HETATM    3  C7  UNL     1      28.712   1.238  53.546  1.00  0.00     0.125 A 
HETATM    4  C8  UNL     1      27.259   0.642  52.946  1.00  0.00     0.028 A 
HETATM    5  C9  UNL     1      26.334   1.967  53.216  1.00  0.00     0.075 A 
HETATM    6  C10 UNL     1      24.894   2.436  52.928  1.00  0.00    -0.013 C 
HETATM    7  C12 UNL     1      24.673   1.260  52.263  1.00  0.00     0.064 C 
HETATM    8  C14 UNL     1      25.613   0.352  52.260  1.00  0.00     0.069 C 
HETATM    9  C15 UNL     1      26.642  -0.401  52.371  1.00  0.00     0.026 C 
ENDROOT
BRANCH   1  10
HETATM   10  N1  UNL     1      26.708   2.719  51.201  1.00  0.00    -0.394 N 
HETATM   11  H7  UNL     1      26.725   3.785  51.387  1.00  0.00     0.155 HD
BRANCH  10  12
HETATM   12  C5  UNL     1      26.513   3.120  49.870  1.00  0.00     0.136 C 
BRANCH  12  13
HETATM   13  C4  UNL     1      26.877   4.246  49.312  1.00  0.00     0.024 C 
BRANCH  13  14
HETATM   14  C3  UNL     1      27.234   5.481  48.571  1.00  0.00     0.015 C 
HETATM   15  C2  UNL     1      26.837   6.710  48.542  1.00  0.00     0.097 C 
BRANCH  15  16
HETATM   16  O1  UNL     1      27.613   7.325  47.609  1.00  0.00    -0.353 OA
HETATM   17  C1  UNL     1      29.029   7.148  47.624  1.00  0.00     0.210 C 
ENDBRANCH  15  16
BRANCH  15  18
HETATM   18  C16 UNL     1      25.777   7.195  49.380  1.00  0.00     0.100 A 
HETATM   19  C17 UNL     1      24.801   7.986  49.122  1.00  0.00     0.039 A 
HETATM   20  C18 UNL     1      24.296   7.896  50.490  1.00  0.00     0.206 A 
HETATM   21  O3  UNL     1      25.388   7.043  50.678  1.00  0.00    -0.345 OA
ENDBRANCH  15  18
ENDBRANCH  13  14
ENDBRANCH  12  13
ENDBRANCH  10  12
ENDBRANCH   1  10
BRANCH   7  22
HETATM   22  O2  UNL     1      23.549   1.688  51.925  1.00  0.00    -0.359 OA
HETATM   23  C13 UNL     1      22.829   1.551  50.711  1.00  0.00     0.209 C 
ENDBRANCH   7  22
BRANCH   6  24
HETATM   24  C11 UNL     1      24.263   3.673  53.394  1.00  0.00     0.304 C 
BRANCH  24  25
HETATM   25  N3  UNL     1      24.171   4.609  52.291  1.00  0.00     0.082 N 
HETATM   26  H13 UNL     1      23.250   5.096  52.263  1.00  0.00     0.313 HD
HETATM   27  H14 UNL     1      24.919   5.333  52.328  1.00  0.00     0.313 HD
ENDBRANCH  24  25
ENDBRANCH   6  24
TORSDOF 9
ENDMDL
MODEL 3
REMARK VINA RESULT:      -7.2      2.280      3.276
REMARK  9 active torsions:
REMARK  status: ('A' for Active; 'I' for Inactive)
REMARK    1  A    between atoms: O1_2  and  C2_3 
REMARK    2  A    between atoms: C2_3  and  C16_21 
REMARK    3  A    between atoms: C3_4  and  C4_5 
REMARK    4  A    between atoms: C4_5  and  C5_6 
REMARK    5  A    between atoms: C5_6  and  N1_7 
REMARK    6  A    between atoms: N1_7  and  C6_8 
REMARK    7  A    between atoms: C10_13  and  C11_14 
REMARK    8  A    between atoms: C11_14  and  N3_15 
REMARK    9  A    between atoms: C12_16  and  O2_17 
ROOT
HETATM    1  C6  UNL     1      28.563   0.942  53.782  1.00  0.00     0.094 A 
HETATM    2  N2  UNL     1      28.440   2.542  54.178  1.00  0.00    -0.219 NA
HETATM    3  C7  UNL     1      29.813   2.224  54.903  1.00  0.00     0.125 A 
HETATM    4  C8  UNL     1      29.520   0.742  54.164  1.00  0.00     0.028 A 
HETATM    5  C9  UNL     1      27.930   0.608  54.532  1.00  0.00     0.075 A 
HETATM    6  C10 UNL     1      26.760  -0.347  54.224  1.00  0.00    -0.013 C 
HETATM    7  C12 UNL     1      27.599  -1.072  53.420  1.00  0.00     0.064 C 
HETATM    8  C14 UNL     1      28.861  -0.738  53.365  1.00  0.00     0.069 C 
HETATM    9  C15 UNL     1      30.046  -0.260  53.445  1.00  0.00     0.026 C 
ENDROOT
BRANCH   1  10
HETATM   10  N1  UNL     1      27.347   1.520  52.637  1.00  0.00    -0.394 N 
HETATM   11  H7  UNL     1      26.508   2.137  52.931  1.00  0.00     0.155 HD
BRANCH  10  12
HETATM   12  C5  UNL     1      26.782   1.647  51.358  1.00  0.00     0.136 C 
BRANCH  12  13
HETATM   13  C4  UNL     1      26.127   2.669  50.870  1.00  0.00     0.024 C 
BRANCH  13  14
HETATM   14  C3  UNL     1      25.281   3.752  50.311  1.00  0.00     0.015 C 
HETATM   15  C2  UNL     1      25.449   4.778  49.545  1.00  0.00     0.097 C 
BRANCH  15  16
HETATM   16  O1  UNL     1      24.224   5.358  49.434  1.00  0.00    -0.353 OA
HETATM   17  C1  UNL     1      23.397   5.077  48.304  1.00  0.00     0.210 C 
ENDBRANCH  15  16
BRANCH  15  18
HETATM   18  C16 UNL     1      26.729   5.122  48.993  1.00  0.00     0.100 A 
HETATM   19  C17 UNL     1      27.186   6.247  48.579  1.00  0.00     0.039 A 
HETATM   20  C18 UNL     1      28.473   5.654  48.224  1.00  0.00     0.206 A 
HETATM   21  O3  UNL     1      27.891   4.473  48.697  1.00  0.00    -0.345 OA
ENDBRANCH  15  18
ENDBRANCH  13  14
ENDBRANCH  12  13
ENDBRANCH  10  12
ENDBRANCH   1  10
BRANCH   7  22
HETATM   22  O2  UNL     1      26.626  -1.774  53.074  1.00  0.00    -0.359 OA
HETATM   23  C13 UNL     1      26.313  -2.382  51.832  1.00  0.00     0.209 C 
ENDBRANCH   7  22
BRANCH   6  24
HETATM   24  C11 UNL     1      25.411  -0.297  54.792  1.00  0.00     0.304 C 
BRANCH  24  25
HETATM   25  N3  UNL     1      25.319  -1.238  55.890  1.00  0.00     0.082 N 
HETATM   26  H13 UNL     1      24.499  -1.875  55.796  1.00  0.00     0.313 HD
HETATM   27  H14 UNL     1      26.175  -1.824  55.977  1.00  0.00     0.313 HD
ENDBRANCH  24  25
ENDBRANCH   6  24
TORSDOF 9
ENDMDL
MODEL 4
REMARK VINA RESULT:      -6.9      2.768      6.572
REMARK  9 active torsions:
REMARK  status: ('A' for Active; 'I' for Inactive)
REMARK    1  A    between atoms: O1_2  and  C2_3 
REMARK    2  A    between atoms: C2_3  and  C16_21 
REMARK    3  A    between atoms: C3_4  and  C4_5 
REMARK    4  A    between atoms: C4_5  and  C5_6 
REMARK    5  A    between atoms: C5_6  and  N1_7 
REMARK    6  A    between atoms: N1_7  and  C6_8 
REMARK    7  A    between atoms: C10_13  and  C11_14 
REMARK    8  A    between atoms: C11_14  and  N3_15 
REMARK    9  A    between atoms: C12_16  and  O2_17 
ROOT
HETATM    1  C6  UNL     1      22.007   3.262  50.053  1.00  0.00     0.094 A 
HETATM    2  N2  UNL     1      20.622   3.385  50.945  1.00  0.00    -0.219 NA
HETATM    3  C7  UNL     1      19.965   3.122  49.528  1.00  0.00     0.125 A 
HETATM    4  C8  UNL     1      21.593   2.981  49.128  1.00  0.00     0.028 A 
HETATM    5  C9  UNL     1      22.148   4.285  49.952  1.00  0.00     0.075 A 
HETATM    6  C10 UNL     1      23.504   4.940  50.278  1.00  0.00    -0.013 C 
HETATM    7  C12 UNL     1      24.127   3.917  49.616  1.00  0.00     0.064 C 
HETATM    8  C14 UNL     1      23.395   3.026  49.002  1.00  0.00     0.069 C 
HETATM    9  C15 UNL     1      22.514   2.263  48.469  1.00  0.00     0.026 C 
ENDROOT
BRANCH   1  10
HETATM   10  N1  UNL     1      22.606   3.066  51.704  1.00  0.00    -0.394 N 
HETATM   11  H7  UNL     1      22.463   3.812  52.474  1.00  0.00     0.155 HD
BRANCH  10  12
HETATM   12  C5  UNL     1      23.260   2.368  52.730  1.00  0.00     0.136 C 
BRANCH  12  13
HETATM   13  C4  UNL     1      24.529   2.410  53.045  1.00  0.00     0.024 C 
BRANCH  13  14
HETATM   14  C3  UNL     1      25.932   2.454  53.525  1.00  0.00     0.015 C 
HETATM   15  C2  UNL     1      26.913   1.622  53.644  1.00  0.00     0.097 C 
BRANCH  15  16
HETATM   16  O1  UNL     1      27.942   2.341  54.169  1.00  0.00    -0.353 OA
HETATM   17  C1  UNL     1      29.214   1.726  54.375  1.00  0.00     0.210 C 
ENDBRANCH  15  16
BRANCH  15  18
HETATM   18  C16 UNL     1      26.802   0.243  53.262  1.00  0.00     0.100 A 
HETATM   19  C17 UNL     1      26.705  -0.299  52.103  1.00  0.00     0.039 A 
HETATM   20  C18 UNL     1      26.644  -1.641  52.676  1.00  0.00     0.206 A 
HETATM   21  O3  UNL     1      26.754  -0.963  53.895  1.00  0.00    -0.345 OA
ENDBRANCH  15  18
ENDBRANCH  13  14
ENDBRANCH  12  13
ENDBRANCH  10  12
ENDBRANCH   1  10
BRANCH   7  22
HETATM   22  O2  UNL     1      25.228   4.379  49.982  1.00  0.00    -0.359 OA
HETATM   23  C13 UNL     1      26.485   4.418  49.326  1.00  0.00     0.209 C 
ENDBRANCH   7  22
BRANCH   6  24
HETATM   24  C11 UNL     1      23.722   6.214  50.968  1.00  0.00     0.304 C 
BRANCH  24  25
HETATM   25  N3  UNL     1      24.100   5.956  52.342  1.00  0.00     0.082 N 
HETATM   26  H13 UNL     1      25.047   6.329  52.567  1.00  0.00     0.313 HD
HETATM   27  H14 UNL     1      23.422   6.365  53.019  1.00  0.00     0.313 HD
ENDBRANCH  24  25
ENDBRANCH   6  24
TORSDOF 9
ENDMDL
MODEL 5
REMARK VINA RESULT:      -6.8      2.589      3.717
REMARK  9 active torsions:
REMARK  status: ('A' for Active; 'I' for Inactive)
REMARK    1  A    between atoms: O1_2  and  C2_3 
REMARK    2  A    between atoms: C2_3  and  C16_21 
REMARK    3  A    between atoms: C3_4  and  C4_5 
REMARK    4  A    between atoms: C4_5  and  C5_6 
REMARK    5  A    between atoms: C5_6  and  N1_7 
REMARK    6  A    between atoms: N1_7  and  C6_8 
REMARK    7  A    between atoms: C10_13  and  C11_14 
REMARK    8  A    between atoms: C11_14  and  N3_15 
REMARK    9  A    between atoms: C12_16  and  O2_17 
ROOT
HETATM    1  C6  UNL     1      27.065   1.404  52.522  1.00  0.00     0.094 A 
HETATM    2  N2  UNL     1      28.313   2.473  52.689  1.00  0.00    -0.219 NA
HETATM    3  C7  UNL     1      28.929   1.263  53.505  1.00  0.00     0.125 A 
HETATM    4  C8  UNL     1      27.501   0.557  52.967  1.00  0.00     0.028 A 
HETATM    5  C9  UNL     1      26.490   1.807  53.286  1.00  0.00     0.075 A 
HETATM    6  C10 UNL     1      25.006   2.163  53.065  1.00  0.00    -0.013 C 
HETATM    7  C12 UNL     1      24.847   0.975  52.404  1.00  0.00     0.064 C 
HETATM    8  C14 UNL     1      25.853   0.143  52.353  1.00  0.00     0.069 C 
HETATM    9  C15 UNL     1      26.941  -0.529  52.414  1.00  0.00     0.026 C 
ENDROOT
BRANCH   1  10
HETATM   10  N1  UNL     1      26.713   2.590  51.261  1.00  0.00    -0.394 N 
HETATM   11  H7  UNL     1      26.477   3.624  51.475  1.00  0.00     0.155 HD
BRANCH  10  12
HETATM   12  C5  UNL     1      26.551   3.000  49.928  1.00  0.00     0.136 C 
BRANCH  12  13
HETATM   13  C4  UNL     1      25.643   3.806  49.443  1.00  0.00     0.024 C 
BRANCH  13  14
HETATM   14  C3  UNL     1      24.550   4.708  49.003  1.00  0.00     0.015 C 
HETATM   15  C2  UNL     1      23.337   4.580  48.577  1.00  0.00     0.097 C 
BRANCH  15  16
HETATM   16  O1  UNL     1      22.893   5.845  48.348  1.00  0.00    -0.353 OA
HETATM   17  C1  UNL     1      21.492   6.109  48.262  1.00  0.00     0.210 C 
ENDBRANCH  15  16
BRANCH  15  18
HETATM   18  C16 UNL     1      22.709   3.298  48.422  1.00  0.00     0.100 A 
HETATM   19  C17 UNL     1      22.068   2.573  49.264  1.00  0.00     0.039 A 
HETATM   20  C18 UNL     1      21.827   1.533  48.267  1.00  0.00     0.206 A 
HETATM   21  O3  UNL     1      22.537   2.390  47.419  1.00  0.00    -0.345 OA
ENDBRANCH  15  18
ENDBRANCH  13  14
ENDBRANCH  12  13
ENDBRANCH  10  12
ENDBRANCH   1  10
BRANCH   7  22
HETATM   22  O2  UNL     1      23.679   1.316  52.119  1.00  0.00    -0.359 OA
HETATM   23  C13 UNL     1      22.454   0.610  52.224  1.00  0.00     0.209 C 
ENDBRANCH   7  22
BRANCH   6  24
HETATM   24  C11 UNL     1      24.303   3.346  53.567  1.00  0.00     0.304 C 
BRANCH  24  25
HETATM   25  N3  UNL     1      24.057   4.258  52.468  1.00  0.00     0.082 N 
HETATM   26  H13 UNL     1      23.306   3.915  51.831  1.00  0.00     0.313 HD
HETATM   27  H14 UNL     1      23.791   5.209  52.800  1.00  0.00     0.313 HD
ENDBRANCH  24  25
ENDBRANCH   6  24
TORSDOF 9
ENDMDL
MODEL 6
REMARK VINA RESULT:      -6.8      2.623      7.410
REMARK  9 active torsions:
REMARK  status: ('A' for Active; 'I' for Inactive)
REMARK    1  A    between atoms: O1_2  and  C2_3 
REMARK    2  A    between atoms: C2_3  and  C16_21 
REMARK    3  A    between atoms: C3_4  and  C4_5 
REMARK    4  A    between atoms: C4_5  and  C5_6 
REMARK    5  A    between atoms: C5_6  and  N1_7 
REMARK    6  A    between atoms: N1_7  and  C6_8 
REMARK    7  A    between atoms: C10_13  and  C11_14 
REMARK    8  A    between atoms: C11_14  and  N3_15 
REMARK    9  A    between atoms: C12_16  and  O2_17 
ROOT
HETATM    1  C6  UNL     1      22.618   3.868  50.315  1.00  0.00     0.094 A 
HETATM    2  N2  UNL     1      21.334   4.250  51.282  1.00  0.00    -0.219 NA
HETATM    3  C7  UNL     1      20.532   3.824  49.984  1.00  0.00     0.125 A 
HETATM    4  C8  UNL     1      22.102   3.482  49.486  1.00  0.00     0.028 A 
HETATM    5  C9  UNL     1      22.823   4.845  50.036  1.00  0.00     0.075 A 
HETATM    6  C10 UNL     1      24.248   5.424  50.142  1.00  0.00    -0.013 C 
HETATM    7  C12 UNL     1      24.731   4.258  49.611  1.00  0.00     0.064 C 
HETATM    8  C14 UNL     1      23.882   3.348  49.211  1.00  0.00     0.069 C 
HETATM    9  C15 UNL     1      22.903   2.591  48.883  1.00  0.00     0.026 C 
ENDROOT
BRANCH   1  10
HETATM   10  N1  UNL     1      23.351   3.884  51.923  1.00  0.00    -0.394 N 
HETATM   11  H7  UNL     1      23.359   4.760  52.557  1.00  0.00     0.155 HD
BRANCH  10  12
HETATM   12  C5  UNL     1      24.027   3.296  53.004  1.00  0.00     0.136 C 
BRANCH  12  13
HETATM   13  C4  UNL     1      24.628   2.135  53.036  1.00  0.00     0.024 C 
BRANCH  13  14
HETATM   14  C3  UNL     1      25.240   0.785  52.972  1.00  0.00     0.015 C 
HETATM   15  C2  UNL     1      24.900  -0.419  53.291  1.00  0.00     0.097 C 
BRANCH  15  16
HETATM   16  O1  UNL     1      25.960  -1.202  52.955  1.00  0.00    -0.353 OA
HETATM   17  C1  UNL     1      27.275  -0.648  52.912  1.00  0.00     0.210 C 
ENDBRANCH  15  16
BRANCH  15  18
HETATM   18  C16 UNL     1      23.626  -0.727  53.878  1.00  0.00     0.100 A 
HETATM   19  C17 UNL     1      22.456  -0.786  53.355  1.00  0.00     0.039 A 
HETATM   20  C18 UNL     1      21.844  -1.143  54.632  1.00  0.00     0.206 A 
HETATM   21  O3  UNL     1      23.154  -1.057  55.114  1.00  0.00    -0.345 OA
ENDBRANCH  15  18
ENDBRANCH  13  14
ENDBRANCH  12  13
ENDBRANCH  10  12
ENDBRANCH   1  10
BRANCH   7  22
HETATM   22  O2  UNL     1      25.892   4.675  49.807  1.00  0.00    -0.359 OA
HETATM   23  C13 UNL     1      27.077   4.521  49.044  1.00  0.00     0.209 C 
ENDBRANCH   7  22
BRANCH   6  24
HETATM   24  C11 UNL     1      24.620   6.766  50.593  1.00  0.00     0.304 C 
BRANCH  24  25
HETATM   25  N3  UNL     1      24.522   6.831  52.037  1.00  0.00     0.082 N 
HETATM   26  H13 UNL     1      25.451   6.733  52.500  1.00  0.00     0.313 HD
HETATM   27  H14 UNL     1      24.092   7.723  52.361  1.00  0.00     0.313 HD
ENDBRANCH  24  25
ENDBRANCH   6  24
TORSDOF 9
ENDMDL
MODEL 7
REMARK VINA RESULT:      -6.6      3.535      6.366
REMARK  9 active torsions:
REMARK  status: ('A' for Active; 'I' for Inactive)
REMARK    1  A    between atoms: O1_2  and  C2_3 
REMARK    2  A    between atoms: C2_3  and  C16_21 
REMARK    3  A    between atoms: C3_4  and  C4_5 
REMARK    4  A    between atoms: C4_5  and  C5_6 
REMARK    5  A    between atoms: C5_6  and  N1_7 
REMARK    6  A    between atoms: N1_7  and  C6_8 
REMARK    7  A    between atoms: C10_13  and  C11_14 
REMARK    8  A    between atoms: C11_14  and  N3_15 
REMARK    9  A    between atoms: C12_16  and  O2_17 
ROOT
HETATM    1  C6  UNL     1      24.128   4.566  51.027  1.00  0.00     0.094 A 
HETATM    2  N2  UNL     1      25.309   5.403  50.232  1.00  0.00    -0.219 NA
HETATM    3  C7  UNL     1      24.508   6.634  50.828  1.00  0.00     0.125 A 
HETATM    4  C8  UNL     1      23.649   5.363  51.516  1.00  0.00     0.028 A 
HETATM    5  C9  UNL     1      23.538   4.410  50.188  1.00  0.00     0.075 A 
HETATM    6  C10 UNL     1      23.017   3.005  49.827  1.00  0.00    -0.013 C 
HETATM    7  C12 UNL     1      22.703   2.813  51.145  1.00  0.00     0.064 C 
HETATM    8  C14 UNL     1      22.866   3.803  51.983  1.00  0.00     0.069 C 
HETATM    9  C15 UNL     1      23.092   4.880  52.637  1.00  0.00     0.026 C 
ENDROOT
BRANCH   1  10
HETATM   10  N1  UNL     1      25.345   3.317  50.741  1.00  0.00    -0.394 N 
HETATM   11  H7  UNL     1      25.679   3.037  49.751  1.00  0.00     0.155 HD
BRANCH  10  12
HETATM   12  C5  UNL     1      26.265   2.340  51.150  1.00  0.00     0.136 C 
BRANCH  12  13
HETATM   13  C4  UNL     1      26.203   1.574  52.208  1.00  0.00     0.024 C 
BRANCH  13  14
HETATM   14  C3  UNL     1      26.009   0.685  53.380  1.00  0.00     0.015 C 
HETATM   15  C2  UNL     1      26.747  -0.078  54.116  1.00  0.00     0.097 C 
BRANCH  15  16
HETATM   16  O1  UNL     1      25.910  -0.618  55.042  1.00  0.00    -0.353 OA
HETATM   17  C1  UNL     1      24.552  -0.900  54.702  1.00  0.00     0.210 C 
ENDBRANCH  15  16
BRANCH  15  18
HETATM   18  C16 UNL     1      28.157  -0.233  53.889  1.00  0.00     0.100 A 
HETATM   19  C17 UNL     1      28.812  -1.169  53.305  1.00  0.00     0.039 A 
HETATM   20  C18 UNL     1      30.088  -0.501  53.550  1.00  0.00     0.206 A 
HETATM   21  O3  UNL     1      29.291   0.470  54.166  1.00  0.00    -0.345 OA
ENDBRANCH  15  18
ENDBRANCH  13  14
ENDBRANCH  12  13
ENDBRANCH  10  12
ENDBRANCH   1  10
BRANCH   7  22
HETATM   22  O2  UNL     1      22.394   1.633  50.877  1.00  0.00    -0.359 OA
HETATM   23  C13 UNL     1      22.027   0.553  51.720  1.00  0.00     0.209 C 
ENDBRANCH   7  22
BRANCH   6  24
HETATM   24  C11 UNL     1      22.934   2.415  48.489  1.00  0.00     0.304 C 
BRANCH  24  25
HETATM   25  N3  UNL     1      21.550   2.111  48.185  1.00  0.00     0.082 N 
HETATM   26  H13 UNL     1      21.029   1.772  49.021  1.00  0.00     0.313 HD
HETATM   27  H14 UNL     1      21.043   2.935  47.799  1.00  0.00     0.313 HD
ENDBRANCH  24  25
ENDBRANCH   6  24
TORSDOF 9
ENDMDL
MODEL 8
REMARK VINA RESULT:      -6.6      2.615      6.568
REMARK  9 active torsions:
REMARK  status: ('A' for Active; 'I' for Inactive)
REMARK    1  A    between atoms: O1_2  and  C2_3 
REMARK    2  A    between atoms: C2_3  and  C16_21 
REMARK    3  A    between atoms: C3_4  and  C4_5 
REMARK    4  A    between atoms: C4_5  and  C5_6 
REMARK    5  A    between atoms: C5_6  and  N1_7 
REMARK    6  A    between atoms: N1_7  and  C6_8 
REMARK    7  A    between atoms: C10_13  and  C11_14 
REMARK    8  A    between atoms: C11_14  and  N3_15 
REMARK    9  A    between atoms: C12_16  and  O2_17 
ROOT
HETATM    1  C6  UNL     1      25.974   5.504  49.633  1.00  0.00     0.094 A 
HETATM    2  N2  UNL     1      27.180   4.599  48.958  1.00  0.00    -0.219 NA
HETATM    3  C7  UNL     1      27.573   6.008  48.348  1.00  0.00     0.125 A 
HETATM    4  C8  UNL     1      26.281   6.461  49.325  1.00  0.00     0.028 A 
HETATM    5  C9  UNL     1      25.255   5.245  48.931  1.00  0.00     0.075 A 
HETATM    6  C10 UNL     1      23.865   4.736  49.362  1.00  0.00    -0.013 C 
HETATM    7  C12 UNL     1      23.826   5.725  50.308  1.00  0.00     0.064 C 
HETATM    8  C14 UNL     1      24.798   6.597  50.348  1.00  0.00     0.069 C 
HETATM    9  C15 UNL     1      25.831   7.345  50.226  1.00  0.00     0.026 C 
ENDROOT
BRANCH   1  10
HETATM   10  N1  UNL     1      25.936   4.036  50.616  1.00  0.00    -0.394 N 
HETATM   11  H7  UNL     1      25.094   3.767  51.238  1.00  0.00     0.155 HD
BRANCH  10  12
HETATM   12  C5  UNL     1      26.474   2.836  51.107  1.00  0.00     0.136 C 
BRANCH  12  13
HETATM   13  C4  UNL     1      25.884   1.943  51.858  1.00  0.00     0.024 C 
BRANCH  13  14
HETATM   14  C3  UNL     1      25.329   0.906  52.763  1.00  0.00     0.015 C 
HETATM   15  C2  UNL     1      25.783   0.111  53.674  1.00  0.00     0.097 C 
BRANCH  15  16
HETATM   16  O1  UNL     1      24.707  -0.595  54.115  1.00  0.00    -0.353 OA
HETATM   17  C1  UNL     1      23.467  -0.528  53.410  1.00  0.00     0.210 C 
ENDBRANCH  15  16
BRANCH  15  18
HETATM   18  C16 UNL     1      27.169   0.081  54.047  1.00  0.00     0.100 A 
HETATM   19  C17 UNL     1      28.161  -0.551  53.534  1.00  0.00     0.039 A 
HETATM   20  C18 UNL     1      29.090   0.000  54.516  1.00  0.00     0.206 A 
HETATM   21  O3  UNL     1      27.953   0.650  55.007  1.00  0.00    -0.345 OA
ENDBRANCH  15  18
ENDBRANCH  13  14
ENDBRANCH  12  13
ENDBRANCH  10  12
ENDBRANCH   1  10
BRANCH   7  22
HETATM   22  O2  UNL     1      22.758   5.241  50.739  1.00  0.00    -0.359 OA
HETATM   23  C13 UNL     1      22.262   5.112  52.061  1.00  0.00     0.209 C 
ENDBRANCH   7  22
BRANCH   6  24
HETATM   24  C11 UNL     1      23.098   3.651  48.747  1.00  0.00     0.304 C 
BRANCH  24  25
HETATM   25  N3  UNL     1      23.044   2.526  49.660  1.00  0.00     0.082 N 
HETATM   26  H13 UNL     1      22.659   1.669  49.207  1.00  0.00     0.313 HD
HETATM   27  H14 UNL     1      23.981   2.293  50.051  1.00  0.00     0.313 HD
ENDBRANCH  24  25
ENDBRANCH   6  24
TORSDOF 9
ENDMDL
MODEL 9
REMARK VINA RESULT:      -6.6      2.406      6.884
REMARK  9 active torsions:
REMARK  status: ('A' for Active; 'I' for Inactive)
REMARK    1  A    between atoms: O1_2  and  C2_3 
REMARK    2  A    between atoms: C2_3  and  C16_21 
REMARK    3  A    between atoms: C3_4  and  C4_5 
REMARK    4  A    between atoms: C4_5  and  C5_6 
REMARK    5  A    between atoms: C5_6  and  N1_7 
REMARK    6  A    between atoms: N1_7  and  C6_8 
REMARK    7  A    between atoms: C10_13  and  C11_14 
REMARK    8  A    between atoms: C11_14  and  N3_15 
REMARK    9  A    between atoms: C12_16  and  O2_17 
ROOT
HETATM    1  C6  UNL     1      23.441   2.865  50.377  1.00  0.00     0.094 A 
HETATM    2  N2  UNL     1      23.224   2.078  51.813  1.00  0.00    -0.219 NA
HETATM    3  C7  UNL     1      21.912   1.585  51.074  1.00  0.00     0.125 A 
HETATM    4  C8  UNL     1      22.634   2.465  49.836  1.00  0.00     0.028 A 
HETATM    5  C9  UNL     1      23.077   3.777  50.711  1.00  0.00     0.075 A 
HETATM    6  C10 UNL     1      23.871   5.081  50.497  1.00  0.00    -0.013 C 
HETATM    7  C12 UNL     1      24.134   4.678  49.216  1.00  0.00     0.064 C 
HETATM    8  C14 UNL     1      23.586   3.576  48.777  1.00  0.00     0.069 C 
HETATM    9  C15 UNL     1      22.963   2.484  48.536  1.00  0.00     0.026 C 
ENDROOT
BRANCH   1  10
HETATM   10  N1  UNL     1      25.055   2.938  51.091  1.00  0.00    -0.394 N 
HETATM   11  H7  UNL     1      25.330   3.656  51.852  1.00  0.00     0.155 HD
BRANCH  10  12
HETATM   12  C5  UNL     1      26.382   2.509  51.248  1.00  0.00     0.136 C 
BRANCH  12  13
HETATM   13  C4  UNL     1      26.826   1.537  52.003  1.00  0.00     0.024 C 
BRANCH  13  14
HETATM   14  C3  UNL     1      27.381   0.384  52.753  1.00  0.00     0.015 C 
HETATM   15  C2  UNL     1      26.922  -0.557  53.509  1.00  0.00     0.097 C 
BRANCH  15  16
HETATM   16  O1  UNL     1      28.004  -1.295  53.876  1.00  0.00    -0.353 OA
HETATM   17  C1  UNL     1      29.289  -1.009  53.323  1.00  0.00     0.210 C 
ENDBRANCH  15  16
BRANCH  15  18
HETATM   18  C16 UNL     1      25.525  -0.681  53.818  1.00  0.00     0.100 A 
HETATM   19  C17 UNL     1      24.923  -0.774  54.948  1.00  0.00     0.039 A 
HETATM   20  C18 UNL     1      23.615  -0.854  54.304  1.00  0.00     0.206 A 
HETATM   21  O3  UNL     1      24.355  -0.746  53.122  1.00  0.00    -0.345 OA
ENDBRANCH  15  18
ENDBRANCH  13  14
ENDBRANCH  12  13
ENDBRANCH  10  12
ENDBRANCH   1  10
BRANCH   7  22
HETATM   22  O2  UNL     1      24.877   5.673  49.079  1.00  0.00    -0.359 OA
HETATM   23  C13 UNL     1      26.252   5.768  48.746  1.00  0.00     0.209 C 
ENDBRANCH   7  22
BRANCH   6  24
HETATM   24  C11 UNL     1      24.030   6.180  51.452  1.00  0.00     0.304 C 
BRANCH  24  25
HETATM   25  N3  UNL     1      23.776   5.691  52.792  1.00  0.00     0.082 N 
HETATM   26  H13 UNL     1      22.828   5.265  52.883  1.00  0.00     0.313 HD
HETATM   27  H14 UNL     1      24.479   4.983  53.091  1.00  0.00     0.313 HD
ENDBRANCH  24  25
ENDBRANCH   6  24
TORSDOF 9
ENDMDL
