MODEL 1
REMARK VINA RESULT:      -7.6      0.000      0.000
REMARK  5 active torsions:
REMARK  status: ('A' for Active; 'I' for Inactive)
REMARK       I    between atoms: C1_2  and  N1_3 
REMARK    1  A    between atoms: C1_2  and  C11_18 
REMARK    2  A    between atoms: N1_3  and  N2_4 
REMARK       I    between atoms: N2_4  and  C2_5 
REMARK    3  A    between atoms: C2_5  and  C3_7 
REMARK    4  A    between atoms: C5_10  and  C6_11 
REMARK    5  A    between atoms: C6_11  and  C7_12 
ROOT
HETATM    1  N2  UNL     1      25.970   4.689  50.505  1.00  0.00    -0.261 N 
HETATM    2  C2  UNL     1      24.568   4.463  50.518  1.00  0.00     0.295 C 
HETATM    3  O2  UNL     1      23.750   5.131  49.846  1.00  0.00    -0.264 OA
HETATM    4  H2  UNL     1      26.685   4.157  51.048  1.00  0.00     0.190 HD
ENDROOT
BRANCH   2   5
HETATM    5  C3  UNL     1      24.238   3.329  51.438  1.00  0.00     0.167 A 
HETATM    6  N3  UNL     1      23.440   2.851  52.106  1.00  0.00    -0.247 NA
HETATM    7  C4  UNL     1      23.562   1.745  52.817  1.00  0.00     0.133 A 
HETATM    8  C5  UNL     1      24.727   1.076  52.783  1.00  0.00     0.007 A 
HETATM    9  S2  UNL     1      25.669   2.104  51.675  1.00  0.00    -0.068 SA
BRANCH   8  10
HETATM   10  C6  UNL     1      25.080  -0.173  53.494  1.00  0.00     0.086 C 
BRANCH  10  11
HETATM   11  C7  UNL     1      26.540  -0.355  53.684  1.00  0.00    -0.046 A 
HETATM   12  C8  UNL     1      27.193   0.274  54.701  1.00  0.00     0.015 A 
HETATM   13  C9  UNL     1      28.598   0.089  54.865  1.00  0.00     0.050 A 
HETATM   14  S1  UNL     1      29.042  -1.042  53.511  1.00  0.00    -0.113 SA
HETATM   15  C10 UNL     1      27.339  -1.194  52.816  1.00  0.00     0.057 A 
ENDBRANCH  10  11
ENDBRANCH   8  10
ENDBRANCH   2   5
BRANCH   1  16
HETATM   16  N1  UNL     1      26.494   5.719  49.696  1.00  0.00    -0.263 N 
HETATM   17  C1  UNL     1      27.497   5.529  48.717  1.00  0.00     0.270 C 
HETATM   18  O1  UNL     1      27.902   4.339  48.611  1.00  0.00    -0.266 OA
HETATM   19  H1  UNL     1      26.131   6.711  49.810  1.00  0.00     0.190 HD
BRANCH  17  20
HETATM   20  C11 UNL     1      28.022   6.611  47.894  1.00  0.00     0.033 A 
HETATM   21  C12 UNL     1      29.329   6.770  47.464  1.00  0.00     0.017 A 
HETATM   22  C13 UNL     1      29.693   7.846  46.685  1.00  0.00     0.001 A 
HETATM   23  C14 UNL     1      28.787   8.813  46.294  1.00  0.00     0.000 A 
HETATM   24  C15 UNL     1      27.471   8.678  46.709  1.00  0.00     0.001 A 
HETATM   25  C16 UNL     1      27.123   7.596  47.489  1.00  0.00     0.017 A 
ENDBRANCH  17  20
ENDBRANCH   1  16
TORSDOF 5
ENDMDL
MODEL 2
REMARK VINA RESULT:      -7.5      2.660      4.678
REMARK  5 active torsions:
REMARK  status: ('A' for Active; 'I' for Inactive)
REMARK       I    between atoms: C1_2  and  N1_3 
REMARK    1  A    between atoms: C1_2  and  C11_18 
REMARK    2  A    between atoms: N1_3  and  N2_4 
REMARK       I    between atoms: N2_4  and  C2_5 
REMARK    3  A    between atoms: C2_5  and  C3_7 
REMARK    4  A    between atoms: C5_10  and  C6_11 
REMARK    5  A    between atoms: C6_11  and  C7_12 
ROOT
HETATM    1  N2  UNL     1      26.126   2.941  50.942  1.00  0.00    -0.261 N 
HETATM    2  C2  UNL     1      26.718   2.178  51.983  1.00  0.00     0.295 C 
HETATM    3  O2  UNL     1      27.913   2.295  52.338  1.00  0.00    -0.264 OA
HETATM    4  H2  UNL     1      25.138   2.876  50.616  1.00  0.00     0.190 HD
ENDROOT
BRANCH   2   5
HETATM    5  C3  UNL     1      25.711   1.237  52.568  1.00  0.00     0.167 A 
HETATM    6  N3  UNL     1      25.546   0.299  53.203  1.00  0.00    -0.247 NA
HETATM    7  C4  UNL     1      24.387  -0.254  53.512  1.00  0.00     0.133 A 
HETATM    8  C5  UNL     1      23.256   0.310  53.058  1.00  0.00     0.007 A 
HETATM    9  S2  UNL     1      23.916   1.693  52.148  1.00  0.00    -0.068 SA
BRANCH   8  10
HETATM   10  C6  UNL     1      21.863  -0.136  53.280  1.00  0.00     0.086 C 
BRANCH  10  11
HETATM   11  C7  UNL     1      20.862   0.627  52.494  1.00  0.00    -0.046 A 
HETATM   12  C8  UNL     1      20.487   0.209  51.253  1.00  0.00     0.015 A 
HETATM   13  C9  UNL     1      19.526   0.958  50.511  1.00  0.00     0.050 A 
HETATM   14  S1  UNL     1      19.113   2.341  51.619  1.00  0.00    -0.113 SA
HETATM   15  C10 UNL     1      20.241   1.836  52.990  1.00  0.00     0.057 A 
ENDBRANCH  10  11
ENDBRANCH   8  10
ENDBRANCH   2   5
BRANCH   1  16
HETATM   16  N1  UNL     1      26.909   3.894  50.256  1.00  0.00    -0.263 N 
HETATM   17  C1  UNL     1      26.413   4.757  49.252  1.00  0.00     0.270 C 
HETATM   18  O1  UNL     1      25.183   4.615  49.004  1.00  0.00    -0.266 OA
HETATM   19  H1  UNL     1      27.941   3.989  50.488  1.00  0.00     0.190 HD
BRANCH  17  20
HETATM   20  C11 UNL     1      27.243   5.732  48.557  1.00  0.00     0.033 A 
HETATM   21  C12 UNL     1      26.839   6.955  48.046  1.00  0.00     0.017 A 
HETATM   22  C13 UNL     1      27.733   7.786  47.408  1.00  0.00     0.001 A 
HETATM   23  C14 UNL     1      29.063   7.452  47.244  1.00  0.00     0.000 A 
HETATM   24  C15 UNL     1      29.495   6.233  47.747  1.00  0.00     0.001 A 
HETATM   25  C16 UNL     1      28.588   5.412  48.383  1.00  0.00     0.017 A 
ENDBRANCH  17  20
ENDBRANCH   1  16
TORSDOF 5
ENDMDL
MODEL 3
REMARK VINA RESULT:      -7.3      3.190      8.654
REMARK  5 active torsions:
REMARK  status: ('A' for Active; 'I' for Inactive)
REMARK       I    between atoms: C1_2  and  N1_3 
REMARK    1  A    between atoms: C1_2  and  C11_18 
REMARK    2  A    between atoms: N1_3  and  N2_4 
REMARK       I    between atoms: N2_4  and  C2_5 
REMARK    3  A    between atoms: C2_5  and  C3_7 
REMARK    4  A    between atoms: C5_10  and  C6_11 
REMARK    5  A    between atoms: C6_11  and  C7_12 
ROOT
HETATM    1  N2  UNL     1      24.544   3.879  52.070  1.00  0.00    -0.261 N 
HETATM    2  C2  UNL     1      23.764   5.009  51.704  1.00  0.00     0.295 C 
HETATM    3  O2  UNL     1      22.562   5.155  52.022  1.00  0.00    -0.264 OA
HETATM    4  H2  UNL     1      25.545   3.717  51.827  1.00  0.00     0.190 HD
ENDROOT
BRANCH   2   5
HETATM    5  C3  UNL     1      24.589   5.965  50.900  1.00  0.00     0.167 A 
HETATM    6  N3  UNL     1      24.933   7.051  50.778  1.00  0.00    -0.247 NA
HETATM    7  C4  UNL     1      25.740   7.524  49.847  1.00  0.00     0.133 A 
HETATM    8  C5  UNL     1      26.235   6.682  48.925  1.00  0.00     0.007 A 
HETATM    9  S2  UNL     1      25.490   5.148  49.443  1.00  0.00    -0.068 SA
BRANCH   8  10
HETATM   10  C6  UNL     1      27.147   6.994  47.803  1.00  0.00     0.086 C 
BRANCH  10  11
HETATM   11  C7  UNL     1      28.583   6.959  48.178  1.00  0.00    -0.046 A 
HETATM   12  C8  UNL     1      29.275   5.785  48.173  1.00  0.00     0.015 A 
HETATM   13  C9  UNL     1      30.653   5.771  48.540  1.00  0.00     0.050 A 
HETATM   14  S1  UNL     1      31.014   7.514  48.917  1.00  0.00    -0.113 SA
HETATM   15  C10 UNL     1      29.315   8.145  48.565  1.00  0.00     0.057 A 
ENDBRANCH  10  11
ENDBRANCH   8  10
ENDBRANCH   2   5
BRANCH   1  16
HETATM   16  N1  UNL     1      23.953   2.853  52.836  1.00  0.00    -0.263 N 
HETATM   17  C1  UNL     1      23.341   1.703  52.287  1.00  0.00     0.270 C 
HETATM   18  O1  UNL     1      23.361   1.653  51.026  1.00  0.00    -0.266 OA
HETATM   19  H1  UNL     1      23.952   2.924  53.896  1.00  0.00     0.190 HD
BRANCH  17  20
HETATM   20  C11 UNL     1      22.736   0.656  53.101  1.00  0.00     0.033 A 
HETATM   21  C12 UNL     1      23.398  -0.299  53.856  1.00  0.00     0.017 A 
HETATM   22  C13 UNL     1      22.700  -1.236  54.584  1.00  0.00     0.001 A 
HETATM   23  C14 UNL     1      21.319  -1.277  54.603  1.00  0.00     0.000 A 
HETATM   24  C15 UNL     1      20.630  -0.331  53.856  1.00  0.00     0.001 A 
HETATM   25  C16 UNL     1      21.344   0.600  53.132  1.00  0.00     0.017 A 
ENDBRANCH  17  20
ENDBRANCH   1  16
TORSDOF 5
ENDMDL
MODEL 4
REMARK VINA RESULT:      -7.2      2.958      9.035
REMARK  5 active torsions:
REMARK  status: ('A' for Active; 'I' for Inactive)
REMARK       I    between atoms: C1_2  and  N1_3 
REMARK    1  A    between atoms: C1_2  and  C11_18 
REMARK    2  A    between atoms: N1_3  and  N2_4 
REMARK       I    between atoms: N2_4  and  C2_5 
REMARK    3  A    between atoms: C2_5  and  C3_7 
REMARK    4  A    between atoms: C5_10  and  C6_11 
REMARK    5  A    between atoms: C6_11  and  C7_12 
ROOT
HETATM    1  N2  UNL     1      26.154   3.025  51.480  1.00  0.00    -0.261 N 
HETATM    2  C2  UNL     1      25.601   3.433  50.236  1.00  0.00     0.295 C 
HETATM    3  O2  UNL     1      24.438   3.153  49.867  1.00  0.00    -0.264 OA
HETATM    4  H2  UNL     1      27.115   3.236  51.826  1.00  0.00     0.190 HD
ENDROOT
BRANCH   2   5
HETATM    5  C3  UNL     1      26.606   4.229  49.463  1.00  0.00     0.167 A 
HETATM    6  N3  UNL     1      27.644   4.232  48.978  1.00  0.00    -0.247 NA
HETATM    7  C4  UNL     1      28.211   5.233  48.331  1.00  0.00     0.133 A 
HETATM    8  C5  UNL     1      27.539   6.389  48.201  1.00  0.00     0.007 A 
HETATM    9  S2  UNL     1      26.027   5.991  49.057  1.00  0.00    -0.068 SA
BRANCH   8  10
HETATM   10  C6  UNL     1      27.979   7.626  47.522  1.00  0.00     0.086 C 
BRANCH  10  11
HETATM   11  C7  UNL     1      29.435   7.887  47.646  1.00  0.00    -0.046 A 
HETATM   12  C8  UNL     1      30.272   7.671  46.594  1.00  0.00     0.015 A 
HETATM   13  C9  UNL     1      31.669   7.923  46.734  1.00  0.00     0.050 A 
HETATM   14  S1  UNL     1      31.829   8.504  48.451  1.00  0.00    -0.113 SA
HETATM   15  C10 UNL     1      30.036   8.373  48.870  1.00  0.00     0.057 A 
ENDBRANCH  10  11
ENDBRANCH   8  10
ENDBRANCH   2   5
BRANCH   1  16
HETATM   16  N1  UNL     1      25.365   2.260  52.366  1.00  0.00    -0.263 N 
HETATM   17  C1  UNL     1      25.494   0.864  52.542  1.00  0.00     0.270 C 
HETATM   18  O1  UNL     1      26.391   0.330  51.833  1.00  0.00    -0.266 OA
HETATM   19  H1  UNL     1      24.618   2.740  52.949  1.00  0.00     0.190 HD
BRANCH  17  20
HETATM   20  C11 UNL     1      24.666   0.097  53.464  1.00  0.00     0.033 A 
HETATM   21  C12 UNL     1      25.097  -0.632  54.561  1.00  0.00     0.017 A 
HETATM   22  C13 UNL     1      24.203  -1.315  55.354  1.00  0.00     0.001 A 
HETATM   23  C14 UNL     1      22.844  -1.312  55.104  1.00  0.00     0.000 A 
HETATM   24  C15 UNL     1      22.385  -0.590  54.012  1.00  0.00     0.001 A 
HETATM   25  C16 UNL     1      23.293   0.088  53.228  1.00  0.00     0.017 A 
ENDBRANCH  17  20
ENDBRANCH   1  16
TORSDOF 5
ENDMDL
MODEL 5
REMARK VINA RESULT:      -7.2      3.140      8.357
REMARK  5 active torsions:
REMARK  status: ('A' for Active; 'I' for Inactive)
REMARK       I    between atoms: C1_2  and  N1_3 
REMARK    1  A    between atoms: C1_2  and  C11_18 
REMARK    2  A    between atoms: N1_3  and  N2_4 
REMARK       I    between atoms: N2_4  and  C2_5 
REMARK    3  A    between atoms: C2_5  and  C3_7 
REMARK    4  A    between atoms: C5_10  and  C6_11 
REMARK    5  A    between atoms: C6_11  and  C7_12 
ROOT
HETATM    1  N2  UNL     1      26.054   3.160  51.480  1.00  0.00    -0.261 N 
HETATM    2  C2  UNL     1      24.659   3.279  51.239  1.00  0.00     0.295 C 
HETATM    3  O2  UNL     1      23.885   2.300  51.135  1.00  0.00    -0.264 OA
HETATM    4  H2  UNL     1      26.732   3.946  51.574  1.00  0.00     0.190 HD
ENDROOT
BRANCH   2   5
HETATM    5  C3  UNL     1      24.276   4.722  51.133  1.00  0.00     0.167 A 
HETATM    6  N3  UNL     1      23.537   5.534  51.458  1.00  0.00    -0.247 NA
HETATM    7  C4  UNL     1      23.553   6.806  51.104  1.00  0.00     0.133 A 
HETATM    8  C5  UNL     1      24.521   7.239  50.279  1.00  0.00     0.007 A 
HETATM    9  S2  UNL     1      25.433   5.731  50.015  1.00  0.00    -0.068 SA
BRANCH   8  10
HETATM   10  C6  UNL     1      24.728   8.609  49.760  1.00  0.00     0.086 C 
BRANCH  10  11
HETATM   11  C7  UNL     1      26.102   8.850  49.252  1.00  0.00    -0.046 A 
HETATM   12  C8  UNL     1      27.123   9.122  50.112  1.00  0.00     0.015 A 
HETATM   13  C9  UNL     1      28.436   9.355  49.605  1.00  0.00     0.050 A 
HETATM   14  S1  UNL     1      28.236   9.182  47.804  1.00  0.00    -0.113 SA
HETATM   15  C10 UNL     1      26.428   8.814  47.843  1.00  0.00     0.057 A 
ENDBRANCH  10  11
ENDBRANCH   8  10
ENDBRANCH   2   5
BRANCH   1  16
HETATM   16  N1  UNL     1      26.622   1.875  51.615  1.00  0.00    -0.263 N 
HETATM   17  C1  UNL     1      27.085   1.335  52.836  1.00  0.00     0.270 C 
HETATM   18  O1  UNL     1      26.950   2.101  53.830  1.00  0.00    -0.266 OA
HETATM   19  H1  UNL     1      26.722   1.254  50.759  1.00  0.00     0.190 HD
BRANCH  17  20
HETATM   20  C11 UNL     1      27.670   0.004  52.948  1.00  0.00     0.033 A 
HETATM   21  C12 UNL     1      27.063  -1.201  52.630  1.00  0.00     0.017 A 
HETATM   22  C13 UNL     1      27.733  -2.393  52.785  1.00  0.00     0.001 A 
HETATM   23  C14 UNL     1      29.029  -2.455  53.259  1.00  0.00     0.000 A 
HETATM   24  C15 UNL     1      29.661  -1.264  53.585  1.00  0.00     0.001 A 
HETATM   25  C16 UNL     1      28.976  -0.078  53.425  1.00  0.00     0.017 A 
ENDBRANCH  17  20
ENDBRANCH   1  16
TORSDOF 5
ENDMDL
MODEL 6
REMARK VINA RESULT:      -7.1      3.106      8.975
REMARK  5 active torsions:
REMARK  status: ('A' for Active; 'I' for Inactive)
REMARK       I    between atoms: C1_2  and  N1_3 
REMARK    1  A    between atoms: C1_2  and  C11_18 
REMARK    2  A    between atoms: N1_3  and  N2_4 
REMARK       I    between atoms: N2_4  and  C2_5 
REMARK    3  A    between atoms: C2_5  and  C3_7 
REMARK    4  A    between atoms: C5_10  and  C6_11 
REMARK    5  A    between atoms: C6_11  and  C7_12 
ROOT
HETATM    1  N2  UNL     1      24.968   2.558  50.509  1.00  0.00    -0.261 N 
HETATM    2  C2  UNL     1      25.063   3.974  50.589  1.00  0.00     0.295 C 
HETATM    3  O2  UNL     1      24.294   4.684  51.276  1.00  0.00    -0.264 OA
HETATM    4  H2  UNL     1      25.585   1.930  49.951  1.00  0.00     0.190 HD
ENDROOT
BRANCH   2   5
HETATM    5  C3  UNL     1      26.197   4.462  49.743  1.00  0.00     0.167 A 
HETATM    6  N3  UNL     1      27.196   4.196  49.250  1.00  0.00    -0.247 NA
HETATM    7  C4  UNL     1      27.953   4.991  48.516  1.00  0.00     0.133 A 
HETATM    8  C5  UNL     1      27.548   6.253  48.295  1.00  0.00     0.007 A 
HETATM    9  S2  UNL     1      26.010   6.270  49.195  1.00  0.00    -0.068 SA
BRANCH   8  10
HETATM   10  C6  UNL     1      28.231   7.303  47.510  1.00  0.00     0.086 C 
BRANCH  10  11
HETATM   11  C7  UNL     1      29.649   7.508  47.899  1.00  0.00    -0.046 A 
HETATM   12  C8  UNL     1      29.971   8.288  48.969  1.00  0.00     0.015 A 
HETATM   13  C9  UNL     1      31.340   8.476  49.324  1.00  0.00     0.050 A 
HETATM   14  S1  UNL     1      32.243   7.497  48.084  1.00  0.00    -0.113 SA
HETATM   15  C10 UNL     1      30.748   6.905  47.177  1.00  0.00     0.057 A 
ENDBRANCH  10  11
ENDBRANCH   8  10
ENDBRANCH   2   5
BRANCH   1  16
HETATM   16  N1  UNL     1      23.959   1.894  51.238  1.00  0.00    -0.263 N 
HETATM   17  C1  UNL     1      24.207   0.962  52.271  1.00  0.00     0.270 C 
HETATM   18  O1  UNL     1      25.430   0.759  52.507  1.00  0.00    -0.266 OA
HETATM   19  H1  UNL     1      22.938   2.087  51.015  1.00  0.00     0.190 HD
BRANCH  17  20
HETATM   20  C11 UNL     1      23.146   0.288  53.009  1.00  0.00     0.033 A 
HETATM   21  C12 UNL     1      21.783   0.378  52.775  1.00  0.00     0.017 A 
HETATM   22  C13 UNL     1      20.884  -0.316  53.553  1.00  0.00     0.001 A 
HETATM   23  C14 UNL     1      21.283  -1.130  54.595  1.00  0.00     0.000 A 
HETATM   24  C15 UNL     1      22.643  -1.239  54.851  1.00  0.00     0.001 A 
HETATM   25  C16 UNL     1      23.530  -0.537  54.064  1.00  0.00     0.017 A 
ENDBRANCH  17  20
ENDBRANCH   1  16
TORSDOF 5
ENDMDL
MODEL 7
REMARK VINA RESULT:      -7.0      4.489      8.450
REMARK  5 active torsions:
REMARK  status: ('A' for Active; 'I' for Inactive)
REMARK       I    between atoms: C1_2  and  N1_3 
REMARK    1  A    between atoms: C1_2  and  C11_18 
REMARK    2  A    between atoms: N1_3  and  N2_4 
REMARK       I    between atoms: N2_4  and  C2_5 
REMARK    3  A    between atoms: C2_5  and  C3_7 
REMARK    4  A    between atoms: C5_10  and  C6_11 
REMARK    5  A    between atoms: C6_11  and  C7_12 
ROOT
HETATM    1  N2  UNL     1      28.615   6.865  48.871  1.00  0.00    -0.261 N 
HETATM    2  C2  UNL     1      28.962   8.242  48.914  1.00  0.00     0.295 C 
HETATM    3  O2  UNL     1      28.138   9.160  49.129  1.00  0.00    -0.264 OA
HETATM    4  H2  UNL     1      29.268   6.071  48.696  1.00  0.00     0.190 HD
ENDROOT
BRANCH   2   5
HETATM    5  C3  UNL     1      30.428   8.411  48.668  1.00  0.00     0.167 A 
HETATM    6  N3  UNL     1      31.266   9.141  48.388  1.00  0.00    -0.247 NA
HETATM    7  C4  UNL     1      32.550   8.862  48.265  1.00  0.00     0.133 A 
HETATM    8  C5  UNL     1      32.966   7.603  48.483  1.00  0.00     0.007 A 
HETATM    9  S2  UNL     1      31.422   6.807  48.879  1.00  0.00    -0.068 SA
BRANCH   8  10
HETATM   10  C6  UNL     1      34.345   7.073  48.402  1.00  0.00     0.086 C 
BRANCH  10  11
HETATM   11  C7  UNL     1      34.444   5.784  47.674  1.00  0.00    -0.046 A 
HETATM   12  C8  UNL     1      34.832   4.649  48.319  1.00  0.00     0.015 A 
HETATM   13  C9  UNL     1      34.926   3.420  47.601  1.00  0.00     0.050 A 
HETATM   14  S1  UNL     1      34.438   3.875  45.908  1.00  0.00    -0.113 SA
HETATM   15  C10 UNL     1      34.144   5.662  46.263  1.00  0.00     0.057 A 
ENDBRANCH  10  11
ENDBRANCH   8  10
ENDBRANCH   2   5
BRANCH   1  16
HETATM   16  N1  UNL     1      27.272   6.486  49.081  1.00  0.00    -0.263 N 
HETATM   17  C1  UNL     1      26.798   5.157  48.995  1.00  0.00     0.270 C 
HETATM   18  O1  UNL     1      27.685   4.305  48.711  1.00  0.00    -0.266 OA
HETATM   19  H1  UNL     1      26.550   7.228  49.320  1.00  0.00     0.190 HD
BRANCH  17  20
HETATM   20  C11 UNL     1      25.405   4.792  49.216  1.00  0.00     0.033 A 
HETATM   21  C12 UNL     1      24.296   5.611  49.070  1.00  0.00     0.017 A 
HETATM   22  C13 UNL     1      23.027   5.136  49.313  1.00  0.00     0.001 A 
HETATM   23  C14 UNL     1      22.790   3.834  49.710  1.00  0.00     0.000 A 
HETATM   24  C15 UNL     1      23.882   2.992  49.864  1.00  0.00     0.001 A 
HETATM   25  C16 UNL     1      25.146   3.483  49.618  1.00  0.00     0.017 A 
ENDBRANCH  17  20
ENDBRANCH   1  16
TORSDOF 5
ENDMDL
MODEL 8
REMARK VINA RESULT:      -6.9      3.073      9.424
REMARK  5 active torsions:
REMARK  status: ('A' for Active; 'I' for Inactive)
REMARK       I    between atoms: C1_2  and  N1_3 
REMARK    1  A    between atoms: C1_2  and  C11_18 
REMARK    2  A    between atoms: N1_3  and  N2_4 
REMARK       I    between atoms: N2_4  and  C2_5 
REMARK    3  A    between atoms: C2_5  and  C3_7 
REMARK    4  A    between atoms: C5_10  and  C6_11 
REMARK    5  A    between atoms: C6_11  and  C7_12 
ROOT
HETATM    1  N2  UNL     1      26.453   3.558  50.889  1.00  0.00    -0.261 N 
HETATM    2  C2  UNL     1      26.092   3.997  49.587  1.00  0.00     0.295 C 
HETATM    3  O2  UNL     1      24.988   3.751  49.051  1.00  0.00    -0.264 OA
HETATM    4  H2  UNL     1      27.359   3.740  51.372  1.00  0.00     0.190 HD
ENDROOT
BRANCH   2   5
HETATM    5  C3  UNL     1      27.215   4.778  48.978  1.00  0.00     0.167 A 
HETATM    6  N3  UNL     1      28.290   4.744  48.583  1.00  0.00    -0.247 NA
HETATM    7  C4  UNL     1      28.981   5.751  48.083  1.00  0.00     0.133 A 
HETATM    8  C5  UNL     1      28.404   6.962  48.007  1.00  0.00     0.007 A 
HETATM    9  S2  UNL     1      26.798   6.608  48.694  1.00  0.00    -0.068 SA
BRANCH   8  10
HETATM   10  C6  UNL     1      28.987   8.217  47.486  1.00  0.00     0.086 C 
BRANCH  10  11
HETATM   11  C7  UNL     1      28.166   8.861  46.430  1.00  0.00    -0.046 A 
HETATM   12  C8  UNL     1      27.948   8.234  45.241  1.00  0.00     0.015 A 
HETATM   13  C9  UNL     1      27.160   8.872  44.237  1.00  0.00     0.050 A 
HETATM   14  S1  UNL     1      26.687  10.453  45.003  1.00  0.00    -0.113 SA
HETATM   15  C10 UNL     1      27.566  10.167  46.600  1.00  0.00     0.057 A 
ENDBRANCH  10  11
ENDBRANCH   8  10
ENDBRANCH   2   5
BRANCH   1  16
HETATM   16  N1  UNL     1      25.529   2.801  51.641  1.00  0.00    -0.263 N 
HETATM   17  C1  UNL     1      25.713   1.445  51.995  1.00  0.00     0.270 C 
HETATM   18  O1  UNL     1      26.794   0.941  51.582  1.00  0.00    -0.266 OA
HETATM   19  H1  UNL     1      24.628   3.256  51.974  1.00  0.00     0.190 HD
BRANCH  17  20
HETATM   20  C11 UNL     1      24.742   0.686  52.772  1.00  0.00     0.033 A 
HETATM   21  C12 UNL     1      25.011  -0.199  53.804  1.00  0.00     0.017 A 
HETATM   22  C13 UNL     1      23.993  -0.855  54.459  1.00  0.00     0.001 A 
HETATM   23  C14 UNL     1      22.664  -0.670  54.129  1.00  0.00     0.000 A 
HETATM   24  C15 UNL     1      22.366   0.211  53.100  1.00  0.00     0.001 A 
HETATM   25  C16 UNL     1      23.397   0.859  52.453  1.00  0.00     0.017 A 
ENDBRANCH  17  20
ENDBRANCH   1  16
TORSDOF 5
ENDMDL
MODEL 9
REMARK VINA RESULT:      -6.8      2.723      3.209
REMARK  5 active torsions:
REMARK  status: ('A' for Active; 'I' for Inactive)
REMARK       I    between atoms: C1_2  and  N1_3 
REMARK    1  A    between atoms: C1_2  and  C11_18 
REMARK    2  A    between atoms: N1_3  and  N2_4 
REMARK       I    between atoms: N2_4  and  C2_5 
REMARK    3  A    between atoms: C2_5  and  C3_7 
REMARK    4  A    between atoms: C5_10  and  C6_11 
REMARK    5  A    between atoms: C6_11  and  C7_12 
ROOT
HETATM    1  N2  UNL     1      26.037   5.350  49.987  1.00  0.00    -0.261 N 
HETATM    2  C2  UNL     1      24.850   5.925  50.515  1.00  0.00     0.295 C 
HETATM    3  O2  UNL     1      24.585   7.147  50.458  1.00  0.00    -0.264 OA
HETATM    4  H2  UNL     1      26.298   4.341  50.012  1.00  0.00     0.190 HD
ENDROOT
BRANCH   2   5
HETATM    5  C3  UNL     1      23.996   4.862  51.134  1.00  0.00     0.167 A 
HETATM    6  N3  UNL     1      23.387   4.549  52.052  1.00  0.00    -0.247 NA
HETATM    7  C4  UNL     1      22.722   3.421  52.212  1.00  0.00     0.133 A 
HETATM    8  C5  UNL     1      22.730   2.514  51.221  1.00  0.00     0.007 A 
HETATM    9  S2  UNL     1      23.747   3.346  50.018  1.00  0.00    -0.068 SA
BRANCH   8  10
HETATM   10  C6  UNL     1      22.059   1.196  51.188  1.00  0.00     0.086 C 
BRANCH  10  11
HETATM   11  C7  UNL     1      22.104   0.473  52.483  1.00  0.00    -0.046 A 
HETATM   12  C8  UNL     1      23.273  -0.055  52.944  1.00  0.00     0.015 A 
HETATM   13  C9  UNL     1      23.296  -0.750  54.190  1.00  0.00     0.050 A 
HETATM   14  S1  UNL     1      21.570  -0.661  54.761  1.00  0.00    -0.113 SA
HETATM   15  C10 UNL     1      20.933   0.288  53.312  1.00  0.00     0.057 A 
ENDBRANCH  10  11
ENDBRANCH   8  10
ENDBRANCH   2   5
BRANCH   1  16
HETATM   16  N1  UNL     1      26.984   6.185  49.355  1.00  0.00    -0.263 N 
HETATM   17  C1  UNL     1      28.046   5.715  48.549  1.00  0.00     0.270 C 
HETATM   18  O1  UNL     1      28.091   4.459  48.427  1.00  0.00    -0.266 OA
HETATM   19  H1  UNL     1      26.918   7.238  49.478  1.00  0.00     0.190 HD
BRANCH  17  20
HETATM   20  C11 UNL     1      29.012   6.599  47.908  1.00  0.00     0.033 A 
HETATM   21  C12 UNL     1      30.379   6.640  48.132  1.00  0.00     0.017 A 
HETATM   22  C13 UNL     1      31.181   7.530  47.453  1.00  0.00     0.001 A 
HETATM   23  C14 UNL     1      30.675   8.419  46.525  1.00  0.00     0.000 A 
HETATM   24  C15 UNL     1      29.310   8.399  46.281  1.00  0.00     0.001 A 
HETATM   25  C16 UNL     1      28.520   7.503  46.969  1.00  0.00     0.017 A 
ENDBRANCH  17  20
ENDBRANCH   1  16
TORSDOF 5
ENDMDL
