MODEL 1
REMARK VINA RESULT:      -7.8      0.000      0.000
REMARK  8 active torsions:
REMARK  status: ('A' for Active; 'I' for Inactive)
REMARK    1  A    between atoms: C2_2  and  N1_3 
REMARK    2  A    between atoms: C3_4  and  C4_5 
REMARK    3  A    between atoms: C5_6  and  C6_7 
REMARK    4  A    between atoms: C9_11  and  N3_12 
REMARK    5  A    between atoms: N3_12  and  C10_13 
REMARK    6  A    between atoms: C14_17  and  O1_18 
REMARK    7  A    between atoms: O1_18  and  C15_19 
REMARK    8  A    between atoms: C15_19  and  C16_22 
ROOT
HETATM    1  N3  UNL     1      24.176   3.708  52.601  1.00  0.00    -0.188 N 
HETATM    2  H9  UNL     1      23.737   4.336  53.325  1.00  0.00     0.184 HD
ENDROOT
BRANCH   1   3
HETATM    3  C9  UNL     1      24.340   4.252  51.304  1.00  0.00     0.727 A 
HETATM    4  N2  UNL     1      23.405   4.845  50.563  1.00  0.00    -0.075 NA
HETATM    5  C8  UNL     1      23.560   5.359  49.340  1.00  0.00     0.139 A 
HETATM    6  C7  UNL     1      24.804   5.279  48.765  1.00  0.00     0.052 A 
HETATM    7  C6  UNL     1      25.806   4.674  49.491  1.00  0.00     0.077 A 
HETATM    8  N4  UNL     1      25.526   4.197  50.709  1.00  0.00    -0.063 NA
BRANCH   7   9
HETATM    9  C5  UNL     1      27.146   4.565  48.931  1.00  0.00     0.034 C 
HETATM   10  C4  UNL     1      27.930   5.580  48.578  1.00  0.00     0.022 C 
BRANCH  10  11
HETATM   11  C3  UNL     1      29.269   5.425  48.020  1.00  0.00     0.116 C 
HETATM   12  N1  UNL     1      30.309   5.427  48.763  1.00  0.00    -0.274 NA
BRANCH  12  13
HETATM   13  C2  UNL     1      31.582   5.269  48.125  1.00  0.00     0.106 C 
HETATM   14  C1  UNL     1      31.722   4.328  47.230  1.00  0.00     0.032 C 
ENDBRANCH  12  13
ENDBRANCH  10  11
ENDBRANCH   7   9
ENDBRANCH   1   3
BRANCH   1  15
HETATM   15  C10 UNL     1      24.534   2.412  53.042  1.00  0.00     0.052 A 
HETATM   16  C11 UNL     1      23.810   1.256  52.866  1.00  0.00     0.030 A 
HETATM   17  C12 UNL     1      24.174   0.006  53.304  1.00  0.00     0.005 A 
HETATM   18  C13 UNL     1      25.351  -0.140  53.978  1.00  0.00     0.037 A 
HETATM   19  C14 UNL     1      26.124   0.983  54.186  1.00  0.00     0.077 A 
HETATM   20  C17 UNL     1      25.714   2.214  53.726  1.00  0.00     0.067 A 
BRANCH  19  21
HETATM   21  O1  UNL     1      27.311   0.813  54.869  1.00  0.00    -0.282 OA
BRANCH  21  22
HETATM   22  C15 UNL     1      28.566   0.666  54.276  1.00  0.00     0.385 C 
HETATM   23  F1  UNL     1      28.420   0.464  52.906  1.00  0.00    -0.172 F 
HETATM   24  F2  UNL     1      29.187  -0.449  54.840  1.00  0.00    -0.172 F 
BRANCH  22  25
HETATM   25  C16 UNL     1      29.419   1.888  54.460  1.00  0.00     0.334 C 
HETATM   26  F3  UNL     1      28.935   2.922  53.685  1.00  0.00    -0.246 F 
ENDBRANCH  22  25
ENDBRANCH  21  22
ENDBRANCH  19  21
ENDBRANCH   1  15
TORSDOF 8
ENDMDL
MODEL 2
REMARK VINA RESULT:      -7.4      1.814      2.799
REMARK  8 active torsions:
REMARK  status: ('A' for Active; 'I' for Inactive)
REMARK    1  A    between atoms: C2_2  and  N1_3 
REMARK    2  A    between atoms: C3_4  and  C4_5 
REMARK    3  A    between atoms: C5_6  and  C6_7 
REMARK    4  A    between atoms: C9_11  and  N3_12 
REMARK    5  A    between atoms: N3_12  and  C10_13 
REMARK    6  A    between atoms: C14_17  and  O1_18 
REMARK    7  A    between atoms: O1_18  and  C15_19 
REMARK    8  A    between atoms: C15_19  and  C16_22 
ROOT
HETATM    1  N3  UNL     1      25.980   3.056  49.668  1.00  0.00    -0.188 N 
HETATM    2  H9  UNL     1      25.612   2.389  48.941  1.00  0.00     0.184 HD
ENDROOT
BRANCH   1   3
HETATM    3  C9  UNL     1      26.481   4.295  49.199  1.00  0.00     0.727 A 
HETATM    4  N2  UNL     1      25.796   5.427  49.046  1.00  0.00    -0.075 NA
HETATM    5  C8  UNL     1      26.268   6.596  48.604  1.00  0.00     0.139 A 
HETATM    6  C7  UNL     1      27.596   6.662  48.265  1.00  0.00     0.052 A 
HETATM    7  C6  UNL     1      28.349   5.517  48.404  1.00  0.00     0.077 A 
HETATM    8  N4  UNL     1      27.760   4.406  48.858  1.00  0.00    -0.063 NA
BRANCH   7   9
HETATM    9  C5  UNL     1      29.765   5.531  48.062  1.00  0.00     0.034 C 
HETATM   10  C4  UNL     1      30.663   6.413  48.490  1.00  0.00     0.022 C 
BRANCH  10  11
HETATM   11  C3  UNL     1      32.075   6.390  48.121  1.00  0.00     0.116 C 
HETATM   12  N1  UNL     1      32.846   5.437  48.483  1.00  0.00    -0.274 NA
BRANCH  12  13
HETATM   13  C2  UNL     1      34.217   5.501  48.074  1.00  0.00     0.106 C 
HETATM   14  C1  UNL     1      34.979   6.434  48.579  1.00  0.00     0.032 C 
ENDBRANCH  12  13
ENDBRANCH  10  11
ENDBRANCH   7   9
ENDBRANCH   1   3
BRANCH   1  15
HETATM   15  C10 UNL     1      25.917   2.606  51.008  1.00  0.00     0.052 A 
HETATM   16  C11 UNL     1      25.024   3.016  51.971  1.00  0.00     0.030 A 
HETATM   17  C12 UNL     1      24.980   2.568  53.268  1.00  0.00     0.005 A 
HETATM   18  C13 UNL     1      25.887   1.634  53.675  1.00  0.00     0.037 A 
HETATM   19  C14 UNL     1      26.810   1.183  52.756  1.00  0.00     0.077 A 
HETATM   20  C17 UNL     1      26.811   1.663  51.466  1.00  0.00     0.067 A 
BRANCH  19  21
HETATM   21  O1  UNL     1      27.718   0.237  53.187  1.00  0.00    -0.282 OA
BRANCH  21  22
HETATM   22  C15 UNL     1      28.851   0.503  53.960  1.00  0.00     0.385 C 
HETATM   23  F1  UNL     1      28.567   0.280  55.305  1.00  0.00    -0.172 F 
HETATM   24  F2  UNL     1      29.197   1.842  53.779  1.00  0.00    -0.172 F 
BRANCH  22  25
HETATM   25  C16 UNL     1      30.001  -0.389  53.591  1.00  0.00     0.334 C 
HETATM   26  F3  UNL     1      29.532  -1.544  52.999  1.00  0.00    -0.246 F 
ENDBRANCH  22  25
ENDBRANCH  21  22
ENDBRANCH  19  21
ENDBRANCH   1  15
TORSDOF 8
ENDMDL
MODEL 3
REMARK VINA RESULT:      -7.1      1.591      1.900
REMARK  8 active torsions:
REMARK  status: ('A' for Active; 'I' for Inactive)
REMARK    1  A    between atoms: C2_2  and  N1_3 
REMARK    2  A    between atoms: C3_4  and  C4_5 
REMARK    3  A    between atoms: C5_6  and  C6_7 
REMARK    4  A    between atoms: C9_11  and  N3_12 
REMARK    5  A    between atoms: N3_12  and  C10_13 
REMARK    6  A    between atoms: C14_17  and  O1_18 
REMARK    7  A    between atoms: O1_18  and  C15_19 
REMARK    8  A    between atoms: C15_19  and  C16_22 
ROOT
HETATM    1  N3  UNL     1      22.990   3.237  52.345  1.00  0.00    -0.188 N 
HETATM    2  H9  UNL     1      22.545   3.834  53.091  1.00  0.00     0.184 HD
ENDROOT
BRANCH   1   3
HETATM    3  C9  UNL     1      23.285   3.872  51.114  1.00  0.00     0.727 A 
HETATM    4  N2  UNL     1      22.412   4.243  50.178  1.00  0.00    -0.075 NA
HETATM    5  C8  UNL     1      22.690   4.843  49.018  1.00  0.00     0.139 A 
HETATM    6  C7  UNL     1      24.006   5.116  48.738  1.00  0.00     0.052 A 
HETATM    7  C6  UNL     1      24.948   4.752  49.674  1.00  0.00     0.077 A 
HETATM    8  N4  UNL     1      24.544   4.155  50.801  1.00  0.00    -0.063 NA
BRANCH   7   9
HETATM    9  C5  UNL     1      26.358   5.021  49.430  1.00  0.00     0.034 C 
HETATM   10  C4  UNL     1      26.849   5.841  48.505  1.00  0.00     0.022 C 
BRANCH  10  11
HETATM   11  C3  UNL     1      28.272   6.081  48.294  1.00  0.00     0.116 C 
HETATM   12  N1  UNL     1      29.108   5.118  48.203  1.00  0.00    -0.274 NA
BRANCH  12  13
HETATM   13  C2  UNL     1      30.485   5.451  47.997  1.00  0.00     0.106 C 
HETATM   14  C1  UNL     1      30.821   6.712  47.923  1.00  0.00     0.032 C 
ENDBRANCH  12  13
ENDBRANCH  10  11
ENDBRANCH   7   9
ENDBRANCH   1   3
BRANCH   1  15
HETATM   15  C10 UNL     1      23.223   1.885  52.693  1.00  0.00     0.052 A 
HETATM   16  C11 UNL     1      22.298   0.868  52.700  1.00  0.00     0.030 A 
HETATM   17  C12 UNL     1      22.544  -0.439  53.043  1.00  0.00     0.005 A 
HETATM   18  C13 UNL     1      23.806  -0.797  53.417  1.00  0.00     0.037 A 
HETATM   19  C14 UNL     1      24.780   0.179  53.431  1.00  0.00     0.077 A 
HETATM   20  C17 UNL     1      24.482   1.475  53.077  1.00  0.00     0.067 A 
BRANCH  19  21
HETATM   21  O1  UNL     1      26.050  -0.204  53.811  1.00  0.00    -0.282 OA
BRANCH  21  22
HETATM   22  C15 UNL     1      27.031  -0.704  52.952  1.00  0.00     0.385 C 
HETATM   23  F1  UNL     1      26.893  -0.128  51.692  1.00  0.00    -0.172 F 
HETATM   24  F2  UNL     1      26.856  -2.084  52.847  1.00  0.00    -0.172 F 
BRANCH  22  25
HETATM   25  C16 UNL     1      28.416  -0.387  53.440  1.00  0.00     0.334 C 
HETATM   26  F3  UNL     1      29.297  -1.366  53.027  1.00  0.00    -0.246 F 
ENDBRANCH  22  25
ENDBRANCH  21  22
ENDBRANCH  19  21
ENDBRANCH   1  15
TORSDOF 8
ENDMDL
MODEL 4
REMARK VINA RESULT:      -7.0      2.900      3.586
REMARK  8 active torsions:
REMARK  status: ('A' for Active; 'I' for Inactive)
REMARK    1  A    between atoms: C2_2  and  N1_3 
REMARK    2  A    between atoms: C3_4  and  C4_5 
REMARK    3  A    between atoms: C5_6  and  C6_7 
REMARK    4  A    between atoms: C9_11  and  N3_12 
REMARK    5  A    between atoms: N3_12  and  C10_13 
REMARK    6  A    between atoms: C14_17  and  O1_18 
REMARK    7  A    between atoms: O1_18  and  C15_19 
REMARK    8  A    between atoms: C15_19  and  C16_22 
ROOT
HETATM    1  N3  UNL     1      24.516   3.770  52.024  1.00  0.00    -0.188 N 
HETATM    2  H9  UNL     1      24.195   4.300  52.877  1.00  0.00     0.184 HD
ENDROOT
BRANCH   1   3
HETATM    3  C9  UNL     1      24.495   4.473  50.795  1.00  0.00     0.727 A 
HETATM    4  N2  UNL     1      23.420   4.806  50.083  1.00  0.00    -0.075 NA
HETATM    5  C8  UNL     1      23.400   5.469  48.924  1.00  0.00     0.139 A 
HETATM    6  C7  UNL     1      24.604   5.859  48.391  1.00  0.00     0.052 A 
HETATM    7  C6  UNL     1      25.747   5.539  49.088  1.00  0.00     0.077 A 
HETATM    8  N4  UNL     1      25.635   4.869  50.241  1.00  0.00    -0.063 NA
BRANCH   7   9
HETATM    9  C5  UNL     1      27.050   5.931  48.570  1.00  0.00     0.034 C 
HETATM   10  C4  UNL     1      28.144   5.175  48.555  1.00  0.00     0.022 C 
BRANCH  10  11
HETATM   11  C3  UNL     1      29.432   5.608  48.025  1.00  0.00     0.116 C 
HETATM   12  N1  UNL     1      30.518   5.431  48.676  1.00  0.00    -0.274 NA
BRANCH  12  13
HETATM   13  C2  UNL     1      31.735   5.890  48.075  1.00  0.00     0.106 C 
HETATM   14  C1  UNL     1      32.729   5.051  47.953  1.00  0.00     0.032 C 
ENDBRANCH  12  13
ENDBRANCH  10  11
ENDBRANCH   7   9
ENDBRANCH   1   3
BRANCH   1  15
HETATM   15  C10 UNL     1      24.917   2.431  52.243  1.00  0.00     0.052 A 
HETATM   16  C11 UNL     1      25.999   1.795  51.679  1.00  0.00     0.030 A 
HETATM   17  C12 UNL     1      26.371   0.492  51.902  1.00  0.00     0.005 A 
HETATM   18  C13 UNL     1      25.627  -0.270  52.754  1.00  0.00     0.037 A 
HETATM   19  C14 UNL     1      24.529   0.311  53.353  1.00  0.00     0.077 A 
HETATM   20  C17 UNL     1      24.198   1.622  53.096  1.00  0.00     0.067 A 
BRANCH  19  21
HETATM   21  O1  UNL     1      23.790  -0.478  54.213  1.00  0.00    -0.282 OA
BRANCH  21  22
HETATM   22  C15 UNL     1      22.521  -0.993  53.941  1.00  0.00     0.385 C 
HETATM   23  F1  UNL     1      22.177  -1.934  54.908  1.00  0.00    -0.172 F 
HETATM   24  F2  UNL     1      22.560  -1.612  52.692  1.00  0.00    -0.172 F 
BRANCH  22  25
HETATM   25  C16 UNL     1      21.467   0.076  53.962  1.00  0.00     0.334 C 
HETATM   26  F3  UNL     1      21.050   0.304  55.258  1.00  0.00    -0.246 F 
ENDBRANCH  22  25
ENDBRANCH  21  22
ENDBRANCH  19  21
ENDBRANCH   1  15
TORSDOF 8
ENDMDL
MODEL 5
REMARK VINA RESULT:      -6.7      3.832      6.677
REMARK  8 active torsions:
REMARK  status: ('A' for Active; 'I' for Inactive)
REMARK    1  A    between atoms: C2_2  and  N1_3 
REMARK    2  A    between atoms: C3_4  and  C4_5 
REMARK    3  A    between atoms: C5_6  and  C6_7 
REMARK    4  A    between atoms: C9_11  and  N3_12 
REMARK    5  A    between atoms: N3_12  and  C10_13 
REMARK    6  A    between atoms: C14_17  and  O1_18 
REMARK    7  A    between atoms: O1_18  and  C15_19 
REMARK    8  A    between atoms: C15_19  and  C16_22 
ROOT
HETATM    1  N3  UNL     1      21.210   1.179  51.504  1.00  0.00    -0.188 N 
HETATM    2  H9  UNL     1      20.494   0.734  50.872  1.00  0.00     0.184 HD
ENDROOT
BRANCH   1   3
HETATM    3  C9  UNL     1      21.658   0.404  52.601  1.00  0.00     0.727 A 
HETATM    4  N2  UNL     1      20.899  -0.214  53.505  1.00  0.00    -0.075 NA
HETATM    5  C8  UNL     1      21.322  -0.946  54.540  1.00  0.00     0.139 A 
HETATM    6  C7  UNL     1      22.676  -1.091  54.709  1.00  0.00     0.052 A 
HETATM    7  C6  UNL     1      23.505  -0.471  53.801  1.00  0.00     0.077 A 
HETATM    8  N4  UNL     1      22.960   0.236  52.805  1.00  0.00    -0.063 NA
BRANCH   7   9
HETATM    9  C5  UNL     1      24.950  -0.595  53.931  1.00  0.00     0.034 C 
HETATM   10  C4  UNL     1      25.847  -0.297  52.996  1.00  0.00     0.022 C 
BRANCH  10  11
HETATM   11  C3  UNL     1      27.289  -0.436  53.169  1.00  0.00     0.116 C 
HETATM   12  N1  UNL     1      27.983   0.465  53.753  1.00  0.00    -0.274 NA
BRANCH  12  13
HETATM   13  C2  UNL     1      29.392   0.242  53.876  1.00  0.00     0.106 C 
HETATM   14  C1  UNL     1      29.877  -0.919  53.520  1.00  0.00     0.032 C 
ENDBRANCH  12  13
ENDBRANCH  10  11
ENDBRANCH   7   9
ENDBRANCH   1   3
BRANCH   1  15
HETATM   15  C10 UNL     1      21.613   2.490  51.155  1.00  0.00     0.052 A 
HETATM   16  C11 UNL     1      21.034   3.665  51.574  1.00  0.00     0.030 A 
HETATM   17  C12 UNL     1      21.439   4.930  51.222  1.00  0.00     0.005 A 
HETATM   18  C13 UNL     1      22.506   5.072  50.385  1.00  0.00     0.037 A 
HETATM   19  C14 UNL     1      23.131   3.929  49.930  1.00  0.00     0.077 A 
HETATM   20  C17 UNL     1      22.686   2.684  50.313  1.00  0.00     0.067 A 
BRANCH  19  21
HETATM   21  O1  UNL     1      24.209   4.095  49.084  1.00  0.00    -0.282 OA
BRANCH  21  22
HETATM   22  C15 UNL     1      25.511   4.394  49.490  1.00  0.00     0.385 C 
HETATM   23  F1  UNL     1      25.494   4.934  50.773  1.00  0.00    -0.172 F 
HETATM   24  F2  UNL     1      26.039   5.333  48.604  1.00  0.00    -0.172 F 
BRANCH  22  25
HETATM   25  C16 UNL     1      26.379   3.169  49.532  1.00  0.00     0.334 C 
HETATM   26  F3  UNL     1      26.081   2.417  50.649  1.00  0.00    -0.246 F 
ENDBRANCH  22  25
ENDBRANCH  21  22
ENDBRANCH  19  21
ENDBRANCH   1  15
TORSDOF 8
ENDMDL
MODEL 6
REMARK VINA RESULT:      -6.7      2.425      3.522
REMARK  8 active torsions:
REMARK  status: ('A' for Active; 'I' for Inactive)
REMARK    1  A    between atoms: C2_2  and  N1_3 
REMARK    2  A    between atoms: C3_4  and  C4_5 
REMARK    3  A    between atoms: C5_6  and  C6_7 
REMARK    4  A    between atoms: C9_11  and  N3_12 
REMARK    5  A    between atoms: N3_12  and  C10_13 
REMARK    6  A    between atoms: C14_17  and  O1_18 
REMARK    7  A    between atoms: O1_18  and  C15_19 
REMARK    8  A    between atoms: C15_19  and  C16_22 
ROOT
HETATM    1  N3  UNL     1      21.980   0.246  52.411  1.00  0.00    -0.188 N 
HETATM    2  H9  UNL     1      21.396  -0.462  51.893  1.00  0.00     0.184 HD
ENDROOT
BRANCH   1   3
HETATM    3  C9  UNL     1      21.828   1.600  52.024  1.00  0.00     0.727 A 
HETATM    4  N2  UNL     1      20.791   2.394  52.286  1.00  0.00    -0.075 NA
HETATM    5  C8  UNL     1      20.648   3.671  51.922  1.00  0.00     0.139 A 
HETATM    6  C7  UNL     1      21.664   4.247  51.200  1.00  0.00     0.052 A 
HETATM    7  C6  UNL     1      22.759   3.468  50.902  1.00  0.00     0.077 A 
HETATM    8  N4  UNL     1      22.785   2.199  51.324  1.00  0.00    -0.063 NA
BRANCH   7   9
HETATM    9  C5  UNL     1      23.867   4.030  50.142  1.00  0.00     0.034 C 
HETATM   10  C4  UNL     1      24.267   5.298  50.166  1.00  0.00     0.022 C 
BRANCH  10  11
HETATM   11  C3  UNL     1      25.385   5.820  49.386  1.00  0.00     0.116 C 
HETATM   12  N1  UNL     1      26.032   6.859  49.756  1.00  0.00    -0.274 NA
BRANCH  12  13
HETATM   13  C2  UNL     1      27.113   7.297  48.926  1.00  0.00     0.106 C 
HETATM   14  C1  UNL     1      27.760   6.409  48.218  1.00  0.00     0.032 C 
ENDBRANCH  12  13
ENDBRANCH  10  11
ENDBRANCH   7   9
ENDBRANCH   1   3
BRANCH   1  15
HETATM   15  C10 UNL     1      22.831  -0.271  53.417  1.00  0.00     0.052 A 
HETATM   16  C11 UNL     1      22.442  -0.896  54.579  1.00  0.00     0.030 A 
HETATM   17  C12 UNL     1      23.284  -1.389  55.546  1.00  0.00     0.005 A 
HETATM   18  C13 UNL     1      24.631  -1.267  55.373  1.00  0.00     0.037 A 
HETATM   19  C14 UNL     1      25.085  -0.648  54.226  1.00  0.00     0.077 A 
HETATM   20  C17 UNL     1      24.199  -0.171  53.287  1.00  0.00     0.067 A 
BRANCH  19  21
HETATM   21  O1  UNL     1      26.451  -0.535  54.071  1.00  0.00    -0.282 OA
BRANCH  21  22
HETATM   22  C15 UNL     1      27.181  -1.022  52.984  1.00  0.00     0.385 C 
HETATM   23  F1  UNL     1      27.097  -0.128  51.920  1.00  0.00    -0.172 F 
HETATM   24  F2  UNL     1      26.627  -2.244  52.601  1.00  0.00    -0.172 F 
BRANCH  22  25
HETATM   25  C16 UNL     1      28.636  -1.187  53.316  1.00  0.00     0.334 C 
HETATM   26  F3  UNL     1      29.061  -0.141  54.108  1.00  0.00    -0.246 F 
ENDBRANCH  22  25
ENDBRANCH  21  22
ENDBRANCH  19  21
ENDBRANCH   1  15
TORSDOF 8
ENDMDL
MODEL 7
REMARK VINA RESULT:      -6.6      3.915      7.514
REMARK  8 active torsions:
REMARK  status: ('A' for Active; 'I' for Inactive)
REMARK    1  A    between atoms: C2_2  and  N1_3 
REMARK    2  A    between atoms: C3_4  and  C4_5 
REMARK    3  A    between atoms: C5_6  and  C6_7 
REMARK    4  A    between atoms: C9_11  and  N3_12 
REMARK    5  A    between atoms: N3_12  and  C10_13 
REMARK    6  A    between atoms: C14_17  and  O1_18 
REMARK    7  A    between atoms: O1_18  and  C15_19 
REMARK    8  A    between atoms: C15_19  and  C16_22 
ROOT
HETATM    1  N3  UNL     1      28.284   7.157  47.859  1.00  0.00    -0.188 N 
HETATM    2  H9  UNL     1      28.136   7.877  47.104  1.00  0.00     0.184 HD
ENDROOT
BRANCH   1   3
HETATM    3  C9  UNL     1      27.135   6.462  48.309  1.00  0.00     0.727 A 
HETATM    4  N2  UNL     1      25.878   6.904  48.294  1.00  0.00    -0.075 NA
HETATM    5  C8  UNL     1      24.794   6.249  48.717  1.00  0.00     0.139 A 
HETATM    6  C7  UNL     1      24.968   4.985  49.225  1.00  0.00     0.052 A 
HETATM    7  C6  UNL     1      26.250   4.482  49.262  1.00  0.00     0.077 A 
HETATM    8  N4  UNL     1      27.256   5.238  48.808  1.00  0.00    -0.063 NA
BRANCH   7   9
HETATM    9  C5  UNL     1      26.492   3.146  49.789  1.00  0.00     0.034 C 
HETATM   10  C4  UNL     1      26.244   2.739  51.030  1.00  0.00     0.022 C 
BRANCH  10  11
HETATM   11  C3  UNL     1      26.502   1.388  51.517  1.00  0.00     0.116 C 
HETATM   12  N1  UNL     1      25.805   0.869  52.454  1.00  0.00    -0.274 NA
BRANCH  12  13
HETATM   13  C2  UNL     1      26.132  -0.464  52.865  1.00  0.00     0.106 C 
HETATM   14  C1  UNL     1      27.382  -0.842  52.827  1.00  0.00     0.032 C 
ENDBRANCH  12  13
ENDBRANCH  10  11
ENDBRANCH   7   9
ENDBRANCH   1   3
BRANCH   1  15
HETATM   15  C10 UNL     1      29.617   6.998  48.308  1.00  0.00     0.052 A 
HETATM   16  C11 UNL     1      30.405   7.959  48.897  1.00  0.00     0.030 A 
HETATM   17  C12 UNL     1      31.699   7.784  49.325  1.00  0.00     0.005 A 
HETATM   18  C13 UNL     1      32.287   6.564  49.169  1.00  0.00     0.037 A 
HETATM   19  C14 UNL     1      31.547   5.557  48.584  1.00  0.00     0.077 A 
HETATM   20  C17 UNL     1      30.253   5.783  48.173  1.00  0.00     0.067 A 
BRANCH  19  21
HETATM   21  O1  UNL     1      32.160   4.329  48.436  1.00  0.00    -0.282 OA
BRANCH  21  22
HETATM   22  C15 UNL     1      33.073   4.002  47.432  1.00  0.00     0.385 C 
HETATM   23  F1  UNL     1      34.359   3.941  47.964  1.00  0.00    -0.172 F 
HETATM   24  F2  UNL     1      33.027   5.000  46.458  1.00  0.00    -0.172 F 
BRANCH  22  25
HETATM   25  C16 UNL     1      32.778   2.661  46.822  1.00  0.00     0.334 C 
HETATM   26  F3  UNL     1      31.449   2.592  46.458  1.00  0.00    -0.246 F 
ENDBRANCH  22  25
ENDBRANCH  21  22
ENDBRANCH  19  21
ENDBRANCH   1  15
TORSDOF 8
ENDMDL
MODEL 8
REMARK VINA RESULT:      -6.5      2.979      4.075
REMARK  8 active torsions:
REMARK  status: ('A' for Active; 'I' for Inactive)
REMARK    1  A    between atoms: C2_2  and  N1_3 
REMARK    2  A    between atoms: C3_4  and  C4_5 
REMARK    3  A    between atoms: C5_6  and  C6_7 
REMARK    4  A    between atoms: C9_11  and  N3_12 
REMARK    5  A    between atoms: N3_12  and  C10_13 
REMARK    6  A    between atoms: C14_17  and  O1_18 
REMARK    7  A    between atoms: O1_18  and  C15_19 
REMARK    8  A    between atoms: C15_19  and  C16_22 
ROOT
HETATM    1  N3  UNL     1      24.693   3.878  49.794  1.00  0.00    -0.188 N 
HETATM    2  H9  UNL     1      23.843   3.749  49.185  1.00  0.00     0.184 HD
ENDROOT
BRANCH   1   3
HETATM    3  C9  UNL     1      25.451   5.056  49.586  1.00  0.00     0.727 A 
HETATM    4  N2  UNL     1      25.138   6.288  49.982  1.00  0.00    -0.075 NA
HETATM    5  C8  UNL     1      25.853   7.399  49.787  1.00  0.00     0.139 A 
HETATM    6  C7  UNL     1      27.040   7.284  49.107  1.00  0.00     0.052 A 
HETATM    7  C6  UNL     1      27.410   6.030  48.675  1.00  0.00     0.077 A 
HETATM    8  N4  UNL     1      26.607   4.992  48.933  1.00  0.00    -0.063 NA
BRANCH   7   9
HETATM    9  C5  UNL     1      28.662   5.849  47.952  1.00  0.00     0.034 C 
HETATM   10  C4  UNL     1      29.850   5.603  48.497  1.00  0.00     0.022 C 
BRANCH  10  11
HETATM   11  C3  UNL     1      31.081   5.429  47.734  1.00  0.00     0.116 C 
HETATM   12  N1  UNL     1      31.923   4.511  48.022  1.00  0.00    -0.274 NA
BRANCH  12  13
HETATM   13  C2  UNL     1      33.104   4.417  47.217  1.00  0.00     0.106 C 
HETATM   14  C1  UNL     1      32.974   4.365  45.917  1.00  0.00     0.032 C 
ENDBRANCH  12  13
ENDBRANCH  10  11
ENDBRANCH   7   9
ENDBRANCH   1   3
BRANCH   1  15
HETATM   15  C10 UNL     1      24.946   2.847  50.730  1.00  0.00     0.052 A 
HETATM   16  C11 UNL     1      26.152   2.231  50.966  1.00  0.00     0.030 A 
HETATM   17  C12 UNL     1      26.377   1.228  51.878  1.00  0.00     0.005 A 
HETATM   18  C13 UNL     1      25.334   0.778  52.634  1.00  0.00     0.037 A 
HETATM   19  C14 UNL     1      24.097   1.357  52.444  1.00  0.00     0.077 A 
HETATM   20  C17 UNL     1      23.925   2.360  51.516  1.00  0.00     0.067 A 
BRANCH  19  21
HETATM   21  O1  UNL     1      23.056   0.888  53.219  1.00  0.00    -0.282 OA
BRANCH  21  22
HETATM   22  C15 UNL     1      22.252  -0.210  52.908  1.00  0.00     0.385 C 
HETATM   23  F1  UNL     1      22.983  -1.386  53.049  1.00  0.00    -0.172 F 
HETATM   24  F2  UNL     1      21.837  -0.084  51.582  1.00  0.00    -0.172 F 
BRANCH  22  25
HETATM   25  C16 UNL     1      21.063  -0.310  53.820  1.00  0.00     0.334 C 
HETATM   26  F3  UNL     1      21.388   0.171  55.073  1.00  0.00    -0.246 F 
ENDBRANCH  22  25
ENDBRANCH  21  22
ENDBRANCH  19  21
ENDBRANCH   1  15
TORSDOF 8
ENDMDL
MODEL 9
REMARK VINA RESULT:      -6.5      5.454      9.448
REMARK  8 active torsions:
REMARK  status: ('A' for Active; 'I' for Inactive)
REMARK    1  A    between atoms: C2_2  and  N1_3 
REMARK    2  A    between atoms: C3_4  and  C4_5 
REMARK    3  A    between atoms: C5_6  and  C6_7 
REMARK    4  A    between atoms: C9_11  and  N3_12 
REMARK    5  A    between atoms: N3_12  and  C10_13 
REMARK    6  A    between atoms: C14_17  and  O1_18 
REMARK    7  A    between atoms: O1_18  and  C15_19 
REMARK    8  A    between atoms: C15_19  and  C16_22 
ROOT
HETATM    1  N3  UNL     1      22.070  -0.144  53.519  1.00  0.00    -0.188 N 
HETATM    2  H9  UNL     1      22.207  -0.914  54.225  1.00  0.00     0.184 HD
ENDROOT
BRANCH   1   3
HETATM    3  C9  UNL     1      20.762   0.015  52.998  1.00  0.00     0.727 A 
HETATM    4  N2  UNL     1      20.336   0.987  52.193  1.00  0.00    -0.075 NA
HETATM    5  C8  UNL     1      19.103   1.136  51.701  1.00  0.00     0.139 A 
HETATM    6  C7  UNL     1      18.159   0.202  52.049  1.00  0.00     0.052 A 
HETATM    7  C6  UNL     1      18.549  -0.824  52.880  1.00  0.00     0.077 A 
HETATM    8  N4  UNL     1      19.816  -0.864  53.308  1.00  0.00    -0.063 NA
BRANCH   7   9
HETATM    9  C5  UNL     1      17.589  -1.843  53.279  1.00  0.00     0.034 C 
HETATM   10  C4  UNL     1      17.864  -3.121  53.528  1.00  0.00     0.022 C 
BRANCH  10  11
HETATM   11  C3  UNL     1      16.869  -4.111  53.925  1.00  0.00     0.116 C 
HETATM   12  N1  UNL     1      16.044  -4.606  53.083  1.00  0.00    -0.274 NA
BRANCH  12  13
HETATM   13  C2  UNL     1      15.103  -5.572  53.565  1.00  0.00     0.106 C 
HETATM   14  C1  UNL     1      15.343  -6.167  54.704  1.00  0.00     0.032 C 
ENDBRANCH  12  13
ENDBRANCH  10  11
ENDBRANCH   7   9
ENDBRANCH   1   3
BRANCH   1  15
HETATM   15  C10 UNL     1      23.221   0.614  53.199  1.00  0.00     0.052 A 
HETATM   16  C11 UNL     1      23.287   1.978  53.037  1.00  0.00     0.030 A 
HETATM   17  C12 UNL     1      24.415   2.697  52.724  1.00  0.00     0.005 A 
HETATM   18  C13 UNL     1      25.593   2.032  52.551  1.00  0.00     0.037 A 
HETATM   19  C14 UNL     1      25.593   0.661  52.699  1.00  0.00     0.077 A 
HETATM   20  C17 UNL     1      24.434  -0.012  53.015  1.00  0.00     0.067 A 
BRANCH  19  21
HETATM   21  O1  UNL     1      26.796   0.007  52.520  1.00  0.00    -0.282 OA
BRANCH  21  22
HETATM   22  C15 UNL     1      27.732  -0.244  53.525  1.00  0.00     0.385 C 
HETATM   23  F1  UNL     1      28.254  -1.526  53.373  1.00  0.00    -0.172 F 
HETATM   24  F2  UNL     1      27.084  -0.156  54.757  1.00  0.00    -0.172 F 
BRANCH  22  25
HETATM   25  C16 UNL     1      28.884   0.717  53.470  1.00  0.00     0.334 C 
HETATM   26  F3  UNL     1      30.078   0.026  53.503  1.00  0.00    -0.246 F 
ENDBRANCH  22  25
ENDBRANCH  21  22
ENDBRANCH  19  21
ENDBRANCH   1  15
TORSDOF 8
ENDMDL
