MODEL 1
REMARK VINA RESULT:      -7.2      0.000      0.000
REMARK  7 active torsions:
REMARK  status: ('A' for Active; 'I' for Inactive)
REMARK    1  A    between atoms: C2_2  and  C4_4 
REMARK    2  A    between atoms: C4_4  and  N1_11 
REMARK    3  A    between atoms: C5_5  and  C6_6 
REMARK    4  A    between atoms: C6_6  and  C8_8 
REMARK    5  A    between atoms: C8_8  and  C9_9 
REMARK    6  A    between atoms: N1_11  and  C10_12 
REMARK    7  A    between atoms: C13_16  and  C14_17 
ROOT
HETATM    1  C10 UNL     1      24.015   2.949  51.651  1.00  0.00     0.727 A 
HETATM    2  N2  UNL     1      22.849   3.545  51.890  1.00  0.00    -0.075 NA
HETATM    3  C11 UNL     1      22.572   4.764  51.391  1.00  0.00     0.139 A 
HETATM    4  C12 UNL     1      23.603   5.276  50.637  1.00  0.00     0.053 A 
HETATM    5  C13 UNL     1      24.829   4.736  50.341  1.00  0.00     0.089 A 
HETATM    6  N4  UNL     1      25.009   3.523  50.880  1.00  0.00    -0.062 NA
ENDROOT
BRANCH   1   7
HETATM    7  N1  UNL     1      24.266   1.675  52.217  1.00  0.00    -0.188 N 
HETATM    8  H14 UNL     1      25.180   2.041  52.643  1.00  0.00     0.184 HD
BRANCH   7   9
HETATM    9  C4  UNL     1      24.501   0.398  52.773  1.00  0.00     0.048 C 
HETATM   10  C5  UNL     1      25.761  -0.002  52.957  1.00  0.00     0.008 C 
BRANCH   9  11
HETATM   11  C2  UNL     1      23.127  -0.091  53.117  1.00  0.00    -0.057 C 
HETATM   12  C1  UNL     1      22.627  -0.669  54.179  1.00  0.00     0.040 C 
HETATM   13  C3  UNL     1      21.867  -0.049  52.273  1.00  0.00     0.046 C 
ENDBRANCH   9  11
BRANCH  10  14
HETATM   14  C6  UNL     1      26.827  -0.882  53.433  1.00  0.00     0.012 C 
HETATM   15  C7  UNL     1      27.014  -2.066  52.489  1.00  0.00     0.015 C 
BRANCH  14  16
HETATM   16  C8  UNL     1      28.185  -0.184  53.510  1.00  0.00     0.077 C 
BRANCH  16  17
HETATM   17  C9  UNL     1      27.951   1.303  53.574  1.00  0.00     0.231 C 
HETATM   18  O1  UNL     1      28.326   2.362  54.036  1.00  0.00    -0.307 OA
ENDBRANCH  16  17
ENDBRANCH  14  16
ENDBRANCH  10  14
ENDBRANCH   7   9
ENDBRANCH   1   7
BRANCH   5  19
HETATM   19  C14 UNL     1      25.940   5.299  49.589  1.00  0.00     0.012 A 
HETATM   20  C15 UNL     1      26.966   4.497  49.210  1.00  0.00     0.130 A 
HETATM   21  N3  UNL     1      28.081   4.775  48.572  1.00  0.00    -0.271 NA
HETATM   22  C16 UNL     1      28.511   5.950  48.120  1.00  0.00     0.131 A 
HETATM   23  P1  UNL     1      27.381   7.237  48.452  1.00  0.00    -0.014 P 
HETATM   24  C17 UNL     1      25.983   6.665  49.295  1.00  0.00     0.032 A 
ENDBRANCH   5  19
TORSDOF 7
ENDMDL
MODEL 2
REMARK VINA RESULT:      -7.1      3.191      5.622
REMARK  7 active torsions:
REMARK  status: ('A' for Active; 'I' for Inactive)
REMARK    1  A    between atoms: C2_2  and  C4_4 
REMARK    2  A    between atoms: C4_4  and  N1_11 
REMARK    3  A    between atoms: C5_5  and  C6_6 
REMARK    4  A    between atoms: C6_6  and  C8_8 
REMARK    5  A    between atoms: C8_8  and  C9_9 
REMARK    6  A    between atoms: N1_11  and  C10_12 
REMARK    7  A    between atoms: C13_16  and  C14_17 
ROOT
HETATM    1  C10 UNL     1      23.911   1.817  51.076  1.00  0.00     0.727 A 
HETATM    2  N2  UNL     1      24.075   2.830  50.229  1.00  0.00    -0.075 NA
HETATM    3  C11 UNL     1      25.281   3.401  50.048  1.00  0.00     0.139 A 
HETATM    4  C12 UNL     1      26.265   2.818  50.813  1.00  0.00     0.053 A 
HETATM    5  C13 UNL     1      26.186   1.777  51.705  1.00  0.00     0.089 A 
HETATM    6  N4  UNL     1      24.948   1.277  51.814  1.00  0.00    -0.062 NA
ENDROOT
BRANCH   1   7
HETATM    7  N1  UNL     1      22.617   1.266  51.247  1.00  0.00    -0.188 N 
HETATM    8  H14 UNL     1      22.205   2.029  50.616  1.00  0.00     0.184 HD
BRANCH   7   9
HETATM    9  C4  UNL     1      21.335   0.704  51.431  1.00  0.00     0.048 C 
HETATM   10  C5  UNL     1      21.024   0.182  52.619  1.00  0.00     0.008 C 
BRANCH   9  11
HETATM   11  C2  UNL     1      20.632   1.010  50.142  1.00  0.00    -0.057 C 
HETATM   12  C1  UNL     1      19.377   1.221  49.841  1.00  0.00     0.040 C 
HETATM   13  C3  UNL     1      21.224   1.164  48.754  1.00  0.00     0.046 C 
ENDBRANCH   9  11
BRANCH  10  14
HETATM   14  C6  UNL     1      20.150  -0.410  53.631  1.00  0.00     0.012 C 
HETATM   15  C7  UNL     1      18.786  -0.748  53.037  1.00  0.00     0.015 C 
BRANCH  14  16
HETATM   16  C8  UNL     1      20.700  -1.719  54.200  1.00  0.00     0.077 C 
BRANCH  16  17
HETATM   17  C9  UNL     1      22.098  -1.467  54.702  1.00  0.00     0.231 C 
HETATM   18  O1  UNL     1      22.820  -1.396  55.676  1.00  0.00    -0.307 OA
ENDBRANCH  16  17
ENDBRANCH  14  16
ENDBRANCH  10  14
ENDBRANCH   7   9
ENDBRANCH   1   7
BRANCH   5  19
HETATM   19  C14 UNL     1      27.214   1.196  52.553  1.00  0.00     0.012 A 
HETATM   20  C15 UNL     1      27.250  -0.148  52.736  1.00  0.00     0.130 A 
HETATM   21  N3  UNL     1      28.041  -0.893  53.475  1.00  0.00    -0.271 NA
HETATM   22  C16 UNL     1      29.043  -0.513  54.265  1.00  0.00     0.131 A 
HETATM   23  P1  UNL     1      29.273   1.216  54.252  1.00  0.00    -0.014 P 
HETATM   24  C17 UNL     1      28.135   2.010  53.219  1.00  0.00     0.032 A 
ENDBRANCH   5  19
TORSDOF 7
ENDMDL
MODEL 3
REMARK VINA RESULT:      -7.0      3.742      6.822
REMARK  7 active torsions:
REMARK  status: ('A' for Active; 'I' for Inactive)
REMARK    1  A    between atoms: C2_2  and  C4_4 
REMARK    2  A    between atoms: C4_4  and  N1_11 
REMARK    3  A    between atoms: C5_5  and  C6_6 
REMARK    4  A    between atoms: C6_6  and  C8_8 
REMARK    5  A    between atoms: C8_8  and  C9_9 
REMARK    6  A    between atoms: N1_11  and  C10_12 
REMARK    7  A    between atoms: C13_16  and  C14_17 
ROOT
HETATM    1  C10 UNL     1      23.796  -0.161  53.692  1.00  0.00     0.727 A 
HETATM    2  N2  UNL     1      23.902  -0.926  54.777  1.00  0.00    -0.075 NA
HETATM    3  C11 UNL     1      22.829  -1.551  55.298  1.00  0.00     0.139 A 
HETATM    4  C12 UNL     1      21.676  -1.307  54.588  1.00  0.00     0.053 A 
HETATM    5  C13 UNL     1      21.477  -0.539  53.468  1.00  0.00     0.089 A 
HETATM    6  N4  UNL     1      22.602   0.039  53.026  1.00  0.00    -0.062 NA
ENDROOT
BRANCH   1   7
HETATM    7  N1  UNL     1      24.951   0.493  53.196  1.00  0.00    -0.188 N 
HETATM    8  H14 UNL     1      25.389  -0.456  52.955  1.00  0.00     0.184 HD
BRANCH   7   9
HETATM    9  C4  UNL     1      26.095   1.162  52.707  1.00  0.00     0.048 C 
HETATM   10  C5  UNL     1      27.287   0.866  53.230  1.00  0.00     0.008 C 
BRANCH   9  11
HETATM   11  C2  UNL     1      25.561   1.980  51.570  1.00  0.00    -0.057 C 
HETATM   12  C1  UNL     1      24.350   2.237  51.150  1.00  0.00     0.040 C 
HETATM   13  C3  UNL     1      26.331   2.777  50.533  1.00  0.00     0.046 C 
ENDBRANCH   9  11
BRANCH  10  14
HETATM   14  C6  UNL     1      28.744   0.903  53.339  1.00  0.00     0.012 C 
HETATM   15  C7  UNL     1      29.204   2.196  54.005  1.00  0.00     0.015 C 
BRANCH  14  16
HETATM   16  C8  UNL     1      29.307  -0.235  54.191  1.00  0.00     0.077 C 
BRANCH  16  17
HETATM   17  C9  UNL     1      29.211  -1.513  53.399  1.00  0.00     0.231 C 
HETATM   18  O1  UNL     1      28.592  -2.543  53.221  1.00  0.00    -0.307 OA
ENDBRANCH  16  17
ENDBRANCH  14  16
ENDBRANCH  10  14
ENDBRANCH   7   9
ENDBRANCH   1   7
BRANCH   5  19
HETATM   19  C14 UNL     1      20.249  -0.239  52.749  1.00  0.00     0.012 A 
HETATM   20  C15 UNL     1      19.075  -0.763  53.181  1.00  0.00     0.130 A 
HETATM   21  N3  UNL     1      17.861  -0.674  52.686  1.00  0.00    -0.271 NA
HETATM   22  C16 UNL     1      17.453  -0.029  51.596  1.00  0.00     0.131 A 
HETATM   23  P1  UNL     1      18.763   0.785  50.782  1.00  0.00    -0.014 P 
HETATM   24  C17 UNL     1      20.273   0.545  51.592  1.00  0.00     0.032 A 
ENDBRANCH   5  19
TORSDOF 7
ENDMDL
MODEL 4
REMARK VINA RESULT:      -6.9      3.208      6.494
REMARK  7 active torsions:
REMARK  status: ('A' for Active; 'I' for Inactive)
REMARK    1  A    between atoms: C2_2  and  C4_4 
REMARK    2  A    between atoms: C4_4  and  N1_11 
REMARK    3  A    between atoms: C5_5  and  C6_6 
REMARK    4  A    between atoms: C6_6  and  C8_8 
REMARK    5  A    between atoms: C8_8  and  C9_9 
REMARK    6  A    between atoms: N1_11  and  C10_12 
REMARK    7  A    between atoms: C13_16  and  C14_17 
ROOT
HETATM    1  C10 UNL     1      23.847   1.362  51.687  1.00  0.00     0.727 A 
HETATM    2  N2  UNL     1      22.795   1.042  52.437  1.00  0.00    -0.075 NA
HETATM    3  C11 UNL     1      22.912   0.197  53.479  1.00  0.00     0.139 A 
HETATM    4  C12 UNL     1      24.199  -0.257  53.653  1.00  0.00     0.053 A 
HETATM    5  C13 UNL     1      25.334   0.019  52.934  1.00  0.00     0.089 A 
HETATM    6  N4  UNL     1      25.117   0.867  51.920  1.00  0.00    -0.062 NA
ENDROOT
BRANCH   1   7
HETATM    7  N1  UNL     1      23.668   2.237  50.587  1.00  0.00    -0.188 N 
HETATM    8  H14 UNL     1      24.463   1.745  50.061  1.00  0.00     0.184 HD
BRANCH   7   9
HETATM    9  C4  UNL     1      23.476   3.119  49.501  1.00  0.00     0.048 C 
HETATM   10  C5  UNL     1      24.198   4.240  49.446  1.00  0.00     0.008 C 
BRANCH   9  11
HETATM   11  C2  UNL     1      22.516   2.381  48.617  1.00  0.00    -0.057 C 
HETATM   12  C1  UNL     1      22.534   2.068  47.347  1.00  0.00     0.040 C 
HETATM   13  C3  UNL     1      21.179   1.762  48.980  1.00  0.00     0.046 C 
ENDBRANCH   9  11
BRANCH  10  14
HETATM   14  C6  UNL     1      24.710   5.472  48.848  1.00  0.00     0.012 C 
HETATM   15  C7  UNL     1      23.789   6.648  49.159  1.00  0.00     0.015 C 
BRANCH  14  16
HETATM   16  C8  UNL     1      26.089   5.863  49.378  1.00  0.00     0.077 C 
BRANCH  16  17
HETATM   17  C9  UNL     1      27.070   4.789  48.986  1.00  0.00     0.231 C 
HETATM   18  O1  UNL     1      28.130   4.542  48.446  1.00  0.00    -0.307 OA
ENDBRANCH  16  17
ENDBRANCH  14  16
ENDBRANCH  10  14
ENDBRANCH   7   9
ENDBRANCH   1   7
BRANCH   5  19
HETATM   19  C14 UNL     1      26.684  -0.503  53.085  1.00  0.00     0.012 A 
HETATM   20  C15 UNL     1      26.924  -1.816  52.846  1.00  0.00     0.130 A 
HETATM   21  N3  UNL     1      28.029  -2.520  52.952  1.00  0.00    -0.271 NA
HETATM   22  C16 UNL     1      29.238  -2.118  53.337  1.00  0.00     0.131 A 
HETATM   23  P1  UNL     1      29.274  -0.418  53.725  1.00  0.00    -0.014 P 
HETATM   24  C17 UNL     1      27.724   0.323  53.520  1.00  0.00     0.032 A 
ENDBRANCH   5  19
TORSDOF 7
ENDMDL
MODEL 5
REMARK VINA RESULT:      -6.9      2.199      3.691
REMARK  7 active torsions:
REMARK  status: ('A' for Active; 'I' for Inactive)
REMARK    1  A    between atoms: C2_2  and  C4_4 
REMARK    2  A    between atoms: C4_4  and  N1_11 
REMARK    3  A    between atoms: C5_5  and  C6_6 
REMARK    4  A    between atoms: C6_6  and  C8_8 
REMARK    5  A    between atoms: C8_8  and  C9_9 
REMARK    6  A    between atoms: N1_11  and  C10_12 
REMARK    7  A    between atoms: C13_16  and  C14_17 
ROOT
HETATM    1  C10 UNL     1      24.690   4.152  50.178  1.00  0.00     0.727 A 
HETATM    2  N2  UNL     1      23.564   4.797  49.881  1.00  0.00    -0.075 NA
HETATM    3  C11 UNL     1      23.572   5.892  49.098  1.00  0.00     0.139 A 
HETATM    4  C12 UNL     1      24.834   6.227  48.666  1.00  0.00     0.053 A 
HETATM    5  C13 UNL     1      26.041   5.624  48.921  1.00  0.00     0.089 A 
HETATM    6  N4  UNL     1      25.929   4.545  49.707  1.00  0.00    -0.062 NA
ENDROOT
BRANCH   1   7
HETATM    7  N1  UNL     1      24.631   3.018  51.025  1.00  0.00    -0.188 N 
HETATM    8  H14 UNL     1      25.188   3.545  51.775  1.00  0.00     0.184 HD
BRANCH   7   9
HETATM    9  C4  UNL     1      24.564   1.878  51.856  1.00  0.00     0.048 C 
HETATM   10  C5  UNL     1      23.366   1.431  52.240  1.00  0.00     0.008 C 
BRANCH   9  11
HETATM   11  C2  UNL     1      25.991   1.429  51.949  1.00  0.00    -0.057 C 
HETATM   12  C1  UNL     1      26.560   0.253  51.896  1.00  0.00     0.040 C 
HETATM   13  C3  UNL     1      27.237   2.271  52.149  1.00  0.00     0.046 C 
ENDBRANCH   9  11
BRANCH  10  14
HETATM   14  C6  UNL     1      22.423   0.503  52.862  1.00  0.00     0.012 C 
HETATM   15  C7  UNL     1      21.350   0.074  51.866  1.00  0.00     0.015 C 
BRANCH  14  16
HETATM   16  C8  UNL     1      23.088  -0.785  53.348  1.00  0.00     0.077 C 
BRANCH  16  17
HETATM   17  C9  UNL     1      22.513  -1.136  54.696  1.00  0.00     0.231 C 
HETATM   18  O1  UNL     1      22.442  -1.972  55.574  1.00  0.00    -0.307 OA
ENDBRANCH  16  17
ENDBRANCH  14  16
ENDBRANCH  10  14
ENDBRANCH   7   9
ENDBRANCH   1   7
BRANCH   5  19
HETATM   19  C14 UNL     1      27.381   6.009  48.509  1.00  0.00     0.012 A 
HETATM   20  C15 UNL     1      28.357   5.069  48.441  1.00  0.00     0.130 A 
HETATM   21  N3  UNL     1      29.632   5.175  48.141  1.00  0.00    -0.271 NA
HETATM   22  C16 UNL     1      30.323   6.266  47.821  1.00  0.00     0.131 A 
HETATM   23  P1  UNL     1      29.328   7.698  47.812  1.00  0.00    -0.014 P 
HETATM   24  C17 UNL     1      27.686   7.344  48.230  1.00  0.00     0.032 A 
ENDBRANCH   5  19
TORSDOF 7
ENDMDL
MODEL 6
REMARK VINA RESULT:      -6.9      2.987      6.745
REMARK  7 active torsions:
REMARK  status: ('A' for Active; 'I' for Inactive)
REMARK    1  A    between atoms: C2_2  and  C4_4 
REMARK    2  A    between atoms: C4_4  and  N1_11 
REMARK    3  A    between atoms: C5_5  and  C6_6 
REMARK    4  A    between atoms: C6_6  and  C8_8 
REMARK    5  A    between atoms: C8_8  and  C9_9 
REMARK    6  A    between atoms: N1_11  and  C10_12 
REMARK    7  A    between atoms: C13_16  and  C14_17 
ROOT
HETATM    1  C10 UNL     1      24.738   2.515  51.876  1.00  0.00     0.727 A 
HETATM    2  N2  UNL     1      23.506   2.185  52.257  1.00  0.00    -0.075 NA
HETATM    3  C11 UNL     1      23.261   1.033  52.908  1.00  0.00     0.139 A 
HETATM    4  C12 UNL     1      24.400   0.289  53.119  1.00  0.00     0.053 A 
HETATM    5  C13 UNL     1      25.700   0.551  52.764  1.00  0.00     0.089 A 
HETATM    6  N4  UNL     1      25.840   1.719  52.123  1.00  0.00    -0.062 NA
ENDROOT
BRANCH   1   7
HETATM    7  N1  UNL     1      24.939   3.728  51.173  1.00  0.00    -0.188 N 
HETATM    8  H14 UNL     1      24.073   3.528  50.573  1.00  0.00     0.184 HD
BRANCH   7   9
HETATM    9  C4  UNL     1      25.156   4.941  50.482  1.00  0.00     0.048 C 
HETATM   10  C5  UNL     1      26.127   4.997  49.568  1.00  0.00     0.008 C 
BRANCH   9  11
HETATM   11  C2  UNL     1      24.042   5.821  50.964  1.00  0.00    -0.057 C 
HETATM   12  C1  UNL     1      22.844   5.570  51.423  1.00  0.00     0.040 C 
HETATM   13  C3  UNL     1      24.001   7.336  51.050  1.00  0.00     0.046 C 
ENDBRANCH   9  11
BRANCH  10  14
HETATM   14  C6  UNL     1      26.914   5.593  48.490  1.00  0.00     0.012 C 
HETATM   15  C7  UNL     1      27.005   7.106  48.660  1.00  0.00     0.015 C 
BRANCH  14  16
HETATM   16  C8  UNL     1      28.355   5.084  48.453  1.00  0.00     0.077 C 
BRANCH  16  17
HETATM   17  C9  UNL     1      29.251   6.225  48.044  1.00  0.00     0.231 C 
HETATM   18  O1  UNL     1      30.327   6.766  48.201  1.00  0.00    -0.307 OA
ENDBRANCH  16  17
ENDBRANCH  14  16
ENDBRANCH  10  14
ENDBRANCH   7   9
ENDBRANCH   1   7
BRANCH   5  19
HETATM   19  C14 UNL     1      26.895  -0.258  52.939  1.00  0.00     0.012 A 
HETATM   20  C15 UNL     1      26.834  -1.597  52.725  1.00  0.00     0.130 A 
HETATM   21  N3  UNL     1      27.751  -2.529  52.855  1.00  0.00    -0.271 NA
HETATM   22  C16 UNL     1      29.017  -2.403  53.247  1.00  0.00     0.131 A 
HETATM   23  P1  UNL     1      29.433  -0.748  53.607  1.00  0.00    -0.014 P 
HETATM   24  C17 UNL     1      28.092   0.320  53.372  1.00  0.00     0.032 A 
ENDBRANCH   5  19
TORSDOF 7
ENDMDL
MODEL 7
REMARK VINA RESULT:      -6.9      2.197      3.672
REMARK  7 active torsions:
REMARK  status: ('A' for Active; 'I' for Inactive)
REMARK    1  A    between atoms: C2_2  and  C4_4 
REMARK    2  A    between atoms: C4_4  and  N1_11 
REMARK    3  A    between atoms: C5_5  and  C6_6 
REMARK    4  A    between atoms: C6_6  and  C8_8 
REMARK    5  A    between atoms: C8_8  and  C9_9 
REMARK    6  A    between atoms: N1_11  and  C10_12 
REMARK    7  A    between atoms: C13_16  and  C14_17 
ROOT
HETATM    1  C10 UNL     1      23.846   2.893  50.820  1.00  0.00     0.727 A 
HETATM    2  N2  UNL     1      22.601   3.283  50.556  1.00  0.00    -0.075 NA
HETATM    3  C11 UNL     1      22.353   4.336  49.756  1.00  0.00     0.139 A 
HETATM    4  C12 UNL     1      23.503   4.917  49.270  1.00  0.00     0.053 A 
HETATM    5  C13 UNL     1      24.817   4.583  49.488  1.00  0.00     0.089 A 
HETATM    6  N4  UNL     1      24.959   3.523  50.295  1.00  0.00    -0.062 NA
ENDROOT
BRANCH   1   7
HETATM    7  N1  UNL     1      24.054   1.792  51.687  1.00  0.00    -0.188 N 
HETATM    8  H14 UNL     1      24.484   1.232  50.878  1.00  0.00     0.184 HD
BRANCH   7   9
HETATM    9  C4  UNL     1      24.253   0.704  52.565  1.00  0.00     0.048 C 
HETATM   10  C5  UNL     1      23.196   0.179  53.189  1.00  0.00     0.008 C 
BRANCH   9  11
HETATM   11  C2  UNL     1      25.709   0.388  52.405  1.00  0.00    -0.057 C 
HETATM   12  C1  UNL     1      26.425  -0.674  52.672  1.00  0.00     0.040 C 
HETATM   13  C3  UNL     1      26.816   1.272  51.860  1.00  0.00     0.046 C 
ENDBRANCH   9  11
BRANCH  10  14
HETATM   14  C6  UNL     1      22.480  -0.787  54.020  1.00  0.00     0.012 C 
HETATM   15  C7  UNL     1      23.323  -1.196  55.224  1.00  0.00     0.015 C 
BRANCH  14  16
HETATM   16  C8  UNL     1      21.173  -0.231  54.588  1.00  0.00     0.077 C 
BRANCH  16  17
HETATM   17  C9  UNL     1      20.073  -0.497  53.593  1.00  0.00     0.231 C 
HETATM   18  O1  UNL     1      19.512  -0.114  52.586  1.00  0.00    -0.307 OA
ENDBRANCH  16  17
ENDBRANCH  14  16
ENDBRANCH  10  14
ENDBRANCH   7   9
ENDBRANCH   1   7
BRANCH   5  19
HETATM   19  C14 UNL     1      26.032   5.228  49.018  1.00  0.00     0.012 A 
HETATM   20  C15 UNL     1      27.179   4.509  48.926  1.00  0.00     0.130 A 
HETATM   21  N3  UNL     1      28.393   4.870  48.575  1.00  0.00    -0.271 NA
HETATM   22  C16 UNL     1      28.831   6.073  48.212  1.00  0.00     0.131 A 
HETATM   23  P1  UNL     1      27.560   7.267  48.221  1.00  0.00    -0.014 P 
HETATM   24  C17 UNL     1      26.043   6.591  48.709  1.00  0.00     0.032 A 
ENDBRANCH   5  19
TORSDOF 7
ENDMDL
MODEL 8
REMARK VINA RESULT:      -6.8      3.698      6.293
REMARK  7 active torsions:
REMARK  status: ('A' for Active; 'I' for Inactive)
REMARK    1  A    between atoms: C2_2  and  C4_4 
REMARK    2  A    between atoms: C4_4  and  N1_11 
REMARK    3  A    between atoms: C5_5  and  C6_6 
REMARK    4  A    between atoms: C6_6  and  C8_8 
REMARK    5  A    between atoms: C8_8  and  C9_9 
REMARK    6  A    between atoms: N1_11  and  C10_12 
REMARK    7  A    between atoms: C13_16  and  C14_17 
ROOT
HETATM    1  C10 UNL     1      23.717   1.698  51.313  1.00  0.00     0.727 A 
HETATM    2  N2  UNL     1      23.826   2.653  50.392  1.00  0.00    -0.075 NA
HETATM    3  C11 UNL     1      25.021   3.186  50.077  1.00  0.00     0.139 A 
HETATM    4  C12 UNL     1      26.056   2.632  50.794  1.00  0.00     0.053 A 
HETATM    5  C13 UNL     1      26.035   1.652  51.754  1.00  0.00     0.089 A 
HETATM    6  N4  UNL     1      24.803   1.185  51.997  1.00  0.00    -0.062 NA
ENDROOT
BRANCH   1   7
HETATM    7  N1  UNL     1      22.434   1.186  51.626  1.00  0.00    -0.188 N 
HETATM    8  H14 UNL     1      22.189   1.154  50.582  1.00  0.00     0.184 HD
BRANCH   7   9
HETATM    9  C4  UNL     1      21.158   0.676  51.955  1.00  0.00     0.048 C 
HETATM   10  C5  UNL     1      20.174   0.775  51.059  1.00  0.00     0.008 C 
BRANCH   9  11
HETATM   11  C2  UNL     1      21.377   0.023  53.287  1.00  0.00    -0.057 C 
HETATM   12  C1  UNL     1      20.818   0.182  54.459  1.00  0.00     0.040 C 
HETATM   13  C3  UNL     1      22.370  -1.062  53.658  1.00  0.00     0.046 C 
ENDBRANCH   9  11
BRANCH  10  14
HETATM   14  C6  UNL     1      18.842   0.537  50.506  1.00  0.00     0.012 C 
HETATM   15  C7  UNL     1      17.916  -0.057  51.563  1.00  0.00     0.015 C 
BRANCH  14  16
HETATM   16  C8  UNL     1      18.161   1.817  50.020  1.00  0.00     0.077 C 
BRANCH  16  17
HETATM   17  C9  UNL     1      18.464   2.918  51.003  1.00  0.00     0.231 C 
HETATM   18  O1  UNL     1      18.090   3.516  51.991  1.00  0.00    -0.307 OA
ENDBRANCH  16  17
ENDBRANCH  14  16
ENDBRANCH  10  14
ENDBRANCH   7   9
ENDBRANCH   1   7
BRANCH   5  19
HETATM   19  C14 UNL     1      27.122   1.104  52.551  1.00  0.00     0.012 A 
HETATM   20  C15 UNL     1      27.223  -0.239  52.711  1.00  0.00     0.130 A 
HETATM   21  N3  UNL     1      28.075  -0.960  53.406  1.00  0.00    -0.271 NA
HETATM   22  C16 UNL     1      29.091  -0.548  54.160  1.00  0.00     0.131 A 
HETATM   23  P1  UNL     1      29.246   1.190  54.165  1.00  0.00    -0.014 P 
HETATM   24  C17 UNL     1      28.033   1.948  53.192  1.00  0.00     0.032 A 
ENDBRANCH   5  19
TORSDOF 7
ENDMDL
MODEL 9
REMARK VINA RESULT:      -6.6      3.553      7.418
REMARK  7 active torsions:
REMARK  status: ('A' for Active; 'I' for Inactive)
REMARK    1  A    between atoms: C2_2  and  C4_4 
REMARK    2  A    between atoms: C4_4  and  N1_11 
REMARK    3  A    between atoms: C5_5  and  C6_6 
REMARK    4  A    between atoms: C6_6  and  C8_8 
REMARK    5  A    between atoms: C8_8  and  C9_9 
REMARK    6  A    between atoms: N1_11  and  C10_12 
REMARK    7  A    between atoms: C13_16  and  C14_17 
ROOT
HETATM    1  C10 UNL     1      24.461   2.250  51.946  1.00  0.00     0.727 A 
HETATM    2  N2  UNL     1      23.261   1.835  52.344  1.00  0.00    -0.075 NA
HETATM    3  C11 UNL     1      23.106   0.668  52.998  1.00  0.00     0.139 A 
HETATM    4  C12 UNL     1      24.297   0.006  53.191  1.00  0.00     0.053 A 
HETATM    5  C13 UNL     1      25.570   0.358  52.817  1.00  0.00     0.089 A 
HETATM    6  N4  UNL     1      25.620   1.533  52.175  1.00  0.00    -0.062 NA
ENDROOT
BRANCH   1   7
HETATM    7  N1  UNL     1      24.567   3.475  51.242  1.00  0.00    -0.188 N 
HETATM    8  H14 UNL     1      24.294   4.013  52.129  1.00  0.00     0.184 HD
BRANCH   7   9
HETATM    9  C4  UNL     1      24.676   4.686  50.524  1.00  0.00     0.048 C 
HETATM   10  C5  UNL     1      23.820   5.674  50.793  1.00  0.00     0.008 C 
BRANCH   9  11
HETATM   11  C2  UNL     1      25.910   4.491  49.695  1.00  0.00    -0.057 C 
HETATM   12  C1  UNL     1      26.664   3.451  49.452  1.00  0.00     0.040 C 
HETATM   13  C3  UNL     1      26.667   5.513  48.867  1.00  0.00     0.046 C 
ENDBRANCH   9  11
BRANCH  10  14
HETATM   14  C6  UNL     1      23.273   7.027  50.711  1.00  0.00     0.012 C 
HETATM   15  C7  UNL     1      24.380   8.043  50.444  1.00  0.00     0.015 C 
BRANCH  14  16
HETATM   16  C8  UNL     1      22.264   7.194  49.575  1.00  0.00     0.077 C 
BRANCH  16  17
HETATM   17  C9  UNL     1      21.125   8.045  50.073  1.00  0.00     0.231 C 
HETATM   18  O1  UNL     1      19.938   8.288  49.988  1.00  0.00    -0.307 OA
ENDBRANCH  16  17
ENDBRANCH  14  16
ENDBRANCH  10  14
ENDBRANCH   7   9
ENDBRANCH   1   7
BRANCH   5  19
HETATM   19  C14 UNL     1      26.822  -0.366  52.974  1.00  0.00     0.012 A 
HETATM   20  C15 UNL     1      26.848  -1.708  52.773  1.00  0.00     0.130 A 
HETATM   21  N3  UNL     1      27.829  -2.574  52.892  1.00  0.00    -0.271 NA
HETATM   22  C16 UNL     1      29.091  -2.358  53.256  1.00  0.00     0.131 A 
HETATM   23  P1  UNL     1      29.401  -0.674  53.591  1.00  0.00    -0.014 P 
HETATM   24  C17 UNL     1      27.985   0.297  53.375  1.00  0.00     0.032 A 
ENDBRANCH   5  19
TORSDOF 7
ENDMDL
