MODEL 1
REMARK VINA RESULT:     -10.9      0.000      0.000
REMARK  0 active torsions:
REMARK  status: ('A' for Active; 'I' for Inactive)
ROOT
HETATM    1  C1  UNL     1      23.191  -0.226  53.045  1.00  0.00    -0.018 C 
HETATM    2  C2  UNL     1      22.227   0.091  52.209  1.00  0.00    -0.025 C 
HETATM    3  C3  UNL     1      21.562   0.811  51.139  1.00  0.00     0.065 C 
HETATM    4  C4  UNL     1      22.374   1.915  50.593  1.00  0.00    -0.054 A 
HETATM    5  C5  UNL     1      21.598   2.942  50.034  1.00  0.00     0.008 A 
HETATM    6  C6  UNL     1      22.062   4.106  49.459  1.00  0.00     0.013 A 
HETATM    7  C7  UNL     1      23.419   4.336  49.402  1.00  0.00    -0.025 A 
HETATM    8  C8  UNL     1      23.937   5.484  48.848  1.00  0.00     0.012 A 
HETATM    9  C9  UNL     1      25.309   5.632  48.843  1.00  0.00     0.002 A 
HETATM   10  C10 UNL     1      26.088   4.632  49.390  1.00  0.00     0.010 A 
HETATM   11  C11 UNL     1      25.612   3.467  49.954  1.00  0.00    -0.029 A 
HETATM   12  C12 UNL     1      24.237   3.370  49.932  1.00  0.00    -0.018 A 
HETATM   13  C13 UNL     1      23.687   2.250  50.478  1.00  0.00     0.020 A 
HETATM   14  C14 UNL     1      26.489   2.435  50.552  1.00  0.00     0.159 C 
HETATM   15  N1  UNL     1      26.729   2.699  51.972  1.00  0.00    -0.385 N 
HETATM   16  C15 UNL     1      27.392   2.044  53.048  1.00  0.00     0.046 A 
HETATM   17  C16 UNL     1      28.692   2.334  53.479  1.00  0.00     0.049 A 
HETATM   18  C17 UNL     1      29.257   1.606  54.534  1.00  0.00     0.122 A 
HETATM   19  N2  UNL     1      28.589   0.628  55.157  1.00  0.00    -0.236 NA
HETATM   20  C18 UNL     1      27.348   0.312  54.789  1.00  0.00     0.184 A 
HETATM   21  C19 UNL     1      26.830   1.041  53.756  1.00  0.00     0.074 A 
HETATM   22  C20 UNL     1      25.664   0.248  53.919  1.00  0.00     0.081 A 
HETATM   23  C21 UNL     1      24.480  -0.148  53.669  1.00  0.00     0.080 C 
HETATM   24  O1  UNL     1      26.238  -0.491  54.987  1.00  0.00    -0.294 OA
HETATM   25  H13 UNL     1      26.476   3.488  52.607  1.00  0.00     0.160 HD
ENDROOT
TORSDOF 0
ENDMDL
MODEL 2
REMARK VINA RESULT:      -9.8      2.726      6.368
REMARK  0 active torsions:
REMARK  status: ('A' for Active; 'I' for Inactive)
ROOT
HETATM    1  C1  UNL     1      26.320   1.420  52.431  1.00  0.00    -0.018 C 
HETATM    2  C2  UNL     1      26.063   0.406  53.227  1.00  0.00    -0.025 C 
HETATM    3  C3  UNL     1      25.268  -0.607  53.896  1.00  0.00     0.065 C 
HETATM    4  C4  UNL     1      23.832  -0.520  53.573  1.00  0.00    -0.054 A 
HETATM    5  C5  UNL     1      23.009  -1.036  54.588  1.00  0.00     0.008 A 
HETATM    6  C6  UNL     1      21.632  -1.084  54.587  1.00  0.00     0.013 A 
HETATM    7  C7  UNL     1      20.940  -0.589  53.504  1.00  0.00    -0.025 A 
HETATM    8  C8  UNL     1      19.565  -0.605  53.454  1.00  0.00     0.012 A 
HETATM    9  C9  UNL     1      18.958  -0.079  52.332  1.00  0.00     0.002 A 
HETATM   10  C10 UNL     1      19.750   0.433  51.324  1.00  0.00     0.010 A 
HETATM   11  C11 UNL     1      21.129   0.469  51.333  1.00  0.00    -0.029 A 
HETATM   12  C12 UNL     1      21.684  -0.070  52.475  1.00  0.00    -0.018 A 
HETATM   13  C13 UNL     1      23.043  -0.066  52.563  1.00  0.00     0.020 A 
HETATM   14  C14 UNL     1      21.935   1.053  50.237  1.00  0.00     0.159 C 
HETATM   15  N1  UNL     1      22.173   2.481  50.456  1.00  0.00    -0.385 N 
HETATM   16  C15 UNL     1      22.916   3.515  49.818  1.00  0.00     0.046 A 
HETATM   17  C16 UNL     1      22.380   4.443  48.918  1.00  0.00     0.049 A 
HETATM   18  C17 UNL     1      23.211   5.405  48.328  1.00  0.00     0.122 A 
HETATM   19  N2  UNL     1      24.520   5.471  48.600  1.00  0.00    -0.236 NA
HETATM   20  C18 UNL     1      25.081   4.614  49.451  1.00  0.00     0.184 A 
HETATM   21  C19 UNL     1      24.241   3.690  50.006  1.00  0.00     0.074 A 
HETATM   22  C20 UNL     1      25.389   3.214  50.692  1.00  0.00     0.081 A 
HETATM   23  C21 UNL     1      26.043   2.462  51.485  1.00  0.00     0.080 C 
HETATM   24  O1  UNL     1      26.231   4.187  50.094  1.00  0.00    -0.294 OA
HETATM   25  H13 UNL     1      21.832   3.163  51.168  1.00  0.00     0.160 HD
ENDROOT
TORSDOF 0
ENDMDL
MODEL 3
REMARK VINA RESULT:      -9.5      3.007      7.144
REMARK  0 active torsions:
REMARK  status: ('A' for Active; 'I' for Inactive)
ROOT
HETATM    1  C1  UNL     1      26.124   3.127  50.686  1.00  0.00    -0.018 C 
HETATM    2  C2  UNL     1      26.758   2.134  51.271  1.00  0.00    -0.025 C 
HETATM    3  C3  UNL     1      26.924   0.932  52.067  1.00  0.00     0.065 C 
HETATM    4  C4  UNL     1      25.662   0.453  52.661  1.00  0.00    -0.054 A 
HETATM    5  C5  UNL     1      25.856  -0.281  53.842  1.00  0.00     0.008 A 
HETATM    6  C6  UNL     1      24.877  -0.845  54.631  1.00  0.00     0.013 A 
HETATM    7  C7  UNL     1      23.555  -0.706  54.270  1.00  0.00    -0.025 A 
HETATM    8  C8  UNL     1      22.537  -1.242  55.024  1.00  0.00     0.012 A 
HETATM    9  C9  UNL     1      21.243  -1.044  54.589  1.00  0.00     0.002 A 
HETATM   10  C10 UNL     1      21.033  -0.323  53.430  1.00  0.00     0.010 A 
HETATM   11  C11 UNL     1      22.022   0.230  52.644  1.00  0.00    -0.029 A 
HETATM   12  C12 UNL     1      23.295   0.002  53.123  1.00  0.00    -0.018 A 
HETATM   13  C13 UNL     1      24.328   0.523  52.406  1.00  0.00     0.020 A 
HETATM   14  C14 UNL     1      21.744   1.017  51.421  1.00  0.00     0.159 C 
HETATM   15  N1  UNL     1      21.579   2.439  51.731  1.00  0.00    -0.385 N 
HETATM   16  C15 UNL     1      21.387   3.642  50.994  1.00  0.00     0.046 A 
HETATM   17  C16 UNL     1      20.147   4.251  50.770  1.00  0.00     0.049 A 
HETATM   18  C17 UNL     1      20.071   5.423  50.006  1.00  0.00     0.122 A 
HETATM   19  N2  UNL     1      21.160   5.992  49.475  1.00  0.00    -0.236 NA
HETATM   20  C18 UNL     1      22.365   5.457  49.659  1.00  0.00     0.184 A 
HETATM   21  C19 UNL     1      22.401   4.314  50.407  1.00  0.00     0.074 A 
HETATM   22  C20 UNL     1      23.804   4.343  50.194  1.00  0.00     0.081 A 
HETATM   23  C21 UNL     1      25.006   3.936  50.297  1.00  0.00     0.080 C 
HETATM   24  O1  UNL     1      23.727   5.529  49.418  1.00  0.00    -0.294 OA
HETATM   25  H13 UNL     1      21.541   2.978  52.623  1.00  0.00     0.160 HD
ENDROOT
TORSDOF 0
ENDMDL
MODEL 4
REMARK VINA RESULT:      -9.2      1.987      3.453
REMARK  0 active torsions:
REMARK  status: ('A' for Active; 'I' for Inactive)
ROOT
HETATM    1  C1  UNL     1      21.794   3.825  51.753  1.00  0.00    -0.018 C 
HETATM    2  C2  UNL     1      21.570   4.904  51.037  1.00  0.00    -0.025 C 
HETATM    3  C3  UNL     1      21.867   6.000  50.133  1.00  0.00     0.065 C 
HETATM    4  C4  UNL     1      23.279   6.035  49.712  1.00  0.00    -0.054 A 
HETATM    5  C5  UNL     1      23.717   7.324  49.365  1.00  0.00     0.008 A 
HETATM    6  C6  UNL     1      24.981   7.680  48.947  1.00  0.00     0.013 A 
HETATM    7  C7  UNL     1      25.954   6.712  48.840  1.00  0.00    -0.025 A 
HETATM    8  C8  UNL     1      27.234   7.013  48.435  1.00  0.00     0.012 A 
HETATM    9  C9  UNL     1      28.145   5.979  48.366  1.00  0.00     0.002 A 
HETATM   10  C10 UNL     1      27.734   4.705  48.704  1.00  0.00     0.010 A 
HETATM   11  C11 UNL     1      26.463   4.359  49.114  1.00  0.00    -0.029 A 
HETATM   12  C12 UNL     1      25.593   5.428  49.164  1.00  0.00    -0.018 A 
HETATM   13  C13 UNL     1      24.319   5.170  49.567  1.00  0.00     0.020 A 
HETATM   14  C14 UNL     1      26.077   2.981  49.491  1.00  0.00     0.159 C 
HETATM   15  N1  UNL     1      26.304   2.737  50.917  1.00  0.00    -0.385 N 
HETATM   16  C15 UNL     1      26.059   1.678  51.837  1.00  0.00     0.046 A 
HETATM   17  C16 UNL     1      27.005   0.722  52.224  1.00  0.00     0.049 A 
HETATM   18  C17 UNL     1      26.646  -0.294  53.118  1.00  0.00     0.122 A 
HETATM   19  N2  UNL     1      25.411  -0.387  53.626  1.00  0.00    -0.236 NA
HETATM   20  C18 UNL     1      24.472   0.497  53.293  1.00  0.00     0.184 A 
HETATM   21  C19 UNL     1      24.857   1.473  52.418  1.00  0.00     0.074 A 
HETATM   22  C20 UNL     1      23.526   1.954  52.531  1.00  0.00     0.081 A 
HETATM   23  C21 UNL     1      22.545   2.731  52.298  1.00  0.00     0.080 C 
HETATM   24  O1  UNL     1      23.162   0.923  53.436  1.00  0.00    -0.294 OA
HETATM   25  H13 UNL     1      26.743   3.298  51.679  1.00  0.00     0.160 HD
ENDROOT
TORSDOF 0
ENDMDL
MODEL 5
REMARK VINA RESULT:      -9.2      1.638      4.337
REMARK  0 active torsions:
REMARK  status: ('A' for Active; 'I' for Inactive)
ROOT
HETATM    1  C1  UNL     1      25.897   3.537  49.819  1.00  0.00    -0.018 C 
HETATM    2  C2  UNL     1      24.862   3.808  49.057  1.00  0.00    -0.025 C 
HETATM    3  C3  UNL     1      23.485   3.766  48.598  1.00  0.00     0.065 C 
HETATM    4  C4  UNL     1      22.635   2.869  49.403  1.00  0.00    -0.054 A 
HETATM    5  C5  UNL     1      21.542   2.358  48.684  1.00  0.00     0.008 A 
HETATM    6  C6  UNL     1      20.581   1.488  49.154  1.00  0.00     0.013 A 
HETATM    7  C7  UNL     1      20.652   1.043  50.455  1.00  0.00    -0.025 A 
HETATM    8  C8  UNL     1      19.725   0.169  50.974  1.00  0.00     0.012 A 
HETATM    9  C9  UNL     1      19.882  -0.229  52.286  1.00  0.00     0.002 A 
HETATM   10  C10 UNL     1      20.951   0.262  53.008  1.00  0.00     0.010 A 
HETATM   11  C11 UNL     1      21.902   1.139  52.529  1.00  0.00    -0.029 A 
HETATM   12  C12 UNL     1      21.698   1.505  51.215  1.00  0.00    -0.018 A 
HETATM   13  C13 UNL     1      22.600   2.364  50.665  1.00  0.00     0.020 A 
HETATM   14  C14 UNL     1      23.047   1.618  53.336  1.00  0.00     0.159 C 
HETATM   15  N1  UNL     1      24.201   0.727  53.202  1.00  0.00    -0.385 N 
HETATM   16  C15 UNL     1      25.552   0.709  53.652  1.00  0.00     0.046 A 
HETATM   17  C16 UNL     1      26.010   0.013  54.775  1.00  0.00     0.049 A 
HETATM   18  C17 UNL     1      27.360   0.088  55.142  1.00  0.00     0.122 A 
HETATM   19  N2  UNL     1      28.243   0.813  54.445  1.00  0.00    -0.236 NA
HETATM   20  C18 UNL     1      27.862   1.494  53.366  1.00  0.00     0.184 A 
HETATM   21  C19 UNL     1      26.539   1.399  53.039  1.00  0.00     0.074 A 
HETATM   22  C20 UNL     1      26.853   2.257  51.953  1.00  0.00     0.081 A 
HETATM   23  C21 UNL     1      26.620   2.946  50.908  1.00  0.00     0.080 C 
HETATM   24  O1  UNL     1      28.220   2.335  52.326  1.00  0.00    -0.294 OA
HETATM   25  H13 UNL     1      24.346  -0.192  52.729  1.00  0.00     0.160 HD
ENDROOT
TORSDOF 0
ENDMDL
MODEL 6
REMARK VINA RESULT:      -9.1      3.347      6.665
REMARK  0 active torsions:
REMARK  status: ('A' for Active; 'I' for Inactive)
ROOT
HETATM    1  C1  UNL     1      19.480   0.375  52.312  1.00  0.00    -0.018 C 
HETATM    2  C2  UNL     1      20.057  -0.117  53.386  1.00  0.00    -0.025 C 
HETATM    3  C3  UNL     1      21.138  -0.449  54.296  1.00  0.00     0.065 C 
HETATM    4  C4  UNL     1      22.465  -0.063  53.782  1.00  0.00    -0.054 A 
HETATM    5  C5  UNL     1      23.505  -0.854  54.297  1.00  0.00     0.008 A 
HETATM    6  C6  UNL     1      24.846  -0.748  53.999  1.00  0.00     0.013 A 
HETATM    7  C7  UNL     1      25.266   0.217  53.111  1.00  0.00    -0.025 A 
HETATM    8  C8  UNL     1      26.591   0.363  52.771  1.00  0.00     0.012 A 
HETATM    9  C9  UNL     1      26.917   1.352  51.866  1.00  0.00     0.002 A 
HETATM   10  C10 UNL     1      25.908   2.139  51.348  1.00  0.00     0.010 A 
HETATM   11  C11 UNL     1      24.569   2.028  51.660  1.00  0.00    -0.029 A 
HETATM   12  C12 UNL     1      24.299   1.027  52.569  1.00  0.00    -0.018 A 
HETATM   13  C13 UNL     1      22.997   0.849  52.924  1.00  0.00     0.020 A 
HETATM   14  C14 UNL     1      23.520   2.881  51.057  1.00  0.00     0.159 C 
HETATM   15  N1  UNL     1      22.997   2.289  49.825  1.00  0.00    -0.385 N 
HETATM   16  C15 UNL     1      21.966   2.589  48.889  1.00  0.00     0.046 A 
HETATM   17  C16 UNL     1      22.160   3.257  47.675  1.00  0.00     0.049 A 
HETATM   18  C17 UNL     1      21.067   3.523  46.841  1.00  0.00     0.122 A 
HETATM   19  N2  UNL     1      19.822   3.156  47.167  1.00  0.00    -0.236 NA
HETATM   20  C18 UNL     1      19.580   2.516  48.310  1.00  0.00     0.184 A 
HETATM   21  C19 UNL     1      20.670   2.274  49.098  1.00  0.00     0.074 A 
HETATM   22  C20 UNL     1      19.756   1.656  49.991  1.00  0.00     0.081 A 
HETATM   23  C21 UNL     1      19.393   1.040  51.045  1.00  0.00     0.080 C 
HETATM   24  O1  UNL     1      18.647   1.928  49.147  1.00  0.00    -0.294 OA
HETATM   25  H13 UNL     1      23.264   1.451  49.263  1.00  0.00     0.160 HD
ENDROOT
TORSDOF 0
ENDMDL
MODEL 7
REMARK VINA RESULT:      -8.9      1.931      4.370
REMARK  0 active torsions:
REMARK  status: ('A' for Active; 'I' for Inactive)
ROOT
HETATM    1  C1  UNL     1      26.620   2.427  51.389  1.00  0.00    -0.018 C 
HETATM    2  C2  UNL     1      26.284   3.143  50.340  1.00  0.00    -0.025 C 
HETATM    3  C3  UNL     1      25.419   3.698  49.315  1.00  0.00     0.065 C 
HETATM    4  C4  UNL     1      24.037   3.189  49.387  1.00  0.00    -0.054 A 
HETATM    5  C5  UNL     1      23.377   3.215  48.147  1.00  0.00     0.008 A 
HETATM    6  C6  UNL     1      22.090   2.795  47.890  1.00  0.00     0.013 A 
HETATM    7  C7  UNL     1      21.327   2.288  48.919  1.00  0.00    -0.025 A 
HETATM    8  C8  UNL     1      20.040   1.847  48.717  1.00  0.00     0.012 A 
HETATM    9  C9  UNL     1      19.355   1.347  49.805  1.00  0.00     0.002 A 
HETATM   10  C10 UNL     1      19.987   1.312  51.032  1.00  0.00     0.010 A 
HETATM   11  C11 UNL     1      21.274   1.744  51.279  1.00  0.00    -0.029 A 
HETATM   12  C12 UNL     1      21.912   2.234  50.159  1.00  0.00    -0.018 A 
HETATM   13  C13 UNL     1      23.190   2.674  50.319  1.00  0.00     0.020 A 
HETATM   14  C14 UNL     1      21.919   1.661  52.609  1.00  0.00     0.159 C 
HETATM   15  N1  UNL     1      22.608   0.382  52.787  1.00  0.00    -0.385 N 
HETATM   16  C15 UNL     1      23.439  -0.216  53.777  1.00  0.00     0.046 A 
HETATM   17  C16 UNL     1      22.992  -1.102  54.764  1.00  0.00     0.049 A 
HETATM   18  C17 UNL     1      23.894  -1.611  55.707  1.00  0.00     0.122 A 
HETATM   19  N2  UNL     1      25.191  -1.277  55.698  1.00  0.00    -0.236 NA
HETATM   20  C18 UNL     1      25.670  -0.440  54.780  1.00  0.00     0.184 A 
HETATM   21  C19 UNL     1      24.761   0.038  53.878  1.00  0.00     0.074 A 
HETATM   22  C20 UNL     1      25.852   0.749  53.314  1.00  0.00     0.081 A 
HETATM   23  C21 UNL     1      26.434   1.530  52.494  1.00  0.00     0.080 C 
HETATM   24  O1  UNL     1      26.767   0.234  54.270  1.00  0.00    -0.294 OA
HETATM   25  H13 UNL     1      22.668  -0.486  52.212  1.00  0.00     0.160 HD
ENDROOT
TORSDOF 0
ENDMDL
MODEL 8
REMARK VINA RESULT:      -8.7      2.840      6.087
REMARK  0 active torsions:
REMARK  status: ('A' for Active; 'I' for Inactive)
ROOT
HETATM    1  C1  UNL     1      20.553   2.273  49.783  1.00  0.00    -0.018 C 
HETATM    2  C2  UNL     1      20.269   1.266  50.577  1.00  0.00    -0.025 C 
HETATM    3  C3  UNL     1      20.468   0.298  51.640  1.00  0.00     0.065 C 
HETATM    4  C4  UNL     1      21.795   0.402  52.276  1.00  0.00    -0.054 A 
HETATM    5  C5  UNL     1      22.232  -0.809  52.836  1.00  0.00     0.008 A 
HETATM    6  C6  UNL     1      23.427  -1.033  53.484  1.00  0.00     0.013 A 
HETATM    7  C7  UNL     1      24.324   0.003  53.625  1.00  0.00    -0.025 A 
HETATM    8  C8  UNL     1      25.534  -0.166  54.255  1.00  0.00     0.012 A 
HETATM    9  C9  UNL     1      26.372   0.927  54.341  1.00  0.00     0.002 A 
HETATM   10  C10 UNL     1      25.959   2.126  53.796  1.00  0.00     0.010 A 
HETATM   11  C11 UNL     1      24.756   2.341  53.156  1.00  0.00    -0.029 A 
HETATM   12  C12 UNL     1      23.958   1.217  53.099  1.00  0.00    -0.018 A 
HETATM   13  C13 UNL     1      22.754   1.345  52.477  1.00  0.00     0.020 A 
HETATM   14  C14 UNL     1      24.370   3.641  52.564  1.00  0.00     0.159 C 
HETATM   15  N1  UNL     1      24.811   3.742  51.171  1.00  0.00    -0.385 N 
HETATM   16  C15 UNL     1      24.667   4.676  50.106  1.00  0.00     0.046 A 
HETATM   17  C16 UNL     1      25.616   5.644  49.759  1.00  0.00     0.049 A 
HETATM   18  C17 UNL     1      25.358   6.531  48.706  1.00  0.00     0.122 A 
HETATM   19  N2  UNL     1      24.217   6.485  48.007  1.00  0.00    -0.236 NA
HETATM   20  C18 UNL     1      23.281   5.583  48.293  1.00  0.00     0.184 A 
HETATM   21  C19 UNL     1      23.566   4.736  49.326  1.00  0.00     0.074 A 
HETATM   22  C20 UNL     1      22.296   4.159  49.066  1.00  0.00     0.081 A 
HETATM   23  C21 UNL     1      21.328   3.348  49.234  1.00  0.00     0.080 C 
HETATM   24  O1  UNL     1      22.033   5.058  48.000  1.00  0.00    -0.294 OA
HETATM   25  H13 UNL     1      25.394   3.132  50.558  1.00  0.00     0.160 HD
ENDROOT
TORSDOF 0
ENDMDL
MODEL 9
REMARK VINA RESULT:      -8.6      3.152      5.992
REMARK  0 active torsions:
REMARK  status: ('A' for Active; 'I' for Inactive)
ROOT
HETATM    1  C1  UNL     1      20.599   4.995  50.190  1.00  0.00    -0.018 C 
HETATM    2  C2  UNL     1      19.749   4.285  50.898  1.00  0.00    -0.025 C 
HETATM    3  C3  UNL     1      19.296   3.234  51.791  1.00  0.00     0.065 C 
HETATM    4  C4  UNL     1      20.376   2.318  52.202  1.00  0.00    -0.054 A 
HETATM    5  C5  UNL     1      19.911   1.035  52.534  1.00  0.00     0.008 A 
HETATM    6  C6  UNL     1      20.674  -0.038  52.940  1.00  0.00     0.013 A 
HETATM    7  C7  UNL     1      22.039   0.107  53.048  1.00  0.00    -0.025 A 
HETATM    8  C8  UNL     1      22.850  -0.933  53.441  1.00  0.00     0.012 A 
HETATM    9  C9  UNL     1      24.208  -0.697  53.512  1.00  0.00     0.002 A 
HETATM   10  C10 UNL     1      24.683   0.557  53.187  1.00  0.00     0.010 A 
HETATM   11  C11 UNL     1      23.908   1.627  52.790  1.00  0.00    -0.029 A 
HETATM   12  C12 UNL     1      22.561   1.338  52.737  1.00  0.00    -0.018 A 
HETATM   13  C13 UNL     1      21.728   2.341  52.347  1.00  0.00     0.020 A 
HETATM   14  C14 UNL     1      24.469   2.948  52.428  1.00  0.00     0.159 C 
HETATM   15  N1  UNL     1      24.798   3.013  51.002  1.00  0.00    -0.385 N 
HETATM   16  C15 UNL     1      25.269   4.003  50.093  1.00  0.00     0.046 A 
HETATM   17  C16 UNL     1      26.604   4.160  49.707  1.00  0.00     0.049 A 
HETATM   18  C17 UNL     1      26.960   5.188  48.824  1.00  0.00     0.122 A 
HETATM   19  N2  UNL     1      26.054   6.039  48.327  1.00  0.00    -0.236 NA
HETATM   20  C18 UNL     1      24.769   5.933  48.659  1.00  0.00     0.184 A 
HETATM   21  C19 UNL     1      24.459   4.920  49.523  1.00  0.00     0.074 A 
HETATM   22  C20 UNL     1      23.120   5.379  49.415  1.00  0.00     0.081 A 
HETATM   23  C21 UNL     1      21.869   5.384  49.649  1.00  0.00     0.080 C 
HETATM   24  O1  UNL     1      23.481   6.422  48.522  1.00  0.00    -0.294 OA
HETATM   25  H13 UNL     1      24.789   2.309  50.232  1.00  0.00     0.160 HD
ENDROOT
TORSDOF 0
ENDMDL
