MODEL 1
REMARK VINA RESULT:      -7.2      0.000      0.000
REMARK  10 active torsions:
REMARK  status: ('A' for Active; 'I' for Inactive)
REMARK    1  A    between atoms: P1_2  and  C3_4 
REMARK    2  A    between atoms: C3_4  and  C4_5 
REMARK    3  A    between atoms: C4_5  and  C5_6 
REMARK    4  A    between atoms: C5_6  and  C6_7 
REMARK    5  A    between atoms: C6_7  and  C7_8 
REMARK    6  A    between atoms: C7_8  and  C8_9 
REMARK    7  A    between atoms: C9_11  and  N2_12 
REMARK    8  A    between atoms: C12_17  and  C13_18 
REMARK    9  A    between atoms: C13_18  and  C14_19 
REMARK   10  A    between atoms: C17_23  and  N6_24 
ROOT
HETATM    1  C8  UNL     1      26.137   2.152  51.924  1.00  0.00     0.067 C 
HETATM    2  N1  UNL     1      27.297   2.514  52.266  1.00  0.00    -0.221 NA
HETATM    3  C9  UNL     1      28.173   1.859  53.132  1.00  0.00     0.196 C 
HETATM    4  N3  UNL     1      28.770   1.061  53.942  1.00  0.00    -0.231 NA
HETATM    5  C10 UNL     1      28.283  -0.183  54.463  1.00  0.00     0.421 C 
HETATM    6  N4  UNL     1      27.054  -0.604  53.759  1.00  0.00     0.106 N 
HETATM    7  C11 UNL     1      26.076   0.411  53.883  1.00  0.00     0.308 C 
HETATM    8  C12 UNL     1      24.872   0.261  53.069  1.00  0.00    -0.022 C 
HETATM    9  C17 UNL     1      25.053   1.208  52.150  1.00  0.00     0.055 C 
HETATM   10  H15 UNL     1      27.326  -0.768  52.764  1.00  0.00     0.318 HD
ENDROOT
BRANCH   1  11
HETATM   11  C7  UNL     1      25.733   3.242  50.993  1.00  0.00     0.088 C 
BRANCH  11  12
HETATM   12  C6  UNL     1      26.681   3.275  49.851  1.00  0.00    -0.020 C 
BRANCH  12  13
HETATM   13  C5  UNL     1      26.775   4.402  49.134  1.00  0.00     0.004 C 
BRANCH  13  14
HETATM   14  C4  UNL     1      27.892   5.003  48.500  1.00  0.00     0.055 C 
BRANCH  14  15
HETATM   15  C3  UNL     1      28.125   6.303  48.390  1.00  0.00    -0.133 C 
BRANCH  15  16
HETATM   16  P1  UNL     1      28.584   7.859  48.426  1.00  0.00    -0.081 P 
HETATM   17  C1  UNL     1      30.200   7.983  48.417  1.00  0.00     0.101 C 
HETATM   18  C2  UNL     1      27.563   8.894  49.469  1.00  0.00     0.049 C 
ENDBRANCH  15  16
ENDBRANCH  14  15
ENDBRANCH  13  14
ENDBRANCH  12  13
ENDBRANCH  11  12
ENDBRANCH   1  11
BRANCH   9  19
HETATM   19  N6  UNL     1      23.885   1.042  51.397  1.00  0.00    -0.397 N 
HETATM   20  H22 UNL     1      22.983   1.526  51.649  1.00  0.00     0.156 HD
HETATM   21  H23 UNL     1      24.097   0.375  50.599  1.00  0.00     0.156 HD
ENDBRANCH   9  19
BRANCH   3  22
HETATM   22  N2  UNL     1      29.221   2.823  53.085  1.00  0.00    -0.271 NA
HETATM   23  H11 UNL     1      30.050   3.331  53.440  1.00  0.00     0.127 HD
HETATM   24  H12 UNL     1      29.954   3.001  53.817  1.00  0.00     0.127 HD
ENDBRANCH   3  22
BRANCH   8  25
HETATM   25  C13 UNL     1      23.839  -0.736  53.343  1.00  0.00     0.069 C 
BRANCH  25  26
HETATM   26  C14 UNL     1      22.857  -0.253  54.396  1.00  0.00     0.138 C 
HETATM   27  C15 UNL     1      21.594   0.280  53.860  1.00  0.00     0.034 C 
HETATM   28  C16 UNL     1      21.006  -0.268  54.899  1.00  0.00     0.078 C 
HETATM   29  N5  UNL     1      21.882  -1.202  54.838  1.00  0.00    -0.278 NA
ENDBRANCH  25  26
ENDBRANCH   8  25
TORSDOF 10
ENDMDL
MODEL 2
REMARK VINA RESULT:      -7.1      1.181      1.374
REMARK  10 active torsions:
REMARK  status: ('A' for Active; 'I' for Inactive)
REMARK    1  A    between atoms: P1_2  and  C3_4 
REMARK    2  A    between atoms: C3_4  and  C4_5 
REMARK    3  A    between atoms: C4_5  and  C5_6 
REMARK    4  A    between atoms: C5_6  and  C6_7 
REMARK    5  A    between atoms: C6_7  and  C7_8 
REMARK    6  A    between atoms: C7_8  and  C8_9 
REMARK    7  A    between atoms: C9_11  and  N2_12 
REMARK    8  A    between atoms: C12_17  and  C13_18 
REMARK    9  A    between atoms: C13_18  and  C14_19 
REMARK   10  A    between atoms: C17_23  and  N6_24 
ROOT
HETATM    1  C8  UNL     1      25.477   2.774  51.076  1.00  0.00     0.067 C 
HETATM    2  N1  UNL     1      26.623   2.847  51.602  1.00  0.00    -0.221 NA
HETATM    3  C9  UNL     1      27.162   2.020  52.587  1.00  0.00     0.196 C 
HETATM    4  N3  UNL     1      27.408   1.122  53.471  1.00  0.00    -0.231 NA
HETATM    5  C10 UNL     1      26.552   0.051  53.893  1.00  0.00     0.421 C 
HETATM    6  N4  UNL     1      25.383  -0.072  52.999  1.00  0.00     0.106 N 
HETATM    7  C11 UNL     1      24.681   1.156  52.979  1.00  0.00     0.308 C 
HETATM    8  C12 UNL     1      23.620   1.286  51.983  1.00  0.00    -0.022 C 
HETATM    9  C17 UNL     1      24.171   2.133  51.115  1.00  0.00     0.055 C 
HETATM   10  H15 UNL     1      25.758  -0.325  52.057  1.00  0.00     0.318 HD
ENDROOT
BRANCH   1  11
HETATM   11  C7  UNL     1      25.507   3.904  50.106  1.00  0.00     0.088 C 
BRANCH  11  12
HETATM   12  C6  UNL     1      26.803   3.882  49.381  1.00  0.00    -0.020 C 
BRANCH  12  13
HETATM   13  C5  UNL     1      27.201   4.996  48.755  1.00  0.00     0.004 C 
BRANCH  13  14
HETATM   14  C4  UNL     1      28.487   5.400  48.315  1.00  0.00     0.055 C 
BRANCH  14  15
HETATM   15  C3  UNL     1      28.948   6.641  48.277  1.00  0.00    -0.133 C 
BRANCH  15  16
HETATM   16  P1  UNL     1      29.561   8.131  48.469  1.00  0.00    -0.081 P 
HETATM   17  C1  UNL     1      31.163   8.068  48.709  1.00  0.00     0.101 C 
HETATM   18  C2  UNL     1      28.509   9.235  49.405  1.00  0.00     0.049 C 
ENDBRANCH  15  16
ENDBRANCH  14  15
ENDBRANCH  13  14
ENDBRANCH  12  13
ENDBRANCH  11  12
ENDBRANCH   1  11
BRANCH   9  19
HETATM   19  N6  UNL     1      23.131   2.240  50.186  1.00  0.00    -0.397 N 
HETATM   20  H22 UNL     1      22.140   2.452  50.475  1.00  0.00     0.156 HD
HETATM   21  H23 UNL     1      23.533   2.067  49.218  1.00  0.00     0.156 HD
ENDBRANCH   9  19
BRANCH   3  22
HETATM   22  N2  UNL     1      28.411   2.694  52.719  1.00  0.00    -0.271 NA
HETATM   23  H11 UNL     1      29.287   3.128  52.379  1.00  0.00     0.127 HD
HETATM   24  H12 UNL     1      29.066   2.973  51.946  1.00  0.00     0.127 HD
ENDBRANCH   3  22
BRANCH   8  25
HETATM   25  C13 UNL     1      22.341   0.583  52.078  1.00  0.00     0.069 C 
BRANCH  25  26
HETATM   26  C14 UNL     1      22.066   0.106  53.493  1.00  0.00     0.138 C 
HETATM   27  C15 UNL     1      20.730  -0.477  53.696  1.00  0.00     0.034 C 
HETATM   28  C16 UNL     1      21.305  -1.328  54.515  1.00  0.00     0.078 C 
HETATM   29  N5  UNL     1      22.342  -1.271  53.764  1.00  0.00    -0.278 NA
ENDBRANCH  25  26
ENDBRANCH   8  25
TORSDOF 10
ENDMDL
MODEL 3
REMARK VINA RESULT:      -6.9      2.197      5.100
REMARK  10 active torsions:
REMARK  status: ('A' for Active; 'I' for Inactive)
REMARK    1  A    between atoms: P1_2  and  C3_4 
REMARK    2  A    between atoms: C3_4  and  C4_5 
REMARK    3  A    between atoms: C4_5  and  C5_6 
REMARK    4  A    between atoms: C5_6  and  C6_7 
REMARK    5  A    between atoms: C6_7  and  C7_8 
REMARK    6  A    between atoms: C7_8  and  C8_9 
REMARK    7  A    between atoms: C9_11  and  N2_12 
REMARK    8  A    between atoms: C12_17  and  C13_18 
REMARK    9  A    between atoms: C13_18  and  C14_19 
REMARK   10  A    between atoms: C17_23  and  N6_24 
ROOT
HETATM    1  C8  UNL     1      23.107   1.337  52.782  1.00  0.00     0.067 C 
HETATM    2  N1  UNL     1      22.050   0.974  53.370  1.00  0.00    -0.221 NA
HETATM    3  C9  UNL     1      21.910  -0.034  54.324  1.00  0.00     0.196 C 
HETATM    4  N3  UNL     1      22.063  -0.988  55.169  1.00  0.00    -0.231 NA
HETATM    5  C10 UNL     1      23.283  -1.649  55.531  1.00  0.00     0.421 C 
HETATM    6  N4  UNL     1      24.453  -0.933  54.982  1.00  0.00     0.106 N 
HETATM    7  C11 UNL     1      24.326  -0.844  53.575  1.00  0.00     0.308 C 
HETATM    8  C12 UNL     1      25.283   0.018  52.886  1.00  0.00    -0.022 C 
HETATM    9  C17 UNL     1      24.514   1.050  52.544  1.00  0.00     0.055 C 
HETATM   10  H15 UNL     1      24.462   0.008  55.435  1.00  0.00     0.318 HD
ENDROOT
BRANCH   1  11
HETATM   11  C7  UNL     1      22.615   2.440  51.910  1.00  0.00     0.088 C 
BRANCH  11  12
HETATM   12  C6  UNL     1      22.121   1.863  50.635  1.00  0.00    -0.020 C 
BRANCH  12  13
HETATM   13  C5  UNL     1      22.700   2.253  49.493  1.00  0.00     0.004 C 
BRANCH  13  14
HETATM   14  C4  UNL     1      22.919   3.551  48.964  1.00  0.00     0.055 C 
BRANCH  14  15
HETATM   15  C3  UNL     1      24.050   4.238  49.018  1.00  0.00    -0.133 C 
BRANCH  15  16
HETATM   16  P1  UNL     1      25.358   5.155  49.304  1.00  0.00    -0.081 P 
HETATM   17  C1  UNL     1      26.698   4.244  49.360  1.00  0.00     0.101 C 
HETATM   18  C2  UNL     1      25.073   6.487  50.463  1.00  0.00     0.049 C 
ENDBRANCH  15  16
ENDBRANCH  14  15
ENDBRANCH  13  14
ENDBRANCH  12  13
ENDBRANCH  11  12
ENDBRANCH   1  11
BRANCH   9  19
HETATM   19  N6  UNL     1      25.455   1.846  51.883  1.00  0.00    -0.397 N 
HETATM   20  H22 UNL     1      26.328   1.442  51.454  1.00  0.00     0.156 HD
HETATM   21  H23 UNL     1      25.121   2.854  51.920  1.00  0.00     0.156 HD
ENDBRANCH   9  19
BRANCH   3  22
HETATM   22  N2  UNL     1      20.500   0.082  54.496  1.00  0.00    -0.271 NA
HETATM   23  H11 UNL     1      19.545  -0.260  54.700  1.00  0.00     0.127 HD
HETATM   24  H12 UNL     1      19.825  -0.683  54.749  1.00  0.00     0.127 HD
ENDBRANCH   3  22
BRANCH   8  25
HETATM   25  C13 UNL     1      26.693  -0.329  52.713  1.00  0.00     0.069 C 
BRANCH  25  26
HETATM   26  C14 UNL     1      27.514   0.030  53.939  1.00  0.00     0.138 C 
HETATM   27  C15 UNL     1      28.968   0.072  53.714  1.00  0.00     0.034 C 
HETATM   28  C16 UNL     1      28.994   1.088  54.547  1.00  0.00     0.078 C 
HETATM   29  N5  UNL     1      27.836   1.413  54.106  1.00  0.00    -0.278 NA
ENDBRANCH  25  26
ENDBRANCH   8  25
TORSDOF 10
ENDMDL
MODEL 4
REMARK VINA RESULT:      -6.9      3.200      7.434
REMARK  10 active torsions:
REMARK  status: ('A' for Active; 'I' for Inactive)
REMARK    1  A    between atoms: P1_2  and  C3_4 
REMARK    2  A    between atoms: C3_4  and  C4_5 
REMARK    3  A    between atoms: C4_5  and  C5_6 
REMARK    4  A    between atoms: C5_6  and  C6_7 
REMARK    5  A    between atoms: C6_7  and  C7_8 
REMARK    6  A    between atoms: C7_8  and  C8_9 
REMARK    7  A    between atoms: C9_11  and  N2_12 
REMARK    8  A    between atoms: C12_17  and  C13_18 
REMARK    9  A    between atoms: C13_18  and  C14_19 
REMARK   10  A    between atoms: C17_23  and  N6_24 
ROOT
HETATM    1  C8  UNL     1      24.658   0.920  52.780  1.00  0.00     0.067 C 
HETATM    2  N1  UNL     1      25.243   0.432  53.787  1.00  0.00    -0.221 NA
HETATM    3  C9  UNL     1      26.541   0.693  54.227  1.00  0.00     0.196 C 
HETATM    4  N3  UNL     1      27.739   1.114  54.410  1.00  0.00    -0.231 NA
HETATM    5  C10 UNL     1      28.457   2.080  53.630  1.00  0.00     0.421 C 
HETATM    6  N4  UNL     1      27.557   2.761  52.677  1.00  0.00     0.106 N 
HETATM    7  C11 UNL     1      26.944   1.795  51.844  1.00  0.00     0.308 C 
HETATM    8  C12 UNL     1      25.861   2.266  50.984  1.00  0.00    -0.022 C 
HETATM    9  C17 UNL     1      24.797   1.732  51.581  1.00  0.00     0.055 C 
HETATM   10  H15 UNL     1      26.858   3.282  53.253  1.00  0.00     0.318 HD
ENDROOT
BRANCH   1  11
HETATM   11  C7  UNL     1      23.320   0.271  52.853  1.00  0.00     0.088 C 
BRANCH  11  12
HETATM   12  C6  UNL     1      23.275  -0.606  54.051  1.00  0.00    -0.020 C 
BRANCH  12  13
HETATM   13  C5  UNL     1      22.097  -0.794  54.658  1.00  0.00     0.004 C 
BRANCH  13  14
HETATM   14  C4  UNL     1      20.865  -1.284  54.154  1.00  0.00     0.055 C 
BRANCH  14  15
HETATM   15  C3  UNL     1      20.018  -0.625  53.378  1.00  0.00    -0.133 C 
BRANCH  15  16
HETATM   16  P1  UNL     1      19.147   0.151  52.250  1.00  0.00    -0.081 P 
HETATM   17  C1  UNL     1      17.739  -0.610  51.986  1.00  0.00     0.101 C 
HETATM   18  C2  UNL     1      20.123   0.820  50.909  1.00  0.00     0.049 C 
ENDBRANCH  15  16
ENDBRANCH  14  15
ENDBRANCH  13  14
ENDBRANCH  12  13
ENDBRANCH  11  12
ENDBRANCH   1  11
BRANCH   9  19
HETATM   19  N6  UNL     1      23.785   2.194  50.731  1.00  0.00    -0.397 N 
HETATM   20  H22 UNL     1      23.996   2.705  49.835  1.00  0.00     0.156 HD
HETATM   21  H23 UNL     1      22.849   1.942  51.165  1.00  0.00     0.156 HD
ENDBRANCH   9  19
BRANCH   3  22
HETATM   22  N2  UNL     1      26.535  -0.204  55.334  1.00  0.00    -0.271 NA
HETATM   23  H11 UNL     1      26.873  -0.596  56.231  1.00  0.00     0.127 HD
HETATM   24  H12 UNL     1      27.199  -0.212  56.149  1.00  0.00     0.127 HD
ENDBRANCH   3  22
BRANCH   8  25
HETATM   25  C13 UNL     1      26.080   3.108  49.809  1.00  0.00     0.069 C 
BRANCH  25  26
HETATM   26  C14 UNL     1      25.871   4.578  50.123  1.00  0.00     0.138 C 
HETATM   27  C15 UNL     1      26.178   5.494  49.013  1.00  0.00     0.034 C 
HETATM   28  C16 UNL     1      25.162   6.218  49.425  1.00  0.00     0.078 C 
HETATM   29  N5  UNL     1      24.595   5.126  49.783  1.00  0.00    -0.278 NA
ENDBRANCH  25  26
ENDBRANCH   8  25
TORSDOF 10
ENDMDL
MODEL 5
REMARK VINA RESULT:      -6.8      4.922      8.078
REMARK  10 active torsions:
REMARK  status: ('A' for Active; 'I' for Inactive)
REMARK    1  A    between atoms: P1_2  and  C3_4 
REMARK    2  A    between atoms: C3_4  and  C4_5 
REMARK    3  A    between atoms: C4_5  and  C5_6 
REMARK    4  A    between atoms: C5_6  and  C6_7 
REMARK    5  A    between atoms: C6_7  and  C7_8 
REMARK    6  A    between atoms: C7_8  and  C8_9 
REMARK    7  A    between atoms: C9_11  and  N2_12 
REMARK    8  A    between atoms: C12_17  and  C13_18 
REMARK    9  A    between atoms: C13_18  and  C14_19 
REMARK   10  A    between atoms: C17_23  and  N6_24 
ROOT
HETATM    1  C8  UNL     1      22.894   0.789  52.807  1.00  0.00     0.067 C 
HETATM    2  N1  UNL     1      22.064   0.204  53.557  1.00  0.00    -0.221 NA
HETATM    3  C9  UNL     1      22.335  -0.680  54.601  1.00  0.00     0.196 C 
HETATM    4  N3  UNL     1      22.857  -1.439  55.495  1.00  0.00    -0.231 NA
HETATM    5  C10 UNL     1      24.251  -1.664  55.748  1.00  0.00     0.421 C 
HETATM    6  N4  UNL     1      25.084  -0.706  54.993  1.00  0.00     0.106 N 
HETATM    7  C11 UNL     1      24.796  -0.826  53.612  1.00  0.00     0.308 C 
HETATM    8  C12 UNL     1      25.369   0.192  52.734  1.00  0.00    -0.022 C 
HETATM    9  C17 UNL     1      24.290   0.903  52.412  1.00  0.00     0.055 C 
HETATM   10  H15 UNL     1      24.849   0.243  55.361  1.00  0.00     0.318 HD
ENDROOT
BRANCH   1  11
HETATM   11  C7  UNL     1      22.003   1.586  51.919  1.00  0.00     0.088 C 
BRANCH  11  12
HETATM   12  C6  UNL     1      21.563   0.734  50.787  1.00  0.00    -0.020 C 
BRANCH  12  13
HETATM   13  C5  UNL     1      20.253   0.504  50.634  1.00  0.00     0.004 C 
BRANCH  13  14
HETATM   14  C4  UNL     1      19.149   0.873  51.445  1.00  0.00     0.055 C 
BRANCH  14  15
HETATM   15  C3  UNL     1      18.149   0.087  51.811  1.00  0.00    -0.133 C 
BRANCH  15  16
HETATM   16  P1  UNL     1      17.082  -0.975  52.418  1.00  0.00    -0.081 P 
HETATM   17  C1  UNL     1      15.668  -0.251  52.741  1.00  0.00     0.101 C 
HETATM   18  C2  UNL     1      17.804  -2.175  53.532  1.00  0.00     0.049 C 
ENDBRANCH  15  16
ENDBRANCH  14  15
ENDBRANCH  13  14
ENDBRANCH  12  13
ENDBRANCH  11  12
ENDBRANCH   1  11
BRANCH   9  19
HETATM   19  N6  UNL     1      24.871   1.857  51.569  1.00  0.00    -0.397 N 
HETATM   20  H22 UNL     1      24.312   2.643  51.143  1.00  0.00     0.156 HD
HETATM   21  H23 UNL     1      25.901   1.621  51.462  1.00  0.00     0.156 HD
ENDBRANCH   9  19
BRANCH   3  22
HETATM   22  N2  UNL     1      20.982  -0.965  54.947  1.00  0.00    -0.271 NA
HETATM   23  H11 UNL     1      20.193  -1.564  55.248  1.00  0.00     0.127 HD
HETATM   24  H12 UNL     1      20.583  -1.892  55.243  1.00  0.00     0.127 HD
ENDBRANCH   3  22
BRANCH   8  25
HETATM   25  C13 UNL     1      26.792   0.258  52.408  1.00  0.00     0.069 C 
BRANCH  25  26
HETATM   26  C14 UNL     1      27.660  -0.109  53.598  1.00  0.00     0.138 C 
HETATM   27  C15 UNL     1      29.060   0.334  53.498  1.00  0.00     0.034 C 
HETATM   28  C16 UNL     1      29.004   0.562  54.791  1.00  0.00     0.078 C 
HETATM   29  N5  UNL     1      27.771   0.874  54.630  1.00  0.00    -0.278 NA
ENDBRANCH  25  26
ENDBRANCH   8  25
TORSDOF 10
ENDMDL
MODEL 6
REMARK VINA RESULT:      -6.8      3.894      6.352
REMARK  10 active torsions:
REMARK  status: ('A' for Active; 'I' for Inactive)
REMARK    1  A    between atoms: P1_2  and  C3_4 
REMARK    2  A    between atoms: C3_4  and  C4_5 
REMARK    3  A    between atoms: C4_5  and  C5_6 
REMARK    4  A    between atoms: C5_6  and  C6_7 
REMARK    5  A    between atoms: C6_7  and  C7_8 
REMARK    6  A    between atoms: C7_8  and  C8_9 
REMARK    7  A    between atoms: C9_11  and  N2_12 
REMARK    8  A    between atoms: C12_17  and  C13_18 
REMARK    9  A    between atoms: C13_18  and  C14_19 
REMARK   10  A    between atoms: C17_23  and  N6_24 
ROOT
HETATM    1  C8  UNL     1      22.759   0.782  52.672  1.00  0.00     0.067 C 
HETATM    2  N1  UNL     1      22.011   0.105  53.431  1.00  0.00    -0.221 NA
HETATM    3  C9  UNL     1      22.395  -0.731  54.480  1.00  0.00     0.196 C 
HETATM    4  N3  UNL     1      23.012  -1.413  55.375  1.00  0.00    -0.231 NA
HETATM    5  C10 UNL     1      24.424  -1.463  55.620  1.00  0.00     0.421 C 
HETATM    6  N4  UNL     1      25.129  -0.416  54.853  1.00  0.00     0.106 N 
HETATM    7  C11 UNL     1      24.849  -0.580  53.475  1.00  0.00     0.308 C 
HETATM    8  C12 UNL     1      25.288   0.493  52.586  1.00  0.00    -0.022 C 
HETATM    9  C17 UNL     1      24.128   1.064  52.267  1.00  0.00     0.055 C 
HETATM   10  H15 UNL     1      24.782   0.500  55.216  1.00  0.00     0.318 HD
ENDROOT
BRANCH   1  11
HETATM   11  C7  UNL     1      21.772   1.458  51.785  1.00  0.00     0.088 C 
BRANCH  11  12
HETATM   12  C6  UNL     1      21.195   0.456  50.854  1.00  0.00    -0.020 C 
BRANCH  12  13
HETATM   13  C5  UNL     1      21.259   0.698  49.539  1.00  0.00     0.004 C 
BRANCH  13  14
HETATM   14  C4  UNL     1      22.052   1.617  48.806  1.00  0.00     0.055 C 
BRANCH  14  15
HETATM   15  C3  UNL     1      21.605   2.562  47.992  1.00  0.00    -0.133 C 
BRANCH  15  16
HETATM   16  P1  UNL     1      20.861   3.577  46.967  1.00  0.00    -0.081 P 
HETATM   17  C1  UNL     1      19.254   3.360  47.008  1.00  0.00     0.101 C 
HETATM   18  C2  UNL     1      21.740   3.833  45.430  1.00  0.00     0.049 C 
ENDBRANCH  15  16
ENDBRANCH  14  15
ENDBRANCH  13  14
ENDBRANCH  12  13
ENDBRANCH  11  12
ENDBRANCH   1  11
BRANCH   9  19
HETATM   19  N6  UNL     1      24.582   2.076  51.414  1.00  0.00    -0.397 N 
HETATM   20  H22 UNL     1      25.341   2.750  51.698  1.00  0.00     0.156 HD
HETATM   21  H23 UNL     1      24.030   2.019  50.508  1.00  0.00     0.156 HD
ENDBRANCH   9  19
BRANCH   3  22
HETATM   22  N2  UNL     1      21.089  -1.177  54.836  1.00  0.00    -0.271 NA
HETATM   23  H11 UNL     1      20.224  -1.199  55.403  1.00  0.00     0.127 HD
HETATM   24  H12 UNL     1      20.501  -0.844  55.641  1.00  0.00     0.127 HD
ENDBRANCH   3  22
BRANCH   8  25
HETATM   25  C13 UNL     1      26.691   0.732  52.250  1.00  0.00     0.069 C 
BRANCH  25  26
HETATM   26  C14 UNL     1      27.375   1.609  53.283  1.00  0.00     0.138 C 
HETATM   27  C15 UNL     1      28.543   0.994  53.935  1.00  0.00     0.034 C 
HETATM   28  C16 UNL     1      29.089   2.188  53.920  1.00  0.00     0.078 C 
HETATM   29  N5  UNL     1      28.471   2.401  52.818  1.00  0.00    -0.278 NA
ENDBRANCH  25  26
ENDBRANCH   8  25
TORSDOF 10
ENDMDL
MODEL 7
REMARK VINA RESULT:      -6.7      1.764      4.589
REMARK  10 active torsions:
REMARK  status: ('A' for Active; 'I' for Inactive)
REMARK    1  A    between atoms: P1_2  and  C3_4 
REMARK    2  A    between atoms: C3_4  and  C4_5 
REMARK    3  A    between atoms: C4_5  and  C5_6 
REMARK    4  A    between atoms: C5_6  and  C6_7 
REMARK    5  A    between atoms: C6_7  and  C7_8 
REMARK    6  A    between atoms: C7_8  and  C8_9 
REMARK    7  A    between atoms: C9_11  and  N2_12 
REMARK    8  A    between atoms: C12_17  and  C13_18 
REMARK    9  A    between atoms: C13_18  and  C14_19 
REMARK   10  A    between atoms: C17_23  and  N6_24 
ROOT
HETATM    1  C8  UNL     1      24.177   2.383  51.915  1.00  0.00     0.067 C 
HETATM    2  N1  UNL     1      23.121   2.024  51.324  1.00  0.00    -0.221 NA
HETATM    3  C9  UNL     1      22.341   0.898  51.585  1.00  0.00     0.196 C 
HETATM    4  N3  UNL     1      21.813  -0.183  52.033  1.00  0.00    -0.231 NA
HETATM    5  C10 UNL     1      22.267  -0.990  53.129  1.00  0.00     0.421 C 
HETATM    6  N4  UNL     1      23.328  -0.298  53.889  1.00  0.00     0.106 N 
HETATM    7  C11 UNL     1      24.397   0.014  53.015  1.00  0.00     0.308 C 
HETATM    8  C12 UNL     1      25.440   0.889  53.546  1.00  0.00    -0.022 C 
HETATM    9  C17 UNL     1      25.198   2.021  52.887  1.00  0.00     0.055 C 
HETATM   10  H15 UNL     1      22.889   0.560  54.294  1.00  0.00     0.318 HD
ENDROOT
BRANCH   1  11
HETATM   11  C7  UNL     1      24.521   3.643  51.199  1.00  0.00     0.088 C 
BRANCH  11  12
HETATM   12  C6  UNL     1      25.090   3.301  49.870  1.00  0.00    -0.020 C 
BRANCH  12  13
HETATM   13  C5  UNL     1      26.409   3.444  49.687  1.00  0.00     0.004 C 
BRANCH  13  14
HETATM   14  C4  UNL     1      27.141   4.427  48.974  1.00  0.00     0.055 C 
BRANCH  14  15
HETATM   15  C3  UNL     1      26.768   5.680  48.758  1.00  0.00    -0.133 C 
BRANCH  15  16
HETATM   16  P1  UNL     1      26.165   7.185  48.690  1.00  0.00    -0.081 P 
HETATM   17  C1  UNL     1      26.173   7.876  50.157  1.00  0.00     0.101 C 
HETATM   18  C2  UNL     1      24.781   7.365  47.570  1.00  0.00     0.049 C 
ENDBRANCH  15  16
ENDBRANCH  14  15
ENDBRANCH  13  14
ENDBRANCH  12  13
ENDBRANCH  11  12
ENDBRANCH   1  11
BRANCH   9  19
HETATM   19  N6  UNL     1      26.214   2.829  53.410  1.00  0.00    -0.397 N 
HETATM   20  H22 UNL     1      27.182   2.851  52.994  1.00  0.00     0.156 HD
HETATM   21  H23 UNL     1      25.822   3.353  54.247  1.00  0.00     0.156 HD
ENDBRANCH   9  19
BRANCH   3  22
HETATM   22  N2  UNL     1      21.385   1.102  50.547  1.00  0.00    -0.271 NA
HETATM   23  H11 UNL     1      21.024   1.060  49.578  1.00  0.00     0.127 HD
HETATM   24  H12 UNL     1      21.486   0.849  49.532  1.00  0.00     0.127 HD
ENDBRANCH   3  22
BRANCH   8  25
HETATM   25  C13 UNL     1      26.414   0.458  54.548  1.00  0.00     0.069 C 
BRANCH  25  26
HETATM   26  C14 UNL     1      27.570  -0.298  53.919  1.00  0.00     0.138 C 
HETATM   27  C15 UNL     1      28.643   0.555  53.382  1.00  0.00     0.034 C 
HETATM   28  C16 UNL     1      29.483  -0.365  53.798  1.00  0.00     0.078 C 
HETATM   29  N5  UNL     1      28.681  -0.585  54.773  1.00  0.00    -0.278 NA
ENDBRANCH  25  26
ENDBRANCH   8  25
TORSDOF 10
ENDMDL
MODEL 8
REMARK VINA RESULT:      -6.4      3.479      7.039
REMARK  10 active torsions:
REMARK  status: ('A' for Active; 'I' for Inactive)
REMARK    1  A    between atoms: P1_2  and  C3_4 
REMARK    2  A    between atoms: C3_4  and  C4_5 
REMARK    3  A    between atoms: C4_5  and  C5_6 
REMARK    4  A    between atoms: C5_6  and  C6_7 
REMARK    5  A    between atoms: C6_7  and  C7_8 
REMARK    6  A    between atoms: C7_8  and  C8_9 
REMARK    7  A    between atoms: C9_11  and  N2_12 
REMARK    8  A    between atoms: C12_17  and  C13_18 
REMARK    9  A    between atoms: C13_18  and  C14_19 
REMARK   10  A    between atoms: C17_23  and  N6_24 
ROOT
HETATM    1  C8  UNL     1      23.782   0.964  52.514  1.00  0.00     0.067 C 
HETATM    2  N1  UNL     1      23.350   1.734  51.611  1.00  0.00    -0.221 NA
HETATM    3  C9  UNL     1      24.094   2.575  50.783  1.00  0.00     0.196 C 
HETATM    4  N3  UNL     1      25.001   3.236  50.160  1.00  0.00    -0.231 NA
HETATM    5  C10 UNL     1      26.420   3.171  50.353  1.00  0.00     0.421 C 
HETATM    6  N4  UNL     1      26.781   2.035  51.226  1.00  0.00     0.106 N 
HETATM    7  C11 UNL     1      26.109   2.168  52.464  1.00  0.00     0.308 C 
HETATM    8  C12 UNL     1      26.179   1.025  53.371  1.00  0.00    -0.022 C 
HETATM    9  C17 UNL     1      24.939   0.546  53.291  1.00  0.00     0.055 C 
HETATM   10  H15 UNL     1      26.496   1.169  50.716  1.00  0.00     0.318 HD
ENDROOT
BRANCH   1  11
HETATM   11  C7  UNL     1      22.526   0.342  53.018  1.00  0.00     0.088 C 
BRANCH  11  12
HETATM   12  C6  UNL     1      21.560   0.228  51.896  1.00  0.00    -0.020 C 
BRANCH  12  13
HETATM   13  C5  UNL     1      20.320  -0.197  52.164  1.00  0.00     0.004 C 
BRANCH  13  14
HETATM   14  C4  UNL     1      19.060   0.386  51.875  1.00  0.00     0.055 C 
BRANCH  14  15
HETATM   15  C3  UNL     1      18.819   1.674  51.679  1.00  0.00    -0.133 C 
BRANCH  15  16
HETATM   16  P1  UNL     1      18.522   3.195  51.199  1.00  0.00    -0.081 P 
HETATM   17  C1  UNL     1      19.845   4.119  51.361  1.00  0.00     0.101 C 
HETATM   18  C2  UNL     1      16.895   3.793  51.640  1.00  0.00     0.049 C 
ENDBRANCH  15  16
ENDBRANCH  14  15
ENDBRANCH  13  14
ENDBRANCH  12  13
ENDBRANCH  11  12
ENDBRANCH   1  11
BRANCH   9  19
HETATM   19  N6  UNL     1      25.038  -0.536  54.173  1.00  0.00    -0.397 N 
HETATM   20  H22 UNL     1      24.501  -0.572  55.078  1.00  0.00     0.156 HD
HETATM   21  H23 UNL     1      25.722  -1.237  53.761  1.00  0.00     0.156 HD
ENDBRANCH   9  19
BRANCH   3  22
HETATM   22  N2  UNL     1      22.994   3.149  50.082  1.00  0.00    -0.271 NA
HETATM   23  H11 UNL     1      22.503   3.544  49.260  1.00  0.00     0.127 HD
HETATM   24  H12 UNL     1      22.963   3.434  49.071  1.00  0.00     0.127 HD
ENDBRANCH   3  22
BRANCH   8  25
HETATM   25  C13 UNL     1      27.392   0.650  54.096  1.00  0.00     0.069 C 
BRANCH  25  26
HETATM   26  C14 UNL     1      28.285  -0.256  53.267  1.00  0.00     0.138 C 
HETATM   27  C15 UNL     1      29.526  -0.676  53.937  1.00  0.00     0.034 C 
HETATM   28  C16 UNL     1      29.370  -1.836  53.340  1.00  0.00     0.078 C 
HETATM   29  N5  UNL     1      28.105  -1.663  53.447  1.00  0.00    -0.278 NA
ENDBRANCH  25  26
ENDBRANCH   8  25
TORSDOF 10
ENDMDL
MODEL 9
REMARK VINA RESULT:      -6.4      3.178      6.392
REMARK  10 active torsions:
REMARK  status: ('A' for Active; 'I' for Inactive)
REMARK    1  A    between atoms: P1_2  and  C3_4 
REMARK    2  A    between atoms: C3_4  and  C4_5 
REMARK    3  A    between atoms: C4_5  and  C5_6 
REMARK    4  A    between atoms: C5_6  and  C6_7 
REMARK    5  A    between atoms: C6_7  and  C7_8 
REMARK    6  A    between atoms: C7_8  and  C8_9 
REMARK    7  A    between atoms: C9_11  and  N2_12 
REMARK    8  A    between atoms: C12_17  and  C13_18 
REMARK    9  A    between atoms: C13_18  and  C14_19 
REMARK   10  A    between atoms: C17_23  and  N6_24 
ROOT
HETATM    1  C8  UNL     1      23.737   1.321  52.962  1.00  0.00     0.067 C 
HETATM    2  N1  UNL     1      24.392   0.368  53.468  1.00  0.00    -0.221 NA
HETATM    3  C9  UNL     1      25.779   0.224  53.526  1.00  0.00     0.196 C 
HETATM    4  N3  UNL     1      27.054   0.346  53.451  1.00  0.00    -0.231 NA
HETATM    5  C10 UNL     1      27.798   1.439  52.894  1.00  0.00     0.421 C 
HETATM    6  N4  UNL     1      26.912   2.587  52.608  1.00  0.00     0.106 N 
HETATM    7  C11 UNL     1      25.886   2.173  51.725  1.00  0.00     0.308 C 
HETATM    8  C12 UNL     1      24.795   3.120  51.502  1.00  0.00    -0.022 C 
HETATM    9  C17 UNL     1      23.800   2.541  52.171  1.00  0.00     0.055 C 
HETATM   10  H15 UNL     1      26.533   2.904  53.528  1.00  0.00     0.318 HD
ENDROOT
BRANCH   1  11
HETATM   11  C7  UNL     1      22.331   0.904  53.221  1.00  0.00     0.088 C 
BRANCH  11  12
HETATM   12  C6  UNL     1      21.914  -0.061  52.174  1.00  0.00    -0.020 C 
BRANCH  12  13
HETATM   13  C5  UNL     1      21.076   0.359  51.218  1.00  0.00     0.004 C 
BRANCH  13  14
HETATM   14  C4  UNL     1      21.299   0.621  49.843  1.00  0.00     0.055 C 
BRANCH  14  15
HETATM   15  C3  UNL     1      20.985   1.734  49.196  1.00  0.00    -0.133 C 
BRANCH  15  16
HETATM   16  P1  UNL     1      20.842   3.138  48.395  1.00  0.00    -0.081 P 
HETATM   17  C1  UNL     1      19.608   3.078  47.344  1.00  0.00     0.101 C 
HETATM   18  C2  UNL     1      22.405   3.896  47.971  1.00  0.00     0.049 C 
ENDBRANCH  15  16
ENDBRANCH  14  15
ENDBRANCH  13  14
ENDBRANCH  12  13
ENDBRANCH  11  12
ENDBRANCH   1  11
BRANCH   9  19
HETATM   19  N6  UNL     1      22.776   3.465  51.931  1.00  0.00    -0.397 N 
HETATM   20  H22 UNL     1      21.763   3.179  51.888  1.00  0.00     0.156 HD
HETATM   21  H23 UNL     1      23.217   4.422  51.803  1.00  0.00     0.156 HD
ENDBRANCH   9  19
BRANCH   3  22
HETATM   22  N2  UNL     1      25.796  -1.052  54.162  1.00  0.00    -0.271 NA
HETATM   23  H11 UNL     1      26.219  -1.834  54.692  1.00  0.00     0.127 HD
HETATM   24  H12 UNL     1      26.605  -1.502  54.660  1.00  0.00     0.127 HD
ENDBRANCH   3  22
BRANCH   8  25
HETATM   25  C13 UNL     1      24.946   4.345  50.718  1.00  0.00     0.069 C 
BRANCH  25  26
HETATM   26  C14 UNL     1      25.859   4.138  49.522  1.00  0.00     0.138 C 
HETATM   27  C15 UNL     1      26.340   5.379  48.895  1.00  0.00     0.034 C 
HETATM   28  C16 UNL     1      27.477   4.751  48.695  1.00  0.00     0.078 C 
HETATM   29  N5  UNL     1      27.263   4.122  49.791  1.00  0.00    -0.278 NA
ENDBRANCH  25  26
ENDBRANCH   8  25
TORSDOF 10
ENDMDL
