MODEL 1
REMARK VINA RESULT:      -8.4      0.000      0.000
REMARK  4 active torsions:
REMARK  status: ('A' for Active; 'I' for Inactive)
REMARK    1  A    between atoms: C2_2  and  N1_3 
REMARK    2  A    between atoms: C9_11  and  N3_12 
REMARK    3  A    between atoms: C14_18  and  N4_19 
REMARK    4  A    between atoms: C15_20  and  O1_21 
ROOT
HETATM    1  N1  UNL     1      28.106   1.238  53.313  1.00  0.00    -0.329 N 
HETATM    2  C3  UNL     1      28.429  -0.150  53.248  1.00  0.00     0.052 A 
HETATM    3  C4  UNL     1      27.530  -1.098  52.943  1.00  0.00     0.025 A 
HETATM    4  C5  UNL     1      26.131  -0.743  52.642  1.00  0.00     0.025 A 
HETATM    5  C6  UNL     1      25.839   0.547  52.671  1.00  0.00    -0.007 A 
HETATM    6  C7  UNL     1      26.810   1.666  52.957  1.00  0.00     0.244 A 
HETATM    7  N2  UNL     1      26.156   2.385  53.996  1.00  0.00    -0.273 NA
HETATM    8  C8  UNL     1      24.861   2.236  53.815  1.00  0.00     0.116 C 
HETATM    9  C9  UNL     1      24.601   1.354  52.569  1.00  0.00     0.159 C 
HETATM   10  C15 UNL     1      28.545  -2.138  53.081  1.00  0.00     0.080 A 
HETATM   11  C16 UNL     1      29.436  -1.191  53.383  1.00  0.00     0.068 A 
ENDROOT
BRANCH   9  12
HETATM   12  N3  UNL     1      24.452   2.151  51.422  1.00  0.00    -0.343 N 
HETATM   13  C10 UNL     1      25.331   3.071  50.790  1.00  0.00     0.113 A 
HETATM   14  C11 UNL     1      25.178   3.670  49.624  1.00  0.00     0.049 A 
HETATM   15 CL1  UNL     1      26.382   4.777  49.002  1.00  0.00    -0.083 Cl
HETATM   16  C12 UNL     1      23.957   3.456  48.863  1.00  0.00     0.025 A 
HETATM   17  C13 UNL     1      23.101   2.652  49.467  1.00  0.00     0.031 A 
HETATM   18  C14 UNL     1      23.157   1.940  50.762  1.00  0.00     0.343 A 
BRANCH  18  19
HETATM   19  N4  UNL     1      22.063   2.298  51.636  1.00  0.00     0.105 N 
HETATM   20  H12 UNL     1      22.023   1.519  52.352  1.00  0.00     0.315 HD
HETATM   21  H13 UNL     1      21.176   2.442  51.148  1.00  0.00     0.315 HD
ENDBRANCH  18  19
ENDBRANCH   9  12
BRANCH   1  22
HETATM   22  C2  UNL     1      29.009   2.243  53.717  1.00  0.00     0.083 C 
HETATM   23  C1  UNL     1      29.644   2.018  54.852  1.00  0.00     0.030 C 
ENDBRANCH   1  22
BRANCH  10  24
HETATM   24  O1  UNL     1      28.567  -3.523  52.951  1.00  0.00    -0.360 OA
HETATM   25  H14 UNL     1      29.147  -4.133  53.546  1.00  0.00     0.217 HD
ENDBRANCH  10  24
TORSDOF 4
ENDMDL
MODEL 2
REMARK VINA RESULT:      -7.4      3.722      6.912
REMARK  4 active torsions:
REMARK  status: ('A' for Active; 'I' for Inactive)
REMARK    1  A    between atoms: C2_2  and  N1_3 
REMARK    2  A    between atoms: C9_11  and  N3_12 
REMARK    3  A    between atoms: C14_18  and  N4_19 
REMARK    4  A    between atoms: C15_20  and  O1_21 
ROOT
HETATM    1  N1  UNL     1      22.281   2.599  50.081  1.00  0.00    -0.329 N 
HETATM    2  C3  UNL     1      22.051   3.996  50.248  1.00  0.00     0.052 A 
HETATM    3  C4  UNL     1      22.326   4.653  51.385  1.00  0.00     0.025 A 
HETATM    4  C5  UNL     1      22.905   3.948  52.543  1.00  0.00     0.025 A 
HETATM    5  C6  UNL     1      23.149   2.659  52.378  1.00  0.00    -0.007 A 
HETATM    6  C7  UNL     1      22.909   1.871  51.113  1.00  0.00     0.244 A 
HETATM    7  N2  UNL     1      22.130   0.774  51.576  1.00  0.00    -0.273 NA
HETATM    8  C8  UNL     1      22.489   0.541  52.820  1.00  0.00     0.116 C 
HETATM    9  C9  UNL     1      23.587   1.544  53.249  1.00  0.00     0.159 C 
HETATM   10  C15 UNL     1      21.849   5.905  50.805  1.00  0.00     0.080 A 
HETATM   11  C16 UNL     1      21.576   5.246  49.676  1.00  0.00     0.068 A 
ENDROOT
BRANCH   9  12
HETATM   12  N3  UNL     1      24.864   1.010  53.008  1.00  0.00    -0.343 N 
HETATM   13  C10 UNL     1      25.311  -0.326  52.829  1.00  0.00     0.113 A 
HETATM   14  C11 UNL     1      26.507  -0.738  52.453  1.00  0.00     0.049 A 
HETATM   15 CL1  UNL     1      26.874  -2.440  52.279  1.00  0.00    -0.083 Cl
HETATM   16  C12 UNL     1      27.566   0.236  52.235  1.00  0.00     0.025 A 
HETATM   17  C13 UNL     1      27.183   1.480  52.458  1.00  0.00     0.031 A 
HETATM   18  C14 UNL     1      25.889   2.055  52.888  1.00  0.00     0.343 A 
BRANCH  18  19
HETATM   19  N4  UNL     1      26.003   2.816  54.112  1.00  0.00     0.105 N 
HETATM   20  H12 UNL     1      26.993   3.190  54.107  1.00  0.00     0.315 HD
HETATM   21  H13 UNL     1      25.779   2.279  54.953  1.00  0.00     0.315 HD
ENDBRANCH  18  19
ENDBRANCH   9  12
BRANCH   1  22
HETATM   22  C2  UNL     1      21.918   1.868  48.931  1.00  0.00     0.083 C 
HETATM   23  C1  UNL     1      22.577   2.172  47.829  1.00  0.00     0.030 C 
ENDBRANCH   1  22
BRANCH  10  24
HETATM   24  O1  UNL     1      21.730   7.219  51.247  1.00  0.00    -0.360 OA
HETATM   25  H14 UNL     1      22.355   7.630  51.957  1.00  0.00     0.217 HD
ENDBRANCH  10  24
TORSDOF 4
ENDMDL
MODEL 3
REMARK VINA RESULT:      -7.3      3.802      5.486
REMARK  4 active torsions:
REMARK  status: ('A' for Active; 'I' for Inactive)
REMARK    1  A    between atoms: C2_2  and  N1_3 
REMARK    2  A    between atoms: C9_11  and  N3_12 
REMARK    3  A    between atoms: C14_18  and  N4_19 
REMARK    4  A    between atoms: C15_20  and  O1_21 
ROOT
HETATM    1  N1  UNL     1      21.146   0.074  53.306  1.00  0.00    -0.329 N 
HETATM    2  C3  UNL     1      22.138  -0.517  54.144  1.00  0.00     0.052 A 
HETATM    3  C4  UNL     1      23.455  -0.367  53.936  1.00  0.00     0.025 A 
HETATM    4  C5  UNL     1      23.955   0.444  52.812  1.00  0.00     0.025 A 
HETATM    5  C6  UNL     1      23.035   1.018  52.054  1.00  0.00    -0.007 A 
HETATM    6  C7  UNL     1      21.543   0.932  52.259  1.00  0.00     0.244 A 
HETATM    7  N2  UNL     1      21.080   0.506  50.984  1.00  0.00    -0.273 NA
HETATM    8  C8  UNL     1      21.918   0.982  50.087  1.00  0.00     0.116 C 
HETATM    9  C9  UNL     1      23.036   1.790  50.789  1.00  0.00     0.159 C 
HETATM   10  C15 UNL     1      23.756  -1.197  55.099  1.00  0.00     0.080 A 
HETATM   11  C16 UNL     1      22.444  -1.343  55.301  1.00  0.00     0.068 A 
ENDROOT
BRANCH   9  12
HETATM   12  N3  UNL     1      22.688   3.148  50.871  1.00  0.00    -0.343 N 
HETATM   13  C10 UNL     1      21.619   3.886  50.294  1.00  0.00     0.113 A 
HETATM   14  C11 UNL     1      21.268   5.133  50.541  1.00  0.00     0.049 A 
HETATM   15 CL1  UNL     1      19.907   5.877  49.730  1.00  0.00    -0.083 Cl
HETATM   16  C12 UNL     1      22.063   5.933  51.461  1.00  0.00     0.025 A 
HETATM   17  C13 UNL     1      23.098   5.281  51.958  1.00  0.00     0.031 A 
HETATM   18  C14 UNL     1      23.591   3.902  51.749  1.00  0.00     0.343 A 
BRANCH  18  19
HETATM   19  N4  UNL     1      24.948   3.871  51.251  1.00  0.00     0.105 N 
HETATM   20  H12 UNL     1      24.899   4.341  50.304  1.00  0.00     0.315 HD
HETATM   21  H13 UNL     1      25.352   2.932  51.215  1.00  0.00     0.315 HD
ENDBRANCH  18  19
ENDBRANCH   9  12
BRANCH   1  22
HETATM   22  C2  UNL     1      19.759  -0.141  53.448  1.00  0.00     0.083 C 
HETATM   23  C1  UNL     1      19.375  -1.404  53.458  1.00  0.00     0.030 C 
ENDBRANCH   1  22
BRANCH  10  24
HETATM   24  O1  UNL     1      24.918  -1.642  55.723  1.00  0.00    -0.360 OA
HETATM   25  H14 UNL     1      25.667  -2.144  55.222  1.00  0.00     0.217 HD
ENDBRANCH  10  24
TORSDOF 4
ENDMDL
MODEL 4
REMARK VINA RESULT:      -7.2      2.807      3.780
REMARK  4 active torsions:
REMARK  status: ('A' for Active; 'I' for Inactive)
REMARK    1  A    between atoms: C2_2  and  N1_3 
REMARK    2  A    between atoms: C9_11  and  N3_12 
REMARK    3  A    between atoms: C14_18  and  N4_19 
REMARK    4  A    between atoms: C15_20  and  O1_21 
ROOT
HETATM    1  N1  UNL     1      24.845   1.277  52.975  1.00  0.00    -0.329 N 
HETATM    2  C3  UNL     1      24.438   0.205  53.823  1.00  0.00     0.052 A 
HETATM    3  C4  UNL     1      23.152  -0.090  54.064  1.00  0.00     0.025 A 
HETATM    4  C5  UNL     1      22.068   0.691  53.441  1.00  0.00     0.025 A 
HETATM    5  C6  UNL     1      22.445   1.665  52.629  1.00  0.00    -0.007 A 
HETATM    6  C7  UNL     1      23.869   2.018  52.276  1.00  0.00     0.244 A 
HETATM    7  N2  UNL     1      23.920   3.412  52.557  1.00  0.00    -0.273 NA
HETATM    8  C8  UNL     1      22.713   3.894  52.352  1.00  0.00     0.116 C 
HETATM    9  C9  UNL     1      21.763   2.760  51.900  1.00  0.00     0.159 C 
HETATM   10  C15 UNL     1      23.544  -1.191  54.938  1.00  0.00     0.080 A 
HETATM   11  C16 UNL     1      24.823  -0.894  54.694  1.00  0.00     0.068 A 
ENDROOT
BRANCH   9  12
HETATM   12  N3  UNL     1      21.732   2.669  50.498  1.00  0.00    -0.343 N 
HETATM   13  C10 UNL     1      22.016   3.622  49.484  1.00  0.00     0.113 A 
HETATM   14  C11 UNL     1      22.114   3.419  48.184  1.00  0.00     0.049 A 
HETATM   15 CL1  UNL     1      22.481   4.726  47.080  1.00  0.00    -0.083 Cl
HETATM   16  C12 UNL     1      21.852   2.093  47.643  1.00  0.00     0.025 A 
HETATM   17  C13 UNL     1      21.524   1.210  48.568  1.00  0.00     0.031 A 
HETATM   18  C14 UNL     1      21.374   1.322  50.035  1.00  0.00     0.343 A 
BRANCH  18  19
HETATM   19  N4  UNL     1      20.051   0.952  50.485  1.00  0.00     0.105 N 
HETATM   20  H12 UNL     1      19.426   1.744  50.166  1.00  0.00     0.315 HD
HETATM   21  H13 UNL     1      19.993   0.772  51.489  1.00  0.00     0.315 HD
ENDBRANCH  18  19
ENDBRANCH   9  12
BRANCH   1  22
HETATM   22  C2  UNL     1      26.187   1.664  52.775  1.00  0.00     0.083 C 
HETATM   23  C1  UNL     1      26.925   0.826  52.072  1.00  0.00     0.030 C 
ENDBRANCH   1  22
BRANCH  10  24
HETATM   24  O1  UNL     1      22.868  -2.141  55.698  1.00  0.00    -0.360 OA
HETATM   25  H14 UNL     1      23.182  -3.120  55.780  1.00  0.00     0.217 HD
ENDBRANCH  10  24
TORSDOF 4
ENDMDL
MODEL 5
REMARK VINA RESULT:      -7.2      2.489      3.532
REMARK  4 active torsions:
REMARK  status: ('A' for Active; 'I' for Inactive)
REMARK    1  A    between atoms: C2_2  and  N1_3 
REMARK    2  A    between atoms: C9_11  and  N3_12 
REMARK    3  A    between atoms: C14_18  and  N4_19 
REMARK    4  A    between atoms: C15_20  and  O1_21 
ROOT
HETATM    1  N1  UNL     1      25.761   2.337  51.377  1.00  0.00    -0.329 N 
HETATM    2  C3  UNL     1      26.190   1.130  52.003  1.00  0.00     0.052 A 
HETATM    3  C4  UNL     1      25.359   0.319  52.675  1.00  0.00     0.025 A 
HETATM    4  C5  UNL     1      23.925   0.637  52.794  1.00  0.00     0.025 A 
HETATM    5  C6  UNL     1      23.521   1.740  52.186  1.00  0.00    -0.007 A 
HETATM    6  C7  UNL     1      24.390   2.669  51.374  1.00  0.00     0.244 A 
HETATM    7  N2  UNL     1      24.121   3.936  51.963  1.00  0.00    -0.273 NA
HETATM    8  C8  UNL     1      22.887   3.899  52.417  1.00  0.00     0.116 C 
HETATM    9  C9  UNL     1      22.260   2.514  52.126  1.00  0.00     0.159 C 
HETATM   10  C15 UNL     1      26.459  -0.592  52.981  1.00  0.00     0.080 A 
HETATM   11  C16 UNL     1      27.281   0.219  52.311  1.00  0.00     0.068 A 
ENDROOT
BRANCH   9  12
HETATM   12  N3  UNL     1      21.578   2.529  50.897  1.00  0.00    -0.343 N 
HETATM   13  C10 UNL     1      21.106   3.600  50.092  1.00  0.00     0.113 A 
HETATM   14  C11 UNL     1      20.609   3.539  48.871  1.00  0.00     0.049 A 
HETATM   15 CL1  UNL     1      20.079   4.978  48.028  1.00  0.00    -0.083 Cl
HETATM   16  C12 UNL     1      20.438   2.244  48.230  1.00  0.00     0.025 A 
HETATM   17  C13 UNL     1      20.814   1.233  48.991  1.00  0.00     0.031 A 
HETATM   18  C14 UNL     1      21.369   1.178  50.361  1.00  0.00     0.343 A 
BRANCH  18  19
HETATM   19  N4  UNL     1      20.556   0.384  51.254  1.00  0.00     0.105 N 
HETATM   20  H12 UNL     1      21.134  -0.480  51.450  1.00  0.00     0.315 HD
HETATM   21  H13 UNL     1      19.626   0.172  50.886  1.00  0.00     0.315 HD
ENDBRANCH  18  19
ENDBRANCH   9  12
BRANCH   1  22
HETATM   22  C2  UNL     1      26.627   3.252  50.742  1.00  0.00     0.083 C 
HETATM   23  C1  UNL     1      26.537   3.306  49.427  1.00  0.00     0.030 C 
ENDBRANCH   1  22
BRANCH  10  24
HETATM   24  O1  UNL     1      26.587  -1.791  53.675  1.00  0.00    -0.360 OA
HETATM   25  H14 UNL     1      25.786  -2.407  53.883  1.00  0.00     0.217 HD
ENDBRANCH  10  24
TORSDOF 4
ENDMDL
MODEL 6
REMARK VINA RESULT:      -7.2      2.786      4.675
REMARK  4 active torsions:
REMARK  status: ('A' for Active; 'I' for Inactive)
REMARK    1  A    between atoms: C2_2  and  N1_3 
REMARK    2  A    between atoms: C9_11  and  N3_12 
REMARK    3  A    between atoms: C14_18  and  N4_19 
REMARK    4  A    between atoms: C15_20  and  O1_21 
ROOT
HETATM    1  N1  UNL     1      23.791   1.634  52.121  1.00  0.00    -0.329 N 
HETATM    2  C3  UNL     1      25.043   1.094  52.538  1.00  0.00     0.052 A 
HETATM    3  C4  UNL     1      26.210   1.421  51.962  1.00  0.00     0.025 A 
HETATM    4  C5  UNL     1      26.258   2.385  50.848  1.00  0.00     0.025 A 
HETATM    5  C6  UNL     1      25.101   2.910  50.482  1.00  0.00    -0.007 A 
HETATM    6  C7  UNL     1      23.762   2.625  51.118  1.00  0.00     0.244 A 
HETATM    7  N2  UNL     1      22.960   2.264  50.000  1.00  0.00    -0.273 NA
HETATM    8  C8  UNL     1      23.429   2.918  48.958  1.00  0.00     0.116 C 
HETATM    9  C9  UNL     1      24.636   3.788  49.382  1.00  0.00     0.159 C 
HETATM   10  C15 UNL     1      26.932   0.531  52.866  1.00  0.00     0.080 A 
HETATM   11  C16 UNL     1      25.768   0.210  53.436  1.00  0.00     0.068 A 
ENDROOT
BRANCH   9  12
HETATM   12  N3  UNL     1      24.215   5.081  49.734  1.00  0.00    -0.343 N 
HETATM   13  C10 UNL     1      22.948   5.718  49.646  1.00  0.00     0.113 A 
HETATM   14  C11 UNL     1      22.593   6.889  50.139  1.00  0.00     0.049 A 
HETATM   15 CL1  UNL     1      20.970   7.513  49.933  1.00  0.00    -0.083 Cl
HETATM   16  C12 UNL     1      23.583   7.712  50.818  1.00  0.00     0.025 A 
HETATM   17  C13 UNL     1      24.782   7.161  50.853  1.00  0.00     0.031 A 
HETATM   18  C14 UNL     1      25.296   5.876  50.331  1.00  0.00     0.343 A 
BRANCH  18  19
HETATM   19  N4  UNL     1      26.387   6.055  49.399  1.00  0.00     0.105 N 
HETATM   20  H12 UNL     1      26.821   6.982  49.667  1.00  0.00     0.315 HD
HETATM   21  H13 UNL     1      26.101   6.012  48.419  1.00  0.00     0.315 HD
ENDBRANCH  18  19
ENDBRANCH   9  12
BRANCH   1  22
HETATM   22  C2  UNL     1      22.543   1.241  52.648  1.00  0.00     0.083 C 
HETATM   23  C1  UNL     1      22.281  -0.052  52.592  1.00  0.00     0.030 C 
ENDBRANCH   1  22
BRANCH  10  24
HETATM   24  O1  UNL     1      28.265   0.175  53.049  1.00  0.00    -0.360 OA
HETATM   25  H14 UNL     1      28.583  -0.427  53.824  1.00  0.00     0.217 HD
ENDBRANCH  10  24
TORSDOF 4
ENDMDL
MODEL 7
REMARK VINA RESULT:      -7.1      5.756      7.214
REMARK  4 active torsions:
REMARK  status: ('A' for Active; 'I' for Inactive)
REMARK    1  A    between atoms: C2_2  and  N1_3 
REMARK    2  A    between atoms: C9_11  and  N3_12 
REMARK    3  A    between atoms: C14_18  and  N4_19 
REMARK    4  A    between atoms: C15_20  and  O1_21 
ROOT
HETATM    1  N1  UNL     1      20.017   0.177  53.304  1.00  0.00    -0.329 N 
HETATM    2  C3  UNL     1      18.877  -0.664  53.147  1.00  0.00     0.052 A 
HETATM    3  C4  UNL     1      17.925  -0.443  52.227  1.00  0.00     0.025 A 
HETATM    4  C5  UNL     1      18.018   0.701  51.303  1.00  0.00     0.025 A 
HETATM    5  C6  UNL     1      19.092   1.464  51.427  1.00  0.00    -0.007 A 
HETATM    6  C7  UNL     1      20.222   1.245  52.404  1.00  0.00     0.244 A 
HETATM    7  N2  UNL     1      20.320   2.508  53.051  1.00  0.00    -0.273 NA
HETATM    8  C8  UNL     1      19.942   3.420  52.181  1.00  0.00     0.116 C 
HETATM    9  C9  UNL     1      19.555   2.744  50.843  1.00  0.00     0.159 C 
HETATM   10  C15 UNL     1      17.186  -1.620  52.675  1.00  0.00     0.080 A 
HETATM   11  C16 UNL     1      18.137  -1.835  53.589  1.00  0.00     0.068 A 
ENDROOT
BRANCH   9  12
HETATM   12  N3  UNL     1      20.662   2.687  49.980  1.00  0.00    -0.343 N 
HETATM   13  C10 UNL     1      21.954   3.271  50.061  1.00  0.00     0.113 A 
HETATM   14  C11 UNL     1      22.997   3.047  49.284  1.00  0.00     0.049 A 
HETATM   15 CL1  UNL     1      24.523   3.863  49.544  1.00  0.00    -0.083 Cl
HETATM   16  C12 UNL     1      22.863   2.149  48.147  1.00  0.00     0.025 A 
HETATM   17  C13 UNL     1      21.649   1.646  48.020  1.00  0.00     0.031 A 
HETATM   18  C14 UNL     1      20.414   1.830  48.813  1.00  0.00     0.343 A 
BRANCH  18  19
HETATM   19  N4  UNL     1      19.318   2.337  48.018  1.00  0.00     0.105 N 
HETATM   20  H12 UNL     1      19.554   3.355  47.851  1.00  0.00     0.315 HD
HETATM   21  H13 UNL     1      18.401   2.201  48.449  1.00  0.00     0.315 HD
ENDBRANCH  18  19
ENDBRANCH   9  12
BRANCH   1  22
HETATM   22  C2  UNL     1      20.984   0.020  54.318  1.00  0.00     0.083 C 
HETATM   23  C1  UNL     1      21.755  -1.046  54.213  1.00  0.00     0.030 C 
ENDBRANCH   1  22
BRANCH  10  24
HETATM   24  O1  UNL     1      15.999  -2.245  52.305  1.00  0.00    -0.360 OA
HETATM   25  H14 UNL     1      15.872  -2.710  51.393  1.00  0.00     0.217 HD
ENDBRANCH  10  24
TORSDOF 4
ENDMDL
MODEL 8
REMARK VINA RESULT:      -7.0      3.730      7.150
REMARK  4 active torsions:
REMARK  status: ('A' for Active; 'I' for Inactive)
REMARK    1  A    between atoms: C2_2  and  N1_3 
REMARK    2  A    between atoms: C9_11  and  N3_12 
REMARK    3  A    between atoms: C14_18  and  N4_19 
REMARK    4  A    between atoms: C15_20  and  O1_21 
ROOT
HETATM    1  N1  UNL     1      21.105   2.525  50.162  1.00  0.00    -0.329 N 
HETATM    2  C3  UNL     1      21.216   2.837  48.775  1.00  0.00     0.052 A 
HETATM    3  C4  UNL     1      22.342   3.307  48.218  1.00  0.00     0.025 A 
HETATM    4  C5  UNL     1      23.554   3.521  49.029  1.00  0.00     0.025 A 
HETATM    5  C6  UNL     1      23.461   3.202  50.309  1.00  0.00    -0.007 A 
HETATM    6  C7  UNL     1      22.244   2.623  50.989  1.00  0.00     0.244 A 
HETATM    7  N2  UNL     1      22.059   3.503  52.091  1.00  0.00    -0.273 NA
HETATM    8  C8  UNL     1      23.247   3.954  52.432  1.00  0.00     0.116 C 
HETATM    9  C9  UNL     1      24.327   3.349  51.502  1.00  0.00     0.159 C 
HETATM   10  C15 UNL     1      21.696   3.368  46.909  1.00  0.00     0.080 A 
HETATM   11  C16 UNL     1      20.578   2.899  47.469  1.00  0.00     0.068 A 
ENDROOT
BRANCH   9  12
HETATM   12  N3  UNL     1      24.853   2.171  52.058  1.00  0.00    -0.343 N 
HETATM   13  C10 UNL     1      24.337   1.272  53.029  1.00  0.00     0.113 A 
HETATM   14  C11 UNL     1      24.823   0.099  53.389  1.00  0.00     0.049 A 
HETATM   15 CL1  UNL     1      24.039  -0.878  54.610  1.00  0.00    -0.083 Cl
HETATM   16  C12 UNL     1      26.071  -0.369  52.806  1.00  0.00     0.025 A 
HETATM   17  C13 UNL     1      26.597   0.485  51.947  1.00  0.00     0.031 A 
HETATM   18  C14 UNL     1      26.154   1.815  51.478  1.00  0.00     0.343 A 
BRANCH  18  19
HETATM   19  N4  UNL     1      27.137   2.845  51.733  1.00  0.00     0.105 N 
HETATM   20  H12 UNL     1      27.126   2.975  52.783  1.00  0.00     0.315 HD
HETATM   21  H13 UNL     1      26.967   3.712  51.217  1.00  0.00     0.315 HD
ENDBRANCH  18  19
ENDBRANCH   9  12
BRANCH   1  22
HETATM   22  C2  UNL     1      19.910   2.115  50.790  1.00  0.00     0.083 C 
HETATM   23  C1  UNL     1      19.774   0.814  50.962  1.00  0.00     0.030 C 
ENDBRANCH   1  22
BRANCH  10  24
HETATM   24  O1  UNL     1      22.086   3.753  45.630  1.00  0.00    -0.360 OA
HETATM   25  H14 UNL     1      22.722   4.545  45.452  1.00  0.00     0.217 HD
ENDBRANCH  10  24
TORSDOF 4
ENDMDL
MODEL 9
REMARK VINA RESULT:      -6.9      8.523      9.963
REMARK  4 active torsions:
REMARK  status: ('A' for Active; 'I' for Inactive)
REMARK    1  A    between atoms: C2_2  and  N1_3 
REMARK    2  A    between atoms: C9_11  and  N3_12 
REMARK    3  A    between atoms: C14_18  and  N4_19 
REMARK    4  A    between atoms: C15_20  and  O1_21 
ROOT
HETATM    1  N1  UNL     1      33.072   5.747  46.034  1.00  0.00    -0.329 N 
HETATM    2  C3  UNL     1      33.917   5.343  47.110  1.00  0.00     0.052 A 
HETATM    3  C4  UNL     1      33.994   6.011  48.271  1.00  0.00     0.025 A 
HETATM    4  C5  UNL     1      33.182   7.220  48.502  1.00  0.00     0.025 A 
HETATM    5  C6  UNL     1      32.375   7.576  47.517  1.00  0.00    -0.007 A 
HETATM    6  C7  UNL     1      32.203   6.844  46.208  1.00  0.00     0.244 A 
HETATM    7  N2  UNL     1      32.407   7.875  45.249  1.00  0.00    -0.273 NA
HETATM    8  C8  UNL     1      32.008   9.002  45.799  1.00  0.00     0.116 C 
HETATM    9  C9  UNL     1      31.495   8.735  47.235  1.00  0.00     0.159 C 
HETATM   10  C15 UNL     1      34.976   5.059  48.781  1.00  0.00     0.080 A 
HETATM   11  C16 UNL     1      34.896   4.398  47.623  1.00  0.00     0.068 A 
ENDROOT
BRANCH   9  12
HETATM   12  N3  UNL     1      30.111   8.497  47.229  1.00  0.00    -0.343 N 
HETATM   13  C10 UNL     1      29.125   8.684  46.224  1.00  0.00     0.113 A 
HETATM   14  C11 UNL     1      27.865   8.293  46.241  1.00  0.00     0.049 A 
HETATM   15 CL1  UNL     1      26.792   8.611  44.895  1.00  0.00    -0.083 Cl
HETATM   16  C12 UNL     1      27.333   7.637  47.426  1.00  0.00     0.025 A 
HETATM   17  C13 UNL     1      28.221   7.512  48.394  1.00  0.00     0.031 A 
HETATM   18  C14 UNL     1      29.641   7.916  48.493  1.00  0.00     0.343 A 
BRANCH  18  19
HETATM   19  N4  UNL     1      29.884   8.813  49.601  1.00  0.00     0.105 N 
HETATM   20  H12 UNL     1      30.567   8.296  50.222  1.00  0.00     0.315 HD
HETATM   21  H13 UNL     1      29.034   9.102  50.090  1.00  0.00     0.315 HD
ENDBRANCH  18  19
ENDBRANCH   9  12
BRANCH   1  22
HETATM   22  C2  UNL     1      33.039   5.116  44.773  1.00  0.00     0.083 C 
HETATM   23  C1  UNL     1      34.206   4.982  44.171  1.00  0.00     0.030 C 
ENDBRANCH   1  22
BRANCH  10  24
HETATM   24  O1  UNL     1      35.689   4.911  49.967  1.00  0.00    -0.360 OA
HETATM   25  H14 UNL     1      36.720   4.921  50.006  1.00  0.00     0.217 HD
ENDBRANCH  10  24
TORSDOF 4
ENDMDL
