MODEL 1
REMARK VINA RESULT:      -9.2      0.000      0.000
REMARK  4 active torsions:
REMARK  status: ('A' for Active; 'I' for Inactive)
REMARK    1  A    between atoms: O1_2  and  C2_3 
REMARK    2  A    between atoms: N3_17  and  C14_18 
REMARK    3  A    between atoms: C14_18  and  C15_19 
REMARK    4  A    between atoms: C19_23  and  C20_24 
REMARK       I    between atoms: C20_24  and  N4_25 
ROOT
HETATM    1  C2  UNL     1      25.012   0.904  52.748  1.00  0.00     0.135 C 
HETATM    2  C3  UNL     1      23.699   0.590  52.579  1.00  0.00     0.107 C 
HETATM    3  C4  UNL     1      22.410  -0.101  52.625  1.00  0.00    -0.047 C 
HETATM    4  C5  UNL     1      21.851  -1.373  53.153  1.00  0.00     0.046 C 
HETATM    5  C6  UNL     1      21.362   0.475  52.101  1.00  0.00     0.038 C 
HETATM    6  C7  UNL     1      19.960   0.243  51.874  1.00  0.00     0.326 C 
HETATM    7  N1  UNL     1      19.063   1.240  52.357  1.00  0.00     0.090 NA
HETATM    8  C8  UNL     1      19.073   2.486  51.573  1.00  0.00     0.289 C 
HETATM    9  C9  UNL     1      20.410   2.486  50.793  1.00  0.00     0.153 C 
HETATM   10  N2  UNL     1      21.350   1.875  51.764  1.00  0.00    -0.377 N 
HETATM   11  C10 UNL     1      22.260   2.718  52.496  1.00  0.00     0.152 C 
HETATM   12  C11 UNL     1      22.995   3.527  51.525  1.00  0.00     0.027 C 
HETATM   13  C12 UNL     1      24.280   3.305  51.370  1.00  0.00     0.087 A 
HETATM   14  C13 UNL     1      25.680   3.178  51.093  1.00  0.00     0.163 A 
HETATM   15  N3  UNL     1      26.886   3.361  50.567  1.00  0.00    -0.240 NA
HETATM   16  N7  UNL     1      24.899   2.199  51.963  1.00  0.00    -0.274 N 
HETATM   17  H10 UNL     1      19.248   1.484  53.355  1.00  0.00     0.316 HD
ENDROOT
BRANCH  15  18
HETATM   18  C14 UNL     1      27.054   4.327  49.577  1.00  0.00     0.122 C 
BRANCH  18  19
HETATM   19  C15 UNL     1      27.247   5.295  48.715  1.00  0.00    -0.056 C 
HETATM   20  C16 UNL     1      28.604   5.409  48.159  1.00  0.00     0.040 C 
HETATM   21  C17 UNL     1      28.920   6.798  47.704  1.00  0.00     0.047 C 
HETATM   22  C18 UNL     1      28.143   7.733  48.558  1.00  0.00     0.002 A 
HETATM   23  C19 UNL     1      28.558   8.914  49.218  1.00  0.00     0.147 A 
HETATM   24  C22 UNL     1      26.792   7.599  48.884  1.00  0.00     0.043 A 
HETATM   25  N5  UNL     1      27.491   9.415  49.868  1.00  0.00    -0.167 NA
HETATM   26  N6  UNL     1      26.464   8.643  49.681  1.00  0.00    -0.277 N 
HETATM   27  C21 UNL     1      25.069   8.538  50.043  1.00  0.00     0.179 C 
HETATM   28  C23 UNL     1      26.317   6.334  48.222  1.00  0.00     0.095 C 
BRANCH  23  29
HETATM   29  C20 UNL     1      29.859   9.531  49.255  1.00  0.00     0.249 C 
HETATM   30  N4  UNL     1      30.698   9.871  50.366  1.00  0.00    -0.267 NA
HETATM   31  H23 UNL     1      31.498   9.518  50.964  1.00  0.00     0.127 HD
HETATM   32  H24 UNL     1      31.438   9.247  50.738  1.00  0.00     0.127 HD
HETATM   33  O2  UNL     1      30.457   9.880  48.195  1.00  0.00    -0.272 OA
ENDBRANCH  23  29
ENDBRANCH  18  19
ENDBRANCH  15  18
BRANCH   1  34
HETATM   34  O1  UNL     1      26.032   0.313  53.368  1.00  0.00    -0.343 OA
HETATM   35  C1  UNL     1      26.931  -0.608  52.730  1.00  0.00     0.211 C 
ENDBRANCH   1  34
TORSDOF 4
ENDMDL
MODEL 2
REMARK VINA RESULT:      -8.7      2.261      9.935
REMARK  4 active torsions:
REMARK  status: ('A' for Active; 'I' for Inactive)
REMARK    1  A    between atoms: O1_2  and  C2_3 
REMARK    2  A    between atoms: N3_17  and  C14_18 
REMARK    3  A    between atoms: C14_18  and  C15_19 
REMARK    4  A    between atoms: C19_23  and  C20_24 
REMARK       I    between atoms: C20_24  and  N4_25 
ROOT
HETATM    1  C2  UNL     1      29.898   5.371  48.003  1.00  0.00     0.135 C 
HETATM    2  C3  UNL     1      30.214   6.670  48.257  1.00  0.00     0.107 C 
HETATM    3  C4  UNL     1      30.952   7.924  48.414  1.00  0.00    -0.047 C 
HETATM    4  C5  UNL     1      32.348   8.414  48.281  1.00  0.00     0.046 C 
HETATM    5  C6  UNL     1      30.301   9.005  48.749  1.00  0.00     0.038 C 
HETATM    6  C7  UNL     1      30.526  10.398  49.035  1.00  0.00     0.326 C 
HETATM    7  N1  UNL     1      29.759  11.335  48.282  1.00  0.00     0.090 NA
HETATM    8  C8  UNL     1      28.340  11.395  48.670  1.00  0.00     0.289 C 
HETATM    9  C9  UNL     1      28.047  10.071  49.416  1.00  0.00     0.153 C 
HETATM   10  N2  UNL     1      28.866   9.089  48.664  1.00  0.00    -0.377 N 
HETATM   11  C10 UNL     1      28.228   8.210  47.718  1.00  0.00     0.152 C 
HETATM   12  C11 UNL     1      27.136   7.528  48.411  1.00  0.00     0.027 C 
HETATM   13  C12 UNL     1      27.240   6.236  48.623  1.00  0.00     0.087 A 
HETATM   14  C13 UNL     1      27.210   4.836  48.924  1.00  0.00     0.163 A 
HETATM   15  N3  UNL     1      26.823   3.647  49.374  1.00  0.00    -0.240 NA
HETATM   16  N7  UNL     1      28.438   5.557  48.377  1.00  0.00    -0.274 N 
HETATM   17  H10 UNL     1      29.807  11.147  47.256  1.00  0.00     0.316 HD
ENDROOT
BRANCH  15  18
HETATM   18  C14 UNL     1      25.603   3.539  50.039  1.00  0.00     0.122 C 
BRANCH  18  19
HETATM   19  C15 UNL     1      24.462   3.534  50.682  1.00  0.00    -0.056 C 
HETATM   20  C16 UNL     1      24.532   3.287  52.130  1.00  0.00     0.040 C 
HETATM   21  C17 UNL     1      23.266   2.704  52.672  1.00  0.00     0.047 C 
HETATM   22  C18 UNL     1      22.641   1.908  51.585  1.00  0.00     0.002 A 
HETATM   23  C19 UNL     1      22.092   0.604  51.617  1.00  0.00     0.147 A 
HETATM   24  C22 UNL     1      22.483   2.328  50.263  1.00  0.00     0.043 A 
HETATM   25  N5  UNL     1      21.644   0.318  50.381  1.00  0.00    -0.167 NA
HETATM   26  N6  UNL     1      21.880   1.320  49.589  1.00  0.00    -0.277 N 
HETATM   27  C21 UNL     1      21.701   1.717  48.210  1.00  0.00     0.179 C 
HETATM   28  C23 UNL     1      23.081   3.705  50.178  1.00  0.00     0.095 C 
BRANCH  23  29
HETATM   29  C20 UNL     1      22.000  -0.321  52.717  1.00  0.00     0.249 C 
HETATM   30  N4  UNL     1      20.867  -0.755  53.479  1.00  0.00    -0.267 NA
HETATM   31  H23 UNL     1      20.131  -1.513  53.548  1.00  0.00     0.127 HD
HETATM   32  H24 UNL     1      20.316  -1.605  53.257  1.00  0.00     0.127 HD
HETATM   33  O2  UNL     1      23.025  -0.907  53.176  1.00  0.00    -0.272 OA
ENDBRANCH  23  29
ENDBRANCH  18  19
ENDBRANCH  15  18
BRANCH   1  34
HETATM   34  O1  UNL     1      30.592   4.315  47.581  1.00  0.00    -0.343 OA
HETATM   35  C1  UNL     1      32.016   4.317  47.393  1.00  0.00     0.211 C 
ENDBRANCH   1  34
TORSDOF 4
ENDMDL
MODEL 3
REMARK VINA RESULT:      -8.7      2.796      4.757
REMARK  4 active torsions:
REMARK  status: ('A' for Active; 'I' for Inactive)
REMARK    1  A    between atoms: O1_2  and  C2_3 
REMARK    2  A    between atoms: N3_17  and  C14_18 
REMARK    3  A    between atoms: C14_18  and  C15_19 
REMARK    4  A    between atoms: C19_23  and  C20_24 
REMARK       I    between atoms: C20_24  and  N4_25 
ROOT
HETATM    1  C2  UNL     1      23.393   1.710  50.837  1.00  0.00     0.135 C 
HETATM    2  C3  UNL     1      24.048   1.256  51.940  1.00  0.00     0.107 C 
HETATM    3  C4  UNL     1      24.390   0.524  53.160  1.00  0.00    -0.047 C 
HETATM    4  C5  UNL     1      23.774  -0.491  54.055  1.00  0.00     0.046 C 
HETATM    5  C6  UNL     1      25.558   0.717  53.710  1.00  0.00     0.038 C 
HETATM    6  C7  UNL     1      26.339   0.299  54.844  1.00  0.00     0.326 C 
HETATM    7  N1  UNL     1      27.635  -0.228  54.568  1.00  0.00     0.090 NA
HETATM    8  C8  UNL     1      28.618   0.788  54.155  1.00  0.00     0.289 C 
HETATM    9  C9  UNL     1      27.794   2.007  53.675  1.00  0.00     0.153 C 
HETATM   10  N2  UNL     1      26.633   1.369  53.007  1.00  0.00    -0.377 N 
HETATM   11  C10 UNL     1      26.591   1.304  51.569  1.00  0.00     0.152 C 
HETATM   12  C11 UNL     1      26.784   2.660  51.057  1.00  0.00     0.027 C 
HETATM   13  C12 UNL     1      25.776   3.250  50.455  1.00  0.00     0.087 A 
HETATM   14  C13 UNL     1      24.775   4.019  49.779  1.00  0.00     0.163 A 
HETATM   15  N3  UNL     1      24.151   5.010  49.150  1.00  0.00    -0.240 NA
HETATM   16  N7  UNL     1      24.495   2.690  50.473  1.00  0.00    -0.274 N 
HETATM   17  H10 UNL     1      27.608  -0.970  53.834  1.00  0.00     0.316 HD
ENDROOT
BRANCH  15  18
HETATM   18  C14 UNL     1      24.839   6.197  48.908  1.00  0.00     0.122 C 
BRANCH  18  19
HETATM   19  C15 UNL     1      25.548   7.288  48.751  1.00  0.00    -0.056 C 
HETATM   20  C16 UNL     1      24.955   8.331  47.901  1.00  0.00     0.040 C 
HETATM   21  C17 UNL     1      25.987   9.220  47.282  1.00  0.00     0.047 C 
HETATM   22  C18 UNL     1      27.220   8.410  47.102  1.00  0.00     0.002 A 
HETATM   23  C19 UNL     1      28.072   8.296  45.978  1.00  0.00     0.147 A 
HETATM   24  C22 UNL     1      27.782   7.568  48.063  1.00  0.00     0.043 A 
HETATM   25  N5  UNL     1      29.060   7.442  46.300  1.00  0.00    -0.167 NA
HETATM   26  N6  UNL     1      28.887   7.011  47.513  1.00  0.00    -0.277 N 
HETATM   27  C21 UNL     1      29.498   6.126  48.479  1.00  0.00     0.179 C 
HETATM   28  C23 UNL     1      26.888   7.639  49.270  1.00  0.00     0.095 C 
BRANCH  23  29
HETATM   29  C20 UNL     1      27.969   8.924  44.687  1.00  0.00     0.249 C 
HETATM   30  N4  UNL     1      27.045   8.705  43.614  1.00  0.00    -0.267 NA
HETATM   31  H23 UNL     1      26.132   9.045  43.197  1.00  0.00     0.127 HD
HETATM   32  H24 UNL     1      26.171   9.248  43.489  1.00  0.00     0.127 HD
HETATM   33  O2  UNL     1      28.777   9.830  44.325  1.00  0.00    -0.272 OA
ENDBRANCH  23  29
ENDBRANCH  18  19
ENDBRANCH  15  18
BRANCH   1  34
HETATM   34  O1  UNL     1      22.223   1.418  50.270  1.00  0.00    -0.343 OA
HETATM   35  C1  UNL     1      21.956   1.565  48.867  1.00  0.00     0.211 C 
ENDBRANCH   1  34
TORSDOF 4
ENDMDL
MODEL 4
REMARK VINA RESULT:      -8.6      3.601      5.847
REMARK  4 active torsions:
REMARK  status: ('A' for Active; 'I' for Inactive)
REMARK    1  A    between atoms: O1_2  and  C2_3 
REMARK    2  A    between atoms: N3_17  and  C14_18 
REMARK    3  A    between atoms: C14_18  and  C15_19 
REMARK    4  A    between atoms: C19_23  and  C20_24 
REMARK       I    between atoms: C20_24  and  N4_25 
ROOT
HETATM    1  C2  UNL     1      24.846   6.062  48.922  1.00  0.00     0.135 C 
HETATM    2  C3  UNL     1      24.357   5.425  50.020  1.00  0.00     0.107 C 
HETATM    3  C4  UNL     1      23.503   5.024  51.138  1.00  0.00    -0.047 C 
HETATM    4  C5  UNL     1      22.209   5.428  51.747  1.00  0.00     0.046 C 
HETATM    5  C6  UNL     1      23.865   4.015  51.884  1.00  0.00     0.038 C 
HETATM    6  C7  UNL     1      23.435   3.271  53.038  1.00  0.00     0.326 C 
HETATM    7  N1  UNL     1      23.314   1.859  52.878  1.00  0.00     0.090 NA
HETATM    8  C8  UNL     1      24.603   1.153  52.796  1.00  0.00     0.289 C 
HETATM    9  C9  UNL     1      25.650   2.225  52.406  1.00  0.00     0.153 C 
HETATM   10  N2  UNL     1      24.892   3.092  51.472  1.00  0.00    -0.377 N 
HETATM   11  C10 UNL     1      25.109   2.967  50.054  1.00  0.00     0.152 C 
HETATM   12  C11 UNL     1      26.545   3.100  49.810  1.00  0.00     0.027 C 
HETATM   13  C12 UNL     1      26.975   4.163  49.170  1.00  0.00     0.087 A 
HETATM   14  C13 UNL     1      27.590   5.261  48.487  1.00  0.00     0.163 A 
HETATM   15  N3  UNL     1      28.501   6.063  47.944  1.00  0.00    -0.240 NA
HETATM   16  N7  UNL     1      26.121   5.237  48.898  1.00  0.00    -0.274 N 
HETATM   17  H10 UNL     1      22.752   1.607  52.035  1.00  0.00     0.316 HD
ENDROOT
BRANCH  15  18
HETATM   18  C14 UNL     1      29.845   5.703  48.011  1.00  0.00     0.122 C 
BRANCH  18  19
HETATM   19  C15 UNL     1      31.123   5.442  48.133  1.00  0.00    -0.056 C 
HETATM   20  C16 UNL     1      31.787   5.985  49.327  1.00  0.00     0.040 C 
HETATM   21  C17 UNL     1      33.255   6.190  49.123  1.00  0.00     0.047 C 
HETATM   22  C18 UNL     1      33.466   6.482  47.682  1.00  0.00     0.002 A 
HETATM   23  C19 UNL     1      34.243   7.492  47.067  1.00  0.00     0.147 A 
HETATM   24  C22 UNL     1      32.897   5.775  46.621  1.00  0.00     0.043 A 
HETATM   25  N5  UNL     1      34.120   7.350  45.735  1.00  0.00    -0.167 NA
HETATM   26  N6  UNL     1      33.328   6.354  45.475  1.00  0.00    -0.277 N 
HETATM   27  C21 UNL     1      32.757   5.650  44.349  1.00  0.00     0.179 C 
HETATM   28  C23 UNL     1      32.037   4.704  47.233  1.00  0.00     0.095 C 
BRANCH  23  29
HETATM   29  C20 UNL     1      35.036   8.531  47.674  1.00  0.00     0.249 C 
HETATM   30  N4  UNL     1      36.135   8.450  48.590  1.00  0.00    -0.267 NA
HETATM   31  H23 UNL     1      37.193   8.424  48.646  1.00  0.00     0.127 HD
HETATM   32  H24 UNL     1      37.129   8.434  48.295  1.00  0.00     0.127 HD
HETATM   33  O2  UNL     1      34.815   9.755  47.438  1.00  0.00    -0.272 OA
ENDBRANCH  23  29
ENDBRANCH  18  19
ENDBRANCH  15  18
BRANCH   1  34
HETATM   34  O1  UNL     1      24.394   7.043  48.142  1.00  0.00    -0.343 OA
HETATM   35  C1  UNL     1      25.240   8.003  47.492  1.00  0.00     0.211 C 
ENDBRANCH   1  34
TORSDOF 4
ENDMDL
MODEL 5
REMARK VINA RESULT:      -8.6      2.406      4.780
REMARK  4 active torsions:
REMARK  status: ('A' for Active; 'I' for Inactive)
REMARK    1  A    between atoms: O1_2  and  C2_3 
REMARK    2  A    between atoms: N3_17  and  C14_18 
REMARK    3  A    between atoms: C14_18  and  C15_19 
REMARK    4  A    between atoms: C19_23  and  C20_24 
REMARK       I    between atoms: C20_24  and  N4_25 
ROOT
HETATM    1  C2  UNL     1      23.564   0.808  52.703  1.00  0.00     0.135 C 
HETATM    2  C3  UNL     1      24.643   0.537  53.486  1.00  0.00     0.107 C 
HETATM    3  C4  UNL     1      25.497   0.052  54.571  1.00  0.00    -0.047 C 
HETATM    4  C5  UNL     1      25.350  -0.685  55.853  1.00  0.00     0.046 C 
HETATM    5  C6  UNL     1      26.785   0.244  54.499  1.00  0.00     0.038 C 
HETATM    6  C7  UNL     1      27.992   0.004  55.247  1.00  0.00     0.326 C 
HETATM    7  N1  UNL     1      29.035  -0.692  54.568  1.00  0.00     0.090 NA
HETATM    8  C8  UNL     1      29.725   0.113  53.546  1.00  0.00     0.289 C 
HETATM    9  C9  UNL     1      28.764   1.276  53.201  1.00  0.00     0.153 C 
HETATM   10  N2  UNL     1      27.433   0.625  53.270  1.00  0.00    -0.377 N 
HETATM   11  C10 UNL     1      26.757   0.260  52.051  1.00  0.00     0.152 C 
HETATM   12  C11 UNL     1      26.692   1.452  51.205  1.00  0.00     0.027 C 
HETATM   13  C12 UNL     1      25.518   1.995  50.980  1.00  0.00     0.087 A 
HETATM   14  C13 UNL     1      24.314   2.695  50.645  1.00  0.00     0.163 A 
HETATM   15  N3  UNL     1      23.468   3.584  50.136  1.00  0.00    -0.240 NA
HETATM   16  N7  UNL     1      24.382   1.576  51.680  1.00  0.00    -0.274 N 
HETATM   17  H10 UNL     1      28.692  -1.567  54.113  1.00  0.00     0.316 HD
ENDROOT
BRANCH  15  18
HETATM   18  C14 UNL     1      23.968   4.621  49.350  1.00  0.00     0.122 C 
BRANCH  18  19
HETATM   19  C15 UNL     1      24.514   5.539  48.591  1.00  0.00    -0.056 C 
HETATM   20  C16 UNL     1      25.983   5.602  48.603  1.00  0.00     0.040 C 
HETATM   21  C17 UNL     1      26.499   6.961  48.250  1.00  0.00     0.047 C 
HETATM   22  C18 UNL     1      25.485   7.951  48.692  1.00  0.00     0.002 A 
HETATM   23  C19 UNL     1      25.651   9.159  49.410  1.00  0.00     0.147 A 
HETATM   24  C22 UNL     1      24.110   7.855  48.471  1.00  0.00     0.043 A 
HETATM   25  N5  UNL     1      24.434   9.710  49.571  1.00  0.00    -0.167 NA
HETATM   26  N6  UNL     1      23.534   8.945  49.031  1.00  0.00    -0.277 N 
HETATM   27  C21 UNL     1      22.105   8.881  48.825  1.00  0.00     0.179 C 
HETATM   28  C23 UNL     1      23.885   6.565  47.731  1.00  0.00     0.095 C 
BRANCH  23  29
HETATM   29  C20 UNL     1      26.856   9.757  49.925  1.00  0.00     0.249 C 
HETATM   30  N4  UNL     1      27.638   9.431  51.081  1.00  0.00    -0.267 NA
HETATM   31  H23 UNL     1      28.477   8.873  51.408  1.00  0.00     0.127 HD
HETATM   32  H24 UNL     1      28.455   8.793  51.060  1.00  0.00     0.127 HD
HETATM   33  O2  UNL     1      27.404  10.743  49.350  1.00  0.00    -0.272 OA
ENDBRANCH  23  29
ENDBRANCH  18  19
ENDBRANCH  15  18
BRANCH   1  34
HETATM   34  O1  UNL     1      22.266   0.516  52.784  1.00  0.00    -0.343 OA
HETATM   35  C1  UNL     1      21.222   1.375  52.300  1.00  0.00     0.211 C 
ENDBRANCH   1  34
TORSDOF 4
ENDMDL
MODEL 6
REMARK VINA RESULT:      -8.6      1.954      3.058
REMARK  4 active torsions:
REMARK  status: ('A' for Active; 'I' for Inactive)
REMARK    1  A    between atoms: O1_2  and  C2_3 
REMARK    2  A    between atoms: N3_17  and  C14_18 
REMARK    3  A    between atoms: C14_18  and  C15_19 
REMARK    4  A    between atoms: C19_23  and  C20_24 
REMARK       I    between atoms: C20_24  and  N4_25 
ROOT
HETATM    1  C2  UNL     1      21.441   0.512  53.012  1.00  0.00     0.135 C 
HETATM    2  C3  UNL     1      20.163   0.389  52.562  1.00  0.00     0.107 C 
HETATM    3  C4  UNL     1      18.807  -0.105  52.324  1.00  0.00    -0.047 C 
HETATM    4  C5  UNL     1      17.967  -1.271  52.706  1.00  0.00     0.046 C 
HETATM    5  C6  UNL     1      17.991   0.606  51.594  1.00  0.00     0.038 C 
HETATM    6  C7  UNL     1      16.651   0.577  51.069  1.00  0.00     0.326 C 
HETATM    7  N1  UNL     1      15.828   1.704  51.360  1.00  0.00     0.090 NA
HETATM    8  C8  UNL     1      16.188   2.918  50.610  1.00  0.00     0.289 C 
HETATM    9  C9  UNL     1      17.646   2.706  50.133  1.00  0.00     0.153 C 
HETATM   10  N2  UNL     1      18.257   1.985  51.277  1.00  0.00    -0.377 N 
HETATM   11  C10 UNL     1      19.104   2.702  52.196  1.00  0.00     0.152 C 
HETATM   12  C11 UNL     1      20.141   3.374  51.413  1.00  0.00     0.027 C 
HETATM   13  C12 UNL     1      21.382   2.963  51.534  1.00  0.00     0.087 A 
HETATM   14  C13 UNL     1      22.774   2.628  51.562  1.00  0.00     0.163 A 
HETATM   15  N3  UNL     1      24.078   2.622  51.308  1.00  0.00    -0.240 NA
HETATM   16  N7  UNL     1      21.690   1.792  52.235  1.00  0.00    -0.274 N 
HETATM   17  H10 UNL     1      15.830   1.939  52.377  1.00  0.00     0.316 HD
ENDROOT
BRANCH  15  18
HETATM   18  C14 UNL     1      24.594   3.532  50.388  1.00  0.00     0.122 C 
BRANCH  18  19
HETATM   19  C15 UNL     1      25.008   4.359  49.460  1.00  0.00    -0.056 C 
HETATM   20  C16 UNL     1      26.465   4.482  49.302  1.00  0.00     0.040 C 
HETATM   21  C17 UNL     1      26.868   5.799  48.720  1.00  0.00     0.047 C 
HETATM   22  C18 UNL     1      25.853   6.800  49.139  1.00  0.00     0.002 A 
HETATM   23  C19 UNL     1      26.028   8.099  49.671  1.00  0.00     0.147 A 
HETATM   24  C22 UNL     1      24.470   6.620  49.085  1.00  0.00     0.043 A 
HETATM   25  N5  UNL     1      24.807   8.618  49.892  1.00  0.00    -0.167 NA
HETATM   26  N6  UNL     1      23.898   7.753  49.559  1.00  0.00    -0.277 N 
HETATM   27  C21 UNL     1      22.461   7.605  49.521  1.00  0.00     0.179 C 
HETATM   28  C23 UNL     1      24.239   5.235  48.548  1.00  0.00     0.095 C 
BRANCH  23  29
HETATM   29  C20 UNL     1      27.246   8.808  49.969  1.00  0.00     0.249 C 
HETATM   30  N4  UNL     1      27.657   9.499  51.155  1.00  0.00    -0.267 NA
HETATM   31  H23 UNL     1      28.196   9.385  52.060  1.00  0.00     0.127 HD
HETATM   32  H24 UNL     1      28.214   9.060  51.912  1.00  0.00     0.127 HD
HETATM   33  O2  UNL     1      28.178   8.909  49.118  1.00  0.00    -0.272 OA
ENDBRANCH  23  29
ENDBRANCH  18  19
ENDBRANCH  15  18
BRANCH   1  34
HETATM   34  O1  UNL     1      22.208  -0.209  53.830  1.00  0.00    -0.343 OA
HETATM   35  C1  UNL     1      23.640  -0.270  53.738  1.00  0.00     0.211 C 
ENDBRANCH   1  34
TORSDOF 4
ENDMDL
MODEL 7
REMARK VINA RESULT:      -8.5      2.222      9.286
REMARK  4 active torsions:
REMARK  status: ('A' for Active; 'I' for Inactive)
REMARK    1  A    between atoms: O1_2  and  C2_3 
REMARK    2  A    between atoms: N3_17  and  C14_18 
REMARK    3  A    between atoms: C14_18  and  C15_19 
REMARK    4  A    between atoms: C19_23  and  C20_24 
REMARK       I    between atoms: C20_24  and  N4_25 
ROOT
HETATM    1  C2  UNL     1      29.030   5.522  48.190  1.00  0.00     0.135 C 
HETATM    2  C3  UNL     1      28.931   6.879  48.214  1.00  0.00     0.107 C 
HETATM    3  C4  UNL     1      29.237   8.304  48.098  1.00  0.00    -0.047 C 
HETATM    4  C5  UNL     1      30.392   9.165  47.729  1.00  0.00     0.046 C 
HETATM    5  C6  UNL     1      28.299   9.177  48.346  1.00  0.00     0.038 C 
HETATM    6  C7  UNL     1      28.086  10.600  48.397  1.00  0.00     0.326 C 
HETATM    7  N1  UNL     1      27.011  11.111  47.612  1.00  0.00     0.090 NA
HETATM    8  C8  UNL     1      25.676  10.804  48.152  1.00  0.00     0.289 C 
HETATM    9  C9  UNL     1      25.872   9.606  49.113  1.00  0.00     0.153 C 
HETATM   10  N2  UNL     1      26.910   8.804  48.421  1.00  0.00    -0.377 N 
HETATM   11  C10 UNL     1      26.526   7.621  47.695  1.00  0.00     0.152 C 
HETATM   12  C11 UNL     1      25.757   6.771  48.605  1.00  0.00     0.027 C 
HETATM   13  C12 UNL     1      26.283   5.631  48.989  1.00  0.00     0.087 A 
HETATM   14  C13 UNL     1      26.723   4.365  49.492  1.00  0.00     0.163 A 
HETATM   15  N3  UNL     1      26.767   3.212  50.153  1.00  0.00    -0.240 NA
HETATM   16  N7  UNL     1      27.616   5.317  48.704  1.00  0.00    -0.274 N 
HETATM   17  H10 UNL     1      27.047  10.770  46.626  1.00  0.00     0.316 HD
ENDROOT
BRANCH  15  18
HETATM   18  C14 UNL     1      25.694   2.857  50.968  1.00  0.00     0.122 C 
BRANCH  18  19
HETATM   19  C15 UNL     1      24.715   2.590  51.797  1.00  0.00    -0.056 C 
HETATM   20  C16 UNL     1      24.317   1.179  51.900  1.00  0.00     0.040 C 
HETATM   21  C17 UNL     1      22.896   1.016  52.338  1.00  0.00     0.047 C 
HETATM   22  C18 UNL     1      22.143   2.201  51.854  1.00  0.00     0.002 A 
HETATM   23  C19 UNL     1      20.894   2.273  51.193  1.00  0.00     0.147 A 
HETATM   24  C22 UNL     1      22.562   3.528  51.966  1.00  0.00     0.043 A 
HETATM   25  N5  UNL     1      20.628   3.571  50.958  1.00  0.00    -0.167 NA
HETATM   26  N6  UNL     1      21.606   4.302  51.401  1.00  0.00    -0.277 N 
HETATM   27  C21 UNL     1      22.006   5.688  51.495  1.00  0.00     0.179 C 
HETATM   28  C23 UNL     1      23.905   3.496  52.642  1.00  0.00     0.095 C 
BRANCH  23  29
HETATM   29  C20 UNL     1      20.010   1.208  50.792  1.00  0.00     0.249 C 
HETATM   30  N4  UNL     1      19.293   1.002  49.569  1.00  0.00    -0.267 NA
HETATM   31  H23 UNL     1      19.343   0.522  48.626  1.00  0.00     0.127 HD
HETATM   32  H24 UNL     1      19.658   0.442  48.776  1.00  0.00     0.127 HD
HETATM   33  O2  UNL     1      19.744   0.242  51.566  1.00  0.00    -0.272 OA
ENDBRANCH  23  29
ENDBRANCH  18  19
ENDBRANCH  15  18
BRANCH   1  34
HETATM   34  O1  UNL     1      29.996   4.670  47.848  1.00  0.00    -0.343 OA
HETATM   35  C1  UNL     1      31.360   5.057  47.619  1.00  0.00     0.211 C 
ENDBRANCH   1  34
TORSDOF 4
ENDMDL
MODEL 8
REMARK VINA RESULT:      -8.2      2.812      5.222
REMARK  4 active torsions:
REMARK  status: ('A' for Active; 'I' for Inactive)
REMARK    1  A    between atoms: O1_2  and  C2_3 
REMARK    2  A    between atoms: N3_17  and  C14_18 
REMARK    3  A    between atoms: C14_18  and  C15_19 
REMARK    4  A    between atoms: C19_23  and  C20_24 
REMARK       I    between atoms: C20_24  and  N4_25 
ROOT
HETATM    1  C2  UNL     1      23.476   1.298  51.984  1.00  0.00     0.135 C 
HETATM    2  C3  UNL     1      24.418   0.821  52.842  1.00  0.00     0.107 C 
HETATM    3  C4  UNL     1      25.108   0.026  53.859  1.00  0.00    -0.047 C 
HETATM    4  C5  UNL     1      24.815  -1.117  54.762  1.00  0.00     0.046 C 
HETATM    5  C6  UNL     1      26.358   0.289  54.129  1.00  0.00     0.038 C 
HETATM    6  C7  UNL     1      27.426  -0.143  54.992  1.00  0.00     0.326 C 
HETATM    7  N1  UNL     1      28.649  -0.510  54.357  1.00  0.00     0.090 NA
HETATM    8  C8  UNL     1      29.418   0.631  53.832  1.00  0.00     0.289 C 
HETATM    9  C9  UNL     1      28.408   1.797  53.697  1.00  0.00     0.153 C 
HETATM   10  N2  UNL     1      27.171   1.104  53.263  1.00  0.00    -0.377 N 
HETATM   11  C10 UNL     1      26.777   1.157  51.878  1.00  0.00     0.152 C 
HETATM   12  C11 UNL     1      26.731   2.564  51.483  1.00  0.00     0.027 C 
HETATM   13  C12 UNL     1      25.563   3.098  51.208  1.00  0.00     0.087 A 
HETATM   14  C13 UNL     1      24.369   3.816  50.878  1.00  0.00     0.163 A 
HETATM   15  N3  UNL     1      23.534   4.788  50.527  1.00  0.00    -0.240 NA
HETATM   16  N7  UNL     1      24.374   2.411  51.472  1.00  0.00    -0.274 N 
HETATM   17  H10 UNL     1      28.498  -1.186  53.576  1.00  0.00     0.316 HD
ENDROOT
BRANCH  15  18
HETATM   18  C14 UNL     1      24.046   6.055  50.254  1.00  0.00     0.122 C 
BRANCH  18  19
HETATM   19  C15 UNL     1      24.449   7.263  49.944  1.00  0.00    -0.056 C 
HETATM   20  C16 UNL     1      23.417   8.183  49.442  1.00  0.00     0.040 C 
HETATM   21  C17 UNL     1      23.985   9.258  48.570  1.00  0.00     0.047 C 
HETATM   22  C18 UNL     1      25.190   8.700  47.905  1.00  0.00     0.002 A 
HETATM   23  C19 UNL     1      25.585   8.761  46.547  1.00  0.00     0.147 A 
HETATM   24  C22 UNL     1      26.199   7.970  48.537  1.00  0.00     0.043 A 
HETATM   25  N5  UNL     1      26.756   8.107  46.432  1.00  0.00    -0.167 NA
HETATM   26  N6  UNL     1      27.109   7.639  47.590  1.00  0.00    -0.277 N 
HETATM   27  C21 UNL     1      28.172   6.877  48.207  1.00  0.00     0.179 C 
HETATM   28  C23 UNL     1      25.803   7.858  49.983  1.00  0.00     0.095 C 
BRANCH  23  29
HETATM   29  C20 UNL     1      24.916   9.371  45.428  1.00  0.00     0.249 C 
HETATM   30  N4  UNL     1      24.278   8.782  44.288  1.00  0.00    -0.267 NA
HETATM   31  H23 UNL     1      23.341   8.455  43.914  1.00  0.00     0.127 HD
HETATM   32  H24 UNL     1      23.264   8.564  44.246  1.00  0.00     0.127 HD
HETATM   33  O2  UNL     1      24.817  10.629  45.321  1.00  0.00    -0.272 OA
ENDBRANCH  23  29
ENDBRANCH  18  19
ENDBRANCH  15  18
BRANCH   1  34
HETATM   34  O1  UNL     1      22.228   0.939  51.686  1.00  0.00    -0.343 OA
HETATM   35  C1  UNL     1      21.651   1.061  50.377  1.00  0.00     0.211 C 
ENDBRANCH   1  34
TORSDOF 4
ENDMDL
MODEL 9
REMARK VINA RESULT:      -8.1      4.505     10.988
REMARK  4 active torsions:
REMARK  status: ('A' for Active; 'I' for Inactive)
REMARK    1  A    between atoms: O1_2  and  C2_3 
REMARK    2  A    between atoms: N3_17  and  C14_18 
REMARK    3  A    between atoms: C14_18  and  C15_19 
REMARK    4  A    between atoms: C19_23  and  C20_24 
REMARK       I    between atoms: C20_24  and  N4_25 
ROOT
HETATM    1  C2  UNL     1      22.137  -0.123  52.705  1.00  0.00     0.135 C 
HETATM    2  C3  UNL     1      22.930   0.940  52.400  1.00  0.00     0.107 C 
HETATM    3  C4  UNL     1      24.045   1.886  52.362  1.00  0.00    -0.047 C 
HETATM    4  C5  UNL     1      25.362   2.077  53.025  1.00  0.00     0.046 C 
HETATM    5  C6  UNL     1      23.997   2.891  51.531  1.00  0.00     0.038 C 
HETATM    6  C7  UNL     1      24.761   4.044  51.129  1.00  0.00     0.326 C 
HETATM    7  N1  UNL     1      25.055   4.161  49.739  1.00  0.00     0.090 NA
HETATM    8  C8  UNL     1      23.895   4.533  48.911  1.00  0.00     0.289 C 
HETATM    9  C9  UNL     1      22.643   4.182  49.752  1.00  0.00     0.153 C 
HETATM   10  N2  UNL     1      23.056   2.935  50.441  1.00  0.00    -0.377 N 
HETATM   11  C10 UNL     1      22.574   1.665  49.960  1.00  0.00     0.152 C 
HETATM   12  C11 UNL     1      21.115   1.742  49.890  1.00  0.00     0.027 C 
HETATM   13  C12 UNL     1      20.410   1.010  50.722  1.00  0.00     0.087 A 
HETATM   14  C13 UNL     1      19.512   0.274  51.560  1.00  0.00     0.163 A 
HETATM   15  N3  UNL     1      18.401  -0.197  52.116  1.00  0.00    -0.240 NA
HETATM   16  N7  UNL     1      21.021   0.327  51.778  1.00  0.00    -0.274 N 
HETATM   17  H10 UNL     1      25.463   3.283  49.349  1.00  0.00     0.316 HD
ENDROOT
BRANCH  15  18
HETATM   18  C14 UNL     1      17.167   0.256  51.654  1.00  0.00     0.122 C 
BRANCH  18  19
HETATM   19  C15 UNL     1      16.041   0.773  51.226  1.00  0.00    -0.056 C 
HETATM   20  C16 UNL     1      16.092   2.180  50.802  1.00  0.00     0.040 C 
HETATM   21  C17 UNL     1      14.765   2.860  50.915  1.00  0.00     0.047 C 
HETATM   22  C18 UNL     1      14.027   2.212  52.030  1.00  0.00     0.002 A 
HETATM   23  C19 UNL     1      13.307   2.795  53.099  1.00  0.00     0.147 A 
HETATM   24  C22 UNL     1      13.914   0.835  52.233  1.00  0.00     0.043 A 
HETATM   25  N5  UNL     1      12.812   1.795  53.852  1.00  0.00    -0.167 NA
HETATM   26  N6  UNL     1      13.174   0.653  53.352  1.00  0.00    -0.277 N 
HETATM   27  C21 UNL     1      13.036  -0.765  53.599  1.00  0.00     0.179 C 
HETATM   28  C23 UNL     1      14.692   0.175  51.128  1.00  0.00     0.095 C 
BRANCH  23  29
HETATM   29  C20 UNL     1      13.103   4.186  53.411  1.00  0.00     0.249 C 
HETATM   30  N4  UNL     1      12.118   5.113  52.939  1.00  0.00    -0.267 NA
HETATM   31  H23 UNL     1      11.170   5.532  53.162  1.00  0.00     0.127 HD
HETATM   32  H24 UNL     1      11.221   5.297  53.428  1.00  0.00     0.127 HD
HETATM   33  O2  UNL     1      13.859   4.800  54.220  1.00  0.00    -0.272 OA
ENDBRANCH  23  29
ENDBRANCH  18  19
ENDBRANCH  15  18
BRANCH   1  34
HETATM   34  O1  UNL     1      22.269  -1.175  53.511  1.00  0.00    -0.343 OA
HETATM   35  C1  UNL     1      21.261  -1.604  54.440  1.00  0.00     0.211 C 
ENDBRANCH   1  34
TORSDOF 4
ENDMDL
