MODEL 1
REMARK VINA RESULT:      -9.4      0.000      0.000
REMARK  4 active torsions:
REMARK  status: ('A' for Active; 'I' for Inactive)
REMARK    1  A    between atoms: C2_2  and  C3_4 
REMARK    2  A    between atoms: C13_14  and  O2_15 
REMARK    3  A    between atoms: O2_15  and  C14_16 
REMARK    4  A    between atoms: C14_16  and  C15_17 
ROOT
HETATM    1  C3  UNL     1      27.907   6.443  48.452  1.00  0.00     0.010 A 
HETATM    2  C4  UNL     1      27.289   7.575  48.942  1.00  0.00     0.017 A 
HETATM    3  C5  UNL     1      26.092   7.517  49.637  1.00  0.00     0.033 A 
HETATM    4  C6  UNL     1      25.525   6.274  49.832  1.00  0.00     0.064 A 
HETATM    5  C7  UNL     1      26.064   5.087  49.382  1.00  0.00    -0.024 A 
HETATM    6  C8  UNL     1      27.269   5.243  48.692  1.00  0.00     0.025 A 
HETATM    7  C9  UNL     1      25.763   3.634  49.396  1.00  0.00     0.082 C 
HETATM    8  C10 UNL     1      25.568   3.072  50.736  1.00  0.00    -0.027 A 
HETATM    9  C11 UNL     1      26.336   1.916  50.841  1.00  0.00     0.012 A 
HETATM   10  C12 UNL     1      26.327   1.192  52.015  1.00  0.00     0.037 A 
HETATM   11  C13 UNL     1      25.567   1.570  53.129  1.00  0.00     0.071 A 
HETATM   12  C20 UNL     1      24.818   2.723  52.986  1.00  0.00     0.066 A 
HETATM   13  C21 UNL     1      24.824   3.442  51.827  1.00  0.00     0.042 A 
HETATM   14  N1  UNL     1      23.929   4.514  52.141  1.00  0.00    -0.350 N 
HETATM   15  C22 UNL     1      23.680   5.773  51.484  1.00  0.00     0.208 C 
HETATM   16  N2  UNL     1      24.303   6.478  50.571  1.00  0.00    -0.244 NA
HETATM   17  H18 UNL     1      23.366   4.333  53.001  1.00  0.00     0.166 HD
ENDROOT
BRANCH  11  18
HETATM   18  O2  UNL     1      25.730   0.691  54.160  1.00  0.00    -0.347 OA
BRANCH  18  19
HETATM   19  C14 UNL     1      25.376  -0.648  54.229  1.00  0.00     0.214 C 
BRANCH  19  20
HETATM   20  C15 UNL     1      23.915  -0.822  54.381  1.00  0.00    -0.035 A 
HETATM   21  C16 UNL     1      23.019  -1.181  55.283  1.00  0.00    -0.011 A 
HETATM   22  C17 UNL     1      21.619  -1.137  54.755  1.00  0.00     0.098 A 
HETATM   23  C18 UNL     1      21.862  -0.677  53.353  1.00  0.00     0.098 A 
HETATM   24  F1  UNL     1      20.759  -0.534  52.592  1.00  0.00    -0.211 F 
HETATM   25  C19 UNL     1      23.158  -0.503  53.153  1.00  0.00     0.047 A 
ENDBRANCH  19  20
ENDBRANCH  18  19
ENDBRANCH  11  18
BRANCH   1  26
HETATM   26  C2  UNL     1      29.165   6.478  47.718  1.00  0.00     0.155 C 
HETATM   27  C1  UNL     1      30.203   5.452  47.998  1.00  0.00     0.096 C 
HETATM   28  O1  UNL     1      29.374   7.381  46.843  1.00  0.00    -0.293 OA
ENDBRANCH   1  26
TORSDOF 4
ENDMDL
MODEL 2
REMARK VINA RESULT:      -9.1      5.177      8.543
REMARK  4 active torsions:
REMARK  status: ('A' for Active; 'I' for Inactive)
REMARK    1  A    between atoms: C2_2  and  C3_4 
REMARK    2  A    between atoms: C13_14  and  O2_15 
REMARK    3  A    between atoms: O2_15  and  C14_16 
REMARK    4  A    between atoms: C14_16  and  C15_17 
ROOT
HETATM    1  C3  UNL     1      17.611  -0.441  51.523  1.00  0.00     0.010 A 
HETATM    2  C4  UNL     1      17.695   0.201  50.304  1.00  0.00     0.017 A 
HETATM    3  C5  UNL     1      18.688   1.125  50.026  1.00  0.00     0.033 A 
HETATM    4  C6  UNL     1      19.611   1.389  51.017  1.00  0.00     0.064 A 
HETATM    5  C7  UNL     1      19.613   0.801  52.265  1.00  0.00    -0.024 A 
HETATM    6  C8  UNL     1      18.575  -0.115  52.455  1.00  0.00     0.025 A 
HETATM    7  C9  UNL     1      20.395   0.829  53.525  1.00  0.00     0.082 C 
HETATM    8  C10 UNL     1      21.822   0.539  53.354  1.00  0.00    -0.027 A 
HETATM    9  C11 UNL     1      22.190  -0.417  54.298  1.00  0.00     0.012 A 
HETATM   10  C12 UNL     1      23.494  -0.865  54.347  1.00  0.00     0.037 A 
HETATM   11  C13 UNL     1      24.486  -0.395  53.477  1.00  0.00     0.071 A 
HETATM   12  C20 UNL     1      24.082   0.552  52.556  1.00  0.00     0.066 A 
HETATM   13  C21 UNL     1      22.795   0.998  52.503  1.00  0.00     0.042 A 
HETATM   14  N1  UNL     1      22.853   1.939  51.427  1.00  0.00    -0.350 N 
HETATM   15  C22 UNL     1      21.813   2.579  50.660  1.00  0.00     0.208 C 
HETATM   16  N2  UNL     1      20.529   2.370  50.491  1.00  0.00    -0.244 NA
HETATM   17  H18 UNL     1      23.830   2.198  51.167  1.00  0.00     0.166 HD
ENDROOT
BRANCH  11  18
HETATM   18  O2  UNL     1      25.688  -0.993  53.730  1.00  0.00    -0.347 OA
BRANCH  18  19
HETATM   19  C14 UNL     1      26.668  -1.394  52.833  1.00  0.00     0.214 C 
BRANCH  19  20
HETATM   20  C15 UNL     1      28.002  -0.881  53.214  1.00  0.00    -0.035 A 
HETATM   21  C16 UNL     1      29.264  -1.268  53.275  1.00  0.00    -0.011 A 
HETATM   22  C17 UNL     1      30.173  -0.194  53.783  1.00  0.00     0.098 A 
HETATM   23  C18 UNL     1      29.196   0.916  54.013  1.00  0.00     0.098 A 
HETATM   24  F1  UNL     1      29.723   2.062  54.487  1.00  0.00    -0.211 F 
HETATM   25  C19 UNL     1      27.977   0.517  53.689  1.00  0.00     0.047 A 
ENDBRANCH  19  20
ENDBRANCH  18  19
ENDBRANCH  11  18
BRANCH   1  26
HETATM   26  C2  UNL     1      16.575  -1.416  51.839  1.00  0.00     0.155 C 
HETATM   27  C1  UNL     1      16.745  -2.307  53.016  1.00  0.00     0.096 C 
HETATM   28  O1  UNL     1      15.532  -1.504  51.112  1.00  0.00    -0.293 OA
ENDBRANCH   1  26
TORSDOF 4
ENDMDL
MODEL 3
REMARK VINA RESULT:      -8.9      2.774      3.692
REMARK  4 active torsions:
REMARK  status: ('A' for Active; 'I' for Inactive)
REMARK    1  A    between atoms: C2_2  and  C3_4 
REMARK    2  A    between atoms: C13_14  and  O2_15 
REMARK    3  A    between atoms: O2_15  and  C14_16 
REMARK    4  A    between atoms: C14_16  and  C15_17 
ROOT
HETATM    1  C3  UNL     1      28.998   8.378  48.898  1.00  0.00     0.010 A 
HETATM    2  C4  UNL     1      28.383   9.363  49.642  1.00  0.00     0.017 A 
HETATM    3  C5  UNL     1      27.079   9.240  50.092  1.00  0.00     0.033 A 
HETATM    4  C6  UNL     1      26.398   8.083  49.771  1.00  0.00     0.064 A 
HETATM    5  C7  UNL     1      26.924   7.043  49.034  1.00  0.00    -0.024 A 
HETATM    6  C8  UNL     1      28.243   7.255  48.623  1.00  0.00     0.025 A 
HETATM    7  C9  UNL     1      26.524   5.713  48.514  1.00  0.00     0.082 C 
HETATM    8  C10 UNL     1      26.047   4.782  49.543  1.00  0.00    -0.027 A 
HETATM    9  C11 UNL     1      26.700   3.564  49.366  1.00  0.00     0.012 A 
HETATM   10  C12 UNL     1      26.425   2.511  50.213  1.00  0.00     0.037 A 
HETATM   11  C13 UNL     1      25.504   2.608  51.264  1.00  0.00     0.071 A 
HETATM   12  C20 UNL     1      24.878   3.832  51.407  1.00  0.00     0.066 A 
HETATM   13  C21 UNL     1      25.145   4.876  50.572  1.00  0.00     0.042 A 
HETATM   14  N1  UNL     1      24.288   5.896  51.091  1.00  0.00    -0.350 N 
HETATM   15  C22 UNL     1      24.252   7.321  50.867  1.00  0.00     0.208 C 
HETATM   16  N2  UNL     1      25.080   8.194  50.346  1.00  0.00    -0.244 NA
HETATM   17  H18 UNL     1      23.566   5.525  51.746  1.00  0.00     0.166 HD
ENDROOT
BRANCH  11  18
HETATM   18  O2  UNL     1      25.414   1.433  51.952  1.00  0.00    -0.347 OA
BRANCH  18  19
HETATM   19  C14 UNL     1      25.757   1.165  53.270  1.00  0.00     0.214 C 
BRANCH  19  20
HETATM   20  C15 UNL     1      27.183   0.794  53.399  1.00  0.00    -0.035 A 
HETATM   21  C16 UNL     1      28.361   1.340  53.649  1.00  0.00    -0.011 A 
HETATM   22  C17 UNL     1      29.475   0.342  53.631  1.00  0.00     0.098 A 
HETATM   23  C18 UNL     1      28.723  -0.914  53.322  1.00  0.00     0.098 A 
HETATM   24  F1  UNL     1      29.473  -2.030  53.236  1.00  0.00    -0.211 F 
HETATM   25  C19 UNL     1      27.434  -0.647  53.193  1.00  0.00     0.047 A 
ENDBRANCH  19  20
ENDBRANCH  18  19
ENDBRANCH  11  18
BRANCH   1  26
HETATM   26  C2  UNL     1      30.368   8.484  48.414  1.00  0.00     0.155 C 
HETATM   27  C1  UNL     1      30.636   8.395  46.955  1.00  0.00     0.096 C 
HETATM   28  O1  UNL     1      31.329   8.652  49.235  1.00  0.00    -0.293 OA
ENDBRANCH   1  26
TORSDOF 4
ENDMDL
MODEL 4
REMARK VINA RESULT:      -8.8      4.156      9.236
REMARK  4 active torsions:
REMARK  status: ('A' for Active; 'I' for Inactive)
REMARK    1  A    between atoms: C2_2  and  C3_4 
REMARK    2  A    between atoms: C13_14  and  O2_15 
REMARK    3  A    between atoms: O2_15  and  C14_16 
REMARK    4  A    between atoms: C14_16  and  C15_17 
ROOT
HETATM    1  C3  UNL     1      18.892  -0.121  52.262  1.00  0.00     0.010 A 
HETATM    2  C4  UNL     1      19.369  -0.637  53.449  1.00  0.00     0.017 A 
HETATM    3  C5  UNL     1      20.724  -0.774  53.700  1.00  0.00     0.033 A 
HETATM    4  C6  UNL     1      21.601  -0.370  52.715  1.00  0.00     0.064 A 
HETATM    5  C7  UNL     1      21.224   0.157  51.497  1.00  0.00    -0.024 A 
HETATM    6  C8  UNL     1      19.840   0.257  51.332  1.00  0.00     0.025 A 
HETATM    7  C9  UNL     1      21.841   0.676  50.252  1.00  0.00     0.082 C 
HETATM    8  C10 UNL     1      22.796   1.769  50.463  1.00  0.00    -0.027 A 
HETATM    9  C11 UNL     1      22.489   2.796  49.573  1.00  0.00     0.012 A 
HETATM   10  C12 UNL     1      23.247   3.948  49.569  1.00  0.00     0.037 A 
HETATM   11  C13 UNL     1      24.332   4.140  50.434  1.00  0.00     0.071 A 
HETATM   12  C20 UNL     1      24.605   3.100  51.301  1.00  0.00     0.066 A 
HETATM   13  C21 UNL     1      23.860   1.958  51.309  1.00  0.00     0.042 A 
HETATM   14  N1  UNL     1      24.497   1.196  52.338  1.00  0.00    -0.350 N 
HETATM   15  C22 UNL     1      24.075   0.018  53.055  1.00  0.00     0.208 C 
HETATM   16  N2  UNL     1      22.935  -0.610  53.210  1.00  0.00    -0.244 NA
HETATM   17  H18 UNL     1      25.432   1.576  52.604  1.00  0.00     0.166 HD
ENDROOT
BRANCH  11  18
HETATM   18  O2  UNL     1      24.914   5.359  50.233  1.00  0.00    -0.347 OA
BRANCH  18  19
HETATM   19  C14 UNL     1      25.251   5.978  49.038  1.00  0.00     0.214 C 
BRANCH  19  20
HETATM   20  C15 UNL     1      26.687   5.815  48.722  1.00  0.00    -0.035 A 
HETATM   21  C16 UNL     1      27.612   4.876  48.637  1.00  0.00    -0.011 A 
HETATM   22  C17 UNL     1      28.951   5.417  48.244  1.00  0.00     0.098 A 
HETATM   23  C18 UNL     1      28.636   6.874  48.111  1.00  0.00     0.098 A 
HETATM   24  F1  UNL     1      29.672   7.659  47.754  1.00  0.00    -0.211 F 
HETATM   25  C19 UNL     1      27.359   7.086  48.382  1.00  0.00     0.047 A 
ENDBRANCH  19  20
ENDBRANCH  18  19
ENDBRANCH  11  18
BRANCH   1  26
HETATM   26  C2  UNL     1      17.472   0.032  51.974  1.00  0.00     0.155 C 
HETATM   27  C1  UNL     1      17.044   0.489  50.626  1.00  0.00     0.096 C 
HETATM   28  O1  UNL     1      16.603  -0.223  52.872  1.00  0.00    -0.293 OA
ENDBRANCH   1  26
TORSDOF 4
ENDMDL
MODEL 5
REMARK VINA RESULT:      -8.7      3.413      8.683
REMARK  4 active torsions:
REMARK  status: ('A' for Active; 'I' for Inactive)
REMARK    1  A    between atoms: C2_2  and  C3_4 
REMARK    2  A    between atoms: C13_14  and  O2_15 
REMARK    3  A    between atoms: O2_15  and  C14_16 
REMARK    4  A    between atoms: C14_16  and  C15_17 
ROOT
HETATM    1  C3  UNL     1      23.403  -0.419  53.860  1.00  0.00     0.010 A 
HETATM    2  C4  UNL     1      24.747  -0.560  54.140  1.00  0.00     0.017 A 
HETATM    3  C5  UNL     1      25.725   0.073  53.391  1.00  0.00     0.033 A 
HETATM    4  C6  UNL     1      25.313   0.864  52.339  1.00  0.00     0.064 A 
HETATM    5  C7  UNL     1      23.997   1.068  51.979  1.00  0.00    -0.024 A 
HETATM    6  C8  UNL     1      23.082   0.391  52.789  1.00  0.00     0.025 A 
HETATM    7  C9  UNL     1      23.206   1.808  50.966  1.00  0.00     0.082 C 
HETATM    8  C10 UNL     1      23.470   3.250  50.929  1.00  0.00    -0.027 A 
HETATM    9  C11 UNL     1      22.249   3.918  50.940  1.00  0.00     0.012 A 
HETATM   10  C12 UNL     1      22.222   5.297  50.910  1.00  0.00     0.037 A 
HETATM   11  C13 UNL     1      23.388   6.073  50.869  1.00  0.00     0.071 A 
HETATM   12  C20 UNL     1      24.579   5.373  50.860  1.00  0.00     0.066 A 
HETATM   13  C21 UNL     1      24.611   4.011  50.889  1.00  0.00     0.042 A 
HETATM   14  N1  UNL     1      26.017   3.748  50.865  1.00  0.00    -0.350 N 
HETATM   15  C22 UNL     1      26.769   2.549  51.144  1.00  0.00     0.208 C 
HETATM   16  N2  UNL     1      26.502   1.405  51.725  1.00  0.00    -0.244 NA
HETATM   17  H18 UNL     1      26.581   4.583  50.597  1.00  0.00     0.166 HD
ENDROOT
BRANCH  11  18
HETATM   18  O2  UNL     1      23.093   7.406  50.846  1.00  0.00    -0.347 OA
BRANCH  18  19
HETATM   19  C14 UNL     1      23.256   8.318  49.813  1.00  0.00     0.214 C 
BRANCH  19  20
HETATM   20  C15 UNL     1      24.617   8.256  49.237  1.00  0.00    -0.035 A 
HETATM   21  C16 UNL     1      25.247   7.850  48.149  1.00  0.00    -0.011 A 
HETATM   22  C17 UNL     1      26.722   8.097  48.210  1.00  0.00     0.098 A 
HETATM   23  C18 UNL     1      26.844   8.736  49.557  1.00  0.00     0.098 A 
HETATM   24  F1  UNL     1      28.095   9.088  49.918  1.00  0.00    -0.211 F 
HETATM   25  C19 UNL     1      25.654   8.820  50.126  1.00  0.00     0.047 A 
ENDBRANCH  19  20
ENDBRANCH  18  19
ENDBRANCH  11  18
BRANCH   1  26
HETATM   26  C2  UNL     1      22.357  -1.074  54.632  1.00  0.00     0.155 C 
HETATM   27  C1  UNL     1      20.936  -0.903  54.230  1.00  0.00     0.096 C 
HETATM   28  O1  UNL     1      22.656  -1.788  55.646  1.00  0.00    -0.293 OA
ENDBRANCH   1  26
TORSDOF 4
ENDMDL
MODEL 6
REMARK VINA RESULT:      -8.7      1.555      2.178
REMARK  4 active torsions:
REMARK  status: ('A' for Active; 'I' for Inactive)
REMARK    1  A    between atoms: C2_2  and  C3_4 
REMARK    2  A    between atoms: C13_14  and  O2_15 
REMARK    3  A    between atoms: O2_15  and  C14_16 
REMARK    4  A    between atoms: C14_16  and  C15_17 
ROOT
HETATM    1  C3  UNL     1      28.859   8.469  48.947  1.00  0.00     0.010 A 
HETATM    2  C4  UNL     1      28.222   9.424  49.713  1.00  0.00     0.017 A 
HETATM    3  C5  UNL     1      26.924   9.257  50.167  1.00  0.00     0.033 A 
HETATM    4  C6  UNL     1      26.273   8.089  49.828  1.00  0.00     0.064 A 
HETATM    5  C7  UNL     1      26.821   7.077  49.068  1.00  0.00    -0.024 A 
HETATM    6  C8  UNL     1      28.132   7.332  48.655  1.00  0.00     0.025 A 
HETATM    7  C9  UNL     1      26.453   5.747  48.525  1.00  0.00     0.082 C 
HETATM    8  C10 UNL     1      26.007   4.785  49.538  1.00  0.00    -0.027 A 
HETATM    9  C11 UNL     1      26.690   3.588  49.335  1.00  0.00     0.012 A 
HETATM   10  C12 UNL     1      26.449   2.512  50.163  1.00  0.00     0.037 A 
HETATM   11  C13 UNL     1      25.531   2.565  51.220  1.00  0.00     0.071 A 
HETATM   12  C20 UNL     1      24.874   3.769  51.389  1.00  0.00     0.066 A 
HETATM   13  C21 UNL     1      25.109   4.835  50.573  1.00  0.00     0.042 A 
HETATM   14  N1  UNL     1      24.228   5.823  51.116  1.00  0.00    -0.350 N 
HETATM   15  C22 UNL     1      24.153   7.249  50.919  1.00  0.00     0.208 C 
HETATM   16  N2  UNL     1      24.955   8.155  50.412  1.00  0.00    -0.244 NA
HETATM   17  H18 UNL     1      23.519   5.419  51.768  1.00  0.00     0.166 HD
ENDROOT
BRANCH  11  18
HETATM   18  O2  UNL     1      25.476   1.375  51.886  1.00  0.00    -0.347 OA
BRANCH  18  19
HETATM   19  C14 UNL     1      24.947   1.101  53.140  1.00  0.00     0.214 C 
BRANCH  19  20
HETATM   20  C15 UNL     1      23.576   0.555  53.049  1.00  0.00    -0.035 A 
HETATM   21  C16 UNL     1      22.436   0.762  52.414  1.00  0.00    -0.011 A 
HETATM   22  C17 UNL     1      21.370  -0.211  52.809  1.00  0.00     0.098 A 
HETATM   23  C18 UNL     1      22.106  -1.043  53.811  1.00  0.00     0.098 A 
HETATM   24  F1  UNL     1      21.393  -2.041  54.370  1.00  0.00    -0.211 F 
HETATM   25  C19 UNL     1      23.347  -0.602  53.938  1.00  0.00     0.047 A 
ENDBRANCH  19  20
ENDBRANCH  18  19
ENDBRANCH  11  18
BRANCH   1  26
HETATM   26  C2  UNL     1      30.222   8.621  48.458  1.00  0.00     0.155 C 
HETATM   27  C1  UNL     1      31.356   8.150  49.296  1.00  0.00     0.096 C 
HETATM   28  O1  UNL     1      30.442   9.153  47.320  1.00  0.00    -0.293 OA
ENDBRANCH   1  26
TORSDOF 4
ENDMDL
MODEL 7
REMARK VINA RESULT:      -8.5      2.680      4.764
REMARK  4 active torsions:
REMARK  status: ('A' for Active; 'I' for Inactive)
REMARK    1  A    between atoms: C2_2  and  C3_4 
REMARK    2  A    between atoms: C13_14  and  O2_15 
REMARK    3  A    between atoms: O2_15  and  C14_16 
REMARK    4  A    between atoms: C14_16  and  C15_17 
ROOT
HETATM    1  C3  UNL     1      31.891   6.210  48.535  1.00  0.00     0.010 A 
HETATM    2  C4  UNL     1      32.277   7.398  49.123  1.00  0.00     0.017 A 
HETATM    3  C5  UNL     1      31.389   8.441  49.325  1.00  0.00     0.033 A 
HETATM    4  C6  UNL     1      30.083   8.258  48.918  1.00  0.00     0.064 A 
HETATM    5  C7  UNL     1      29.601   7.111  48.323  1.00  0.00    -0.024 A 
HETATM    6  C8  UNL     1      30.567   6.114  48.159  1.00  0.00     0.025 A 
HETATM    7  C9  UNL     1      28.332   6.571  47.778  1.00  0.00     0.082 C 
HETATM    8  C10 UNL     1      27.214   6.583  48.726  1.00  0.00    -0.027 A 
HETATM    9  C11 UNL     1      26.613   5.327  48.711  1.00  0.00     0.012 A 
HETATM   10  C12 UNL     1      25.527   5.078  49.523  1.00  0.00     0.037 A 
HETATM   11  C13 UNL     1      24.988   6.045  50.381  1.00  0.00     0.071 A 
HETATM   12  C20 UNL     1      25.612   7.278  50.368  1.00  0.00     0.066 A 
HETATM   13  C21 UNL     1      26.685   7.530  49.566  1.00  0.00     0.042 A 
HETATM   14  N1  UNL     1      26.979   8.893  49.886  1.00  0.00    -0.350 N 
HETATM   15  C22 UNL     1      28.137   9.710  49.617  1.00  0.00     0.208 C 
HETATM   16  N2  UNL     1      29.367   9.470  49.234  1.00  0.00    -0.244 NA
HETATM   17  H18 UNL     1      26.206   9.363  50.407  1.00  0.00     0.166 HD
ENDROOT
BRANCH  11  18
HETATM   18  O2  UNL     1      23.921   5.551  51.075  1.00  0.00    -0.347 OA
BRANCH  18  19
HETATM   19  C14 UNL     1      23.188   4.397  50.842  1.00  0.00     0.214 C 
BRANCH  19  20
HETATM   20  C15 UNL     1      23.606   3.293  51.733  1.00  0.00    -0.035 A 
HETATM   21  C16 UNL     1      24.684   2.820  52.334  1.00  0.00    -0.011 A 
HETATM   22  C17 UNL     1      24.402   1.592  53.141  1.00  0.00     0.098 A 
HETATM   23  C18 UNL     1      22.935   1.427  52.900  1.00  0.00     0.098 A 
HETATM   24  F1  UNL     1      22.363   0.372  53.513  1.00  0.00    -0.211 F 
HETATM   25  C19 UNL     1      22.498   2.390  52.106  1.00  0.00     0.047 A 
ENDBRANCH  19  20
ENDBRANCH  18  19
ENDBRANCH  11  18
BRANCH   1  26
HETATM   26  C2  UNL     1      32.806   5.099  48.311  1.00  0.00     0.155 C 
HETATM   27  C1  UNL     1      34.265   5.364  48.201  1.00  0.00     0.096 C 
HETATM   28  O1  UNL     1      32.360   3.909  48.210  1.00  0.00    -0.293 OA
ENDBRANCH   1  26
TORSDOF 4
ENDMDL
MODEL 8
REMARK VINA RESULT:      -8.4      3.354      4.074
REMARK  4 active torsions:
REMARK  status: ('A' for Active; 'I' for Inactive)
REMARK    1  A    between atoms: C2_2  and  C3_4 
REMARK    2  A    between atoms: C13_14  and  O2_15 
REMARK    3  A    between atoms: O2_15  and  C14_16 
REMARK    4  A    between atoms: C14_16  and  C15_17 
ROOT
HETATM    1  C3  UNL     1      24.488   7.418  48.277  1.00  0.00     0.010 A 
HETATM    2  C4  UNL     1      23.379   8.030  48.825  1.00  0.00     0.017 A 
HETATM    3  C5  UNL     1      22.492   7.350  49.642  1.00  0.00     0.033 A 
HETATM    4  C6  UNL     1      22.752   6.020  49.901  1.00  0.00     0.064 A 
HETATM    5  C7  UNL     1      23.830   5.320  49.402  1.00  0.00    -0.024 A 
HETATM    6  C8  UNL     1      24.669   6.086  48.588  1.00  0.00     0.025 A 
HETATM    7  C9  UNL     1      24.413   3.957  49.454  1.00  0.00     0.082 C 
HETATM    8  C10 UNL     1      24.686   3.469  50.809  1.00  0.00    -0.027 A 
HETATM    9  C11 UNL     1      25.981   2.959  50.838  1.00  0.00     0.012 A 
HETATM   10  C12 UNL     1      26.485   2.433  52.009  1.00  0.00     0.037 A 
HETATM   11  C13 UNL     1      25.742   2.385  53.196  1.00  0.00     0.071 A 
HETATM   12  C20 UNL     1      24.461   2.901  53.127  1.00  0.00     0.066 A 
HETATM   13  C21 UNL     1      23.959   3.421  51.972  1.00  0.00     0.042 A 
HETATM   14  N1  UNL     1      22.644   3.816  52.374  1.00  0.00    -0.350 N 
HETATM   15  C22 UNL     1      21.667   4.669  51.742  1.00  0.00     0.208 C 
HETATM   16  N2  UNL     1      21.699   5.543  50.765  1.00  0.00    -0.244 NA
HETATM   17  H18 UNL     1      22.358   3.404  53.289  1.00  0.00     0.166 HD
ENDROOT
BRANCH  11  18
HETATM   18  O2  UNL     1      26.463   1.821  54.208  1.00  0.00    -0.347 OA
BRANCH  18  19
HETATM   19  C14 UNL     1      26.409   0.524  54.699  1.00  0.00     0.214 C 
BRANCH  19  20
HETATM   20  C15 UNL     1      27.409  -0.350  54.048  1.00  0.00    -0.035 A 
HETATM   21  C16 UNL     1      27.493  -1.296  53.129  1.00  0.00    -0.011 A 
HETATM   22  C17 UNL     1      28.892  -1.792  52.937  1.00  0.00     0.098 A 
HETATM   23  C18 UNL     1      29.628  -0.947  53.928  1.00  0.00     0.098 A 
HETATM   24  F1  UNL     1      30.957  -1.163  53.998  1.00  0.00    -0.211 F 
HETATM   25  C19 UNL     1      28.784  -0.139  54.547  1.00  0.00     0.047 A 
ENDBRANCH  19  20
ENDBRANCH  18  19
ENDBRANCH  11  18
BRANCH   1  26
HETATM   26  C2  UNL     1      25.435   8.112  47.414  1.00  0.00     0.155 C 
HETATM   27  C1  UNL     1      25.141   8.244  45.964  1.00  0.00     0.096 C 
HETATM   28  O1  UNL     1      26.508   8.601  47.900  1.00  0.00    -0.293 OA
ENDBRANCH   1  26
TORSDOF 4
ENDMDL
MODEL 9
REMARK VINA RESULT:      -8.4      4.423      7.899
REMARK  4 active torsions:
REMARK  status: ('A' for Active; 'I' for Inactive)
REMARK    1  A    between atoms: C2_2  and  C3_4 
REMARK    2  A    between atoms: C13_14  and  O2_15 
REMARK    3  A    between atoms: O2_15  and  C14_16 
REMARK    4  A    between atoms: C14_16  and  C15_17 
ROOT
HETATM    1  C3  UNL     1      27.148   0.946  53.824  1.00  0.00     0.010 A 
HETATM    2  C4  UNL     1      26.652  -0.286  54.200  1.00  0.00     0.017 A 
HETATM    3  C5  UNL     1      25.318  -0.621  54.041  1.00  0.00     0.033 A 
HETATM    4  C6  UNL     1      24.482   0.326  53.485  1.00  0.00     0.064 A 
HETATM    5  C7  UNL     1      24.881   1.582  53.079  1.00  0.00    -0.024 A 
HETATM    6  C8  UNL     1      26.241   1.832  53.278  1.00  0.00     0.025 A 
HETATM    7  C9  UNL     1      24.306   2.807  52.471  1.00  0.00     0.082 C 
HETATM    8  C10 UNL     1      23.616   2.582  51.197  1.00  0.00    -0.027 A 
HETATM    9  C11 UNL     1      24.073   3.525  50.280  1.00  0.00     0.012 A 
HETATM   10  C12 UNL     1      23.574   3.528  48.994  1.00  0.00     0.037 A 
HETATM   11  C13 UNL     1      22.612   2.609  48.556  1.00  0.00     0.071 A 
HETATM   12  C20 UNL     1      22.184   1.689  49.495  1.00  0.00     0.066 A 
HETATM   13  C21 UNL     1      22.674   1.683  50.767  1.00  0.00     0.042 A 
HETATM   14  N1  UNL     1      21.960   0.590  51.353  1.00  0.00    -0.350 N 
HETATM   15  C22 UNL     1      22.171  -0.144  52.576  1.00  0.00     0.208 C 
HETATM   16  N2  UNL     1      23.163  -0.256  53.426  1.00  0.00    -0.244 NA
HETATM   17  H18 UNL     1      21.144   0.284  50.778  1.00  0.00     0.166 HD
ENDROOT
BRANCH  11  18
HETATM   18  O2  UNL     1      22.286   2.821  47.248  1.00  0.00    -0.347 OA
BRANCH  18  19
HETATM   19  C14 UNL     1      21.277   3.612  46.718  1.00  0.00     0.214 C 
BRANCH  19  20
HETATM   20  C15 UNL     1      21.793   4.915  46.247  1.00  0.00    -0.035 A 
HETATM   21  C16 UNL     1      22.356   6.017  46.710  1.00  0.00    -0.011 A 
HETATM   22  C17 UNL     1      22.645   7.015  45.633  1.00  0.00     0.098 A 
HETATM   23  C18 UNL     1      22.141   6.283  44.430  1.00  0.00     0.098 A 
HETATM   24  F1  UNL     1      22.264   6.941  43.260  1.00  0.00    -0.211 F 
HETATM   25  C19 UNL     1      21.663   5.103  44.787  1.00  0.00     0.047 A 
ENDBRANCH  19  20
ENDBRANCH  18  19
ENDBRANCH  11  18
BRANCH   1  26
HETATM   26  C2  UNL     1      28.547   1.322  53.981  1.00  0.00     0.155 C 
HETATM   27  C1  UNL     1      29.606   0.302  53.768  1.00  0.00     0.096 C 
HETATM   28  O1  UNL     1      28.859   2.516  54.300  1.00  0.00    -0.293 OA
ENDBRANCH   1  26
TORSDOF 4
ENDMDL
