MODEL 1
REMARK VINA RESULT:      -8.7      0.000      0.000
REMARK  4 active torsions:
REMARK  status: ('A' for Active; 'I' for Inactive)
REMARK    1  A    between atoms: C4_5  and  O1_6 
REMARK    2  A    between atoms: O1_6  and  C5_7 
REMARK    3  A    between atoms: C7_9  and  N2_10 
REMARK    4  A    between atoms: N2_10  and  C8_11 
ROOT
HETATM    1  C5  UNL     1      26.957   1.680  52.134  1.00  0.00     0.103 A 
HETATM    2  C6  UNL     1      26.058   0.780  52.655  1.00  0.00     0.089 A 
HETATM    3  C7  UNL     1      26.086   0.301  53.939  1.00  0.00     0.133 A 
HETATM    4  N3  UNL     1      27.082   0.781  54.686  1.00  0.00    -0.211 NA
HETATM    5  C14 UNL     1      28.009   1.656  54.284  1.00  0.00     0.160 A 
HETATM    6  C15 UNL     1      27.951   2.121  52.976  1.00  0.00     0.114 A 
HETATM    7  N4  UNL     1      28.980   2.574  53.858  1.00  0.00    -0.334 N 
HETATM    8  H14 UNL     1      29.816   3.216  53.870  1.00  0.00     0.168 HD
ENDROOT
BRANCH   3   9
HETATM    9  N2  UNL     1      25.114  -0.617  54.361  1.00  0.00    -0.341 N 
HETATM   10  H10 UNL     1      25.442  -1.417  54.981  1.00  0.00     0.167 HD
BRANCH   9  11
HETATM   11  C8  UNL     1      23.726  -0.639  54.078  1.00  0.00     0.035 A 
HETATM   12  C9  UNL     1      22.747  -1.119  54.914  1.00  0.00     0.032 A 
HETATM   13  C10 UNL     1      21.397  -1.144  54.644  1.00  0.00     0.046 A 
HETATM   14  C11 UNL     1      20.964  -0.651  53.437  1.00  0.00     0.138 A 
HETATM   15  F1  UNL     1      19.652  -0.655  53.126  1.00  0.00    -0.204 F 
HETATM   16  C12 UNL     1      21.891  -0.163  52.567  1.00  0.00     0.074 A 
HETATM   17 CL1  UNL     1      21.367   0.472  51.020  1.00  0.00    -0.081 Cl
HETATM   18  C13 UNL     1      23.228  -0.162  52.888  1.00  0.00     0.056 A 
ENDBRANCH   9  11
ENDBRANCH   3   9
BRANCH   1  19
HETATM   19  O1  UNL     1      26.872   2.124  50.831  1.00  0.00    -0.343 OA
BRANCH  19  20
HETATM   20  C4  UNL     1      26.152   3.284  50.543  1.00  0.00     0.132 C 
HETATM   21  C3  UNL     1      26.747   4.034  49.367  1.00  0.00     0.052 C 
HETATM   22  C2  UNL     1      26.097   5.374  49.294  1.00  0.00     0.119 C 
HETATM   23  N1  UNL     1      24.782   5.396  49.810  1.00  0.00    -0.416 N 
HETATM   24  C1  UNL     1      24.514   6.283  50.886  1.00  0.00     0.143 C 
HETATM   25  C17 UNL     1      23.998   4.224  49.715  1.00  0.00     0.119 C 
HETATM   26  C16 UNL     1      24.721   2.957  50.094  1.00  0.00     0.052 C 
ENDBRANCH  19  20
ENDBRANCH   1  19
TORSDOF 4
ENDMDL
MODEL 2
REMARK VINA RESULT:      -8.5      3.487      5.620
REMARK  4 active torsions:
REMARK  status: ('A' for Active; 'I' for Inactive)
REMARK    1  A    between atoms: C4_5  and  O1_6 
REMARK    2  A    between atoms: O1_6  and  C5_7 
REMARK    3  A    between atoms: C7_9  and  N2_10 
REMARK    4  A    between atoms: N2_10  and  C8_11 
ROOT
HETATM    1  C5  UNL     1      22.021  -0.174  52.554  1.00  0.00     0.103 A 
HETATM    2  C6  UNL     1      23.322  -0.239  52.993  1.00  0.00     0.089 A 
HETATM    3  C7  UNL     1      23.715  -0.753  54.202  1.00  0.00     0.133 A 
HETATM    4  N3  UNL     1      22.715  -1.207  54.960  1.00  0.00    -0.211 NA
HETATM    5  C14 UNL     1      21.419  -1.194  54.634  1.00  0.00     0.160 A 
HETATM    6  C15 UNL     1      21.055  -0.666  53.402  1.00  0.00     0.114 A 
HETATM    7  N4  UNL     1      20.060  -1.179  54.289  1.00  0.00    -0.334 N 
HETATM    8  H14 UNL     1      19.016  -1.315  54.349  1.00  0.00     0.168 HD
ENDROOT
BRANCH   3   9
HETATM    9  N2  UNL     1      25.075  -0.767  54.543  1.00  0.00    -0.341 N 
HETATM   10  H10 UNL     1      25.418  -1.589  55.125  1.00  0.00     0.167 HD
BRANCH   9  11
HETATM   11  C8  UNL     1      26.084   0.174  54.223  1.00  0.00     0.035 A 
HETATM   12  C9  UNL     1      25.894   1.525  54.058  1.00  0.00     0.032 A 
HETATM   13  C10 UNL     1      26.870   2.445  53.746  1.00  0.00     0.046 A 
HETATM   14  C11 UNL     1      28.158   1.998  53.580  1.00  0.00     0.138 A 
HETATM   15  F1  UNL     1      29.148   2.860  53.273  1.00  0.00    -0.204 F 
HETATM   16  C12 UNL     1      28.406   0.667  53.731  1.00  0.00     0.074 A 
HETATM   17 CL1  UNL     1      30.040   0.068  53.524  1.00  0.00    -0.081 Cl
HETATM   18  C13 UNL     1      27.392  -0.209  54.043  1.00  0.00     0.056 A 
ENDBRANCH   9  11
ENDBRANCH   3   9
BRANCH   1  19
HETATM   19  O1  UNL     1      21.692   0.356  51.324  1.00  0.00    -0.343 OA
BRANCH  19  20
HETATM   20  C4  UNL     1      22.342   1.505  50.872  1.00  0.00     0.132 C 
HETATM   21  C3  UNL     1      22.120   1.726  49.389  1.00  0.00     0.052 C 
HETATM   22  C2  UNL     1      23.049   2.800  48.935  1.00  0.00     0.119 C 
HETATM   23  N1  UNL     1      23.384   3.726  49.948  1.00  0.00    -0.416 N 
HETATM   24  C1  UNL     1      24.758   3.872  50.276  1.00  0.00     0.143 C 
HETATM   25  C17 UNL     1      22.436   3.993  50.961  1.00  0.00     0.119 C 
HETATM   26  C16 UNL     1      21.768   2.768  51.530  1.00  0.00     0.052 C 
ENDBRANCH  19  20
ENDBRANCH   1  19
TORSDOF 4
ENDMDL
MODEL 3
REMARK VINA RESULT:      -8.4      3.384      6.694
REMARK  4 active torsions:
REMARK  status: ('A' for Active; 'I' for Inactive)
REMARK    1  A    between atoms: C4_5  and  O1_6 
REMARK    2  A    between atoms: O1_6  and  C5_7 
REMARK    3  A    between atoms: C7_9  and  N2_10 
REMARK    4  A    between atoms: N2_10  and  C8_11 
ROOT
HETATM    1  C5  UNL     1      23.033   0.093  53.025  1.00  0.00     0.103 A 
HETATM    2  C6  UNL     1      23.093   1.063  52.053  1.00  0.00     0.089 A 
HETATM    3  C7  UNL     1      22.106   1.982  51.804  1.00  0.00     0.133 A 
HETATM    4  N3  UNL     1      21.038   1.875  52.596  1.00  0.00    -0.211 NA
HETATM    5  C14 UNL     1      20.875   0.973  53.570  1.00  0.00     0.160 A 
HETATM    6  C15 UNL     1      21.893   0.056  53.795  1.00  0.00     0.114 A 
HETATM    7  N4  UNL     1      20.707   0.026  54.590  1.00  0.00    -0.334 N 
HETATM    8  H14 UNL     1      20.274  -0.513  55.387  1.00  0.00     0.168 HD
ENDROOT
BRANCH   3   9
HETATM    9  N2  UNL     1      22.278   2.928  50.783  1.00  0.00    -0.341 N 
HETATM   10  H10 UNL     1      21.643   2.842  49.934  1.00  0.00     0.167 HD
BRANCH   9  11
HETATM   11  C8  UNL     1      23.196   4.005  50.710  1.00  0.00     0.035 A 
HETATM   12  C9  UNL     1      23.039   5.230  51.313  1.00  0.00     0.032 A 
HETATM   13  C10 UNL     1      23.927   6.281  51.246  1.00  0.00     0.046 A 
HETATM   14  C11 UNL     1      25.079   6.116  50.517  1.00  0.00     0.138 A 
HETATM   15  F1  UNL     1      25.978   7.116  50.421  1.00  0.00    -0.204 F 
HETATM   16  C12 UNL     1      25.287   4.922  49.897  1.00  0.00     0.074 A 
HETATM   17 CL1  UNL     1      26.749   4.683  48.960  1.00  0.00    -0.081 Cl
HETATM   18  C13 UNL     1      24.367   3.904  49.997  1.00  0.00     0.056 A 
ENDBRANCH   9  11
ENDBRANCH   3   9
BRANCH   1  19
HETATM   19  O1  UNL     1      24.062  -0.803  53.226  1.00  0.00    -0.343 OA
BRANCH  19  20
HETATM   20  C4  UNL     1      25.366  -0.332  53.388  1.00  0.00     0.132 C 
HETATM   21  C3  UNL     1      25.790  -0.352  54.843  1.00  0.00     0.052 C 
HETATM   22  C2  UNL     1      27.070   0.404  54.965  1.00  0.00     0.119 C 
HETATM   23  N1  UNL     1      27.857   0.381  53.791  1.00  0.00    -0.416 N 
HETATM   24  C1  UNL     1      28.180   1.626  53.192  1.00  0.00     0.143 C 
HETATM   25  C17 UNL     1      27.782  -0.752  52.949  1.00  0.00     0.119 C 
HETATM   26  C16 UNL     1      26.382  -1.244  52.687  1.00  0.00     0.052 C 
ENDBRANCH  19  20
ENDBRANCH   1  19
TORSDOF 4
ENDMDL
MODEL 4
REMARK VINA RESULT:      -8.2      3.762      7.266
REMARK  4 active torsions:
REMARK  status: ('A' for Active; 'I' for Inactive)
REMARK    1  A    between atoms: C4_5  and  O1_6 
REMARK    2  A    between atoms: O1_6  and  C5_7 
REMARK    3  A    between atoms: C7_9  and  N2_10 
REMARK    4  A    between atoms: N2_10  and  C8_11 
ROOT
HETATM    1  C5  UNL     1      23.706   0.849  52.365  1.00  0.00     0.103 A 
HETATM    2  C6  UNL     1      24.259   2.095  52.191  1.00  0.00     0.089 A 
HETATM    3  C7  UNL     1      23.653   3.135  51.534  1.00  0.00     0.133 A 
HETATM    4  N3  UNL     1      22.441   2.853  51.053  1.00  0.00    -0.211 NA
HETATM    5  C14 UNL     1      21.810   1.679  51.164  1.00  0.00     0.160 A 
HETATM    6  C15 UNL     1      22.453   0.647  51.835  1.00  0.00     0.114 A 
HETATM    7  N4  UNL     1      21.151   0.448  51.282  1.00  0.00    -0.334 N 
HETATM    8  H14 UNL     1      20.412  -0.299  51.190  1.00  0.00     0.168 HD
ENDROOT
BRANCH   3   9
HETATM    9  N2  UNL     1      24.316   4.365  51.418  1.00  0.00    -0.341 N 
HETATM   10  H10 UNL     1      24.064   5.117  52.127  1.00  0.00     0.167 HD
BRANCH   9  11
HETATM   11  C8  UNL     1      25.292   4.766  50.473  1.00  0.00     0.035 A 
HETATM   12  C9  UNL     1      26.257   3.955  49.927  1.00  0.00     0.032 A 
HETATM   13  C10 UNL     1      27.210   4.339  49.010  1.00  0.00     0.046 A 
HETATM   14  C11 UNL     1      27.217   5.645  48.586  1.00  0.00     0.138 A 
HETATM   15  F1  UNL     1      28.130   6.069  47.688  1.00  0.00    -0.204 F 
HETATM   16  C12 UNL     1      26.283   6.496  49.094  1.00  0.00     0.074 A 
HETATM   17 CL1  UNL     1      26.270   8.169  48.571  1.00  0.00    -0.081 Cl
HETATM   18  C13 UNL     1      25.354   6.059  50.009  1.00  0.00     0.056 A 
ENDBRANCH   9  11
ENDBRANCH   3   9
BRANCH   1  19
HETATM   19  O1  UNL     1      24.370  -0.156  53.038  1.00  0.00    -0.343 OA
BRANCH  19  20
HETATM   20  C4  UNL     1      25.730  -0.017  53.319  1.00  0.00     0.132 C 
HETATM   21  C3  UNL     1      26.010  -0.143  54.803  1.00  0.00     0.052 C 
HETATM   22  C2  UNL     1      27.419   0.278  55.048  1.00  0.00     0.119 C 
HETATM   23  N1  UNL     1      28.275   0.065  53.944  1.00  0.00    -0.416 N 
HETATM   24  C1  UNL     1      28.941   1.196  53.402  1.00  0.00     0.143 C 
HETATM   25  C17 UNL     1      28.000  -1.013  53.072  1.00  0.00     0.119 C 
HETATM   26  C16 UNL     1      26.550  -1.149  52.683  1.00  0.00     0.052 C 
ENDBRANCH  19  20
ENDBRANCH   1  19
TORSDOF 4
ENDMDL
MODEL 5
REMARK VINA RESULT:      -8.1      3.493      6.572
REMARK  4 active torsions:
REMARK  status: ('A' for Active; 'I' for Inactive)
REMARK    1  A    between atoms: C4_5  and  O1_6 
REMARK    2  A    between atoms: O1_6  and  C5_7 
REMARK    3  A    between atoms: C7_9  and  N2_10 
REMARK    4  A    between atoms: N2_10  and  C8_11 
ROOT
HETATM    1  C5  UNL     1      25.280   0.773  52.912  1.00  0.00     0.103 A 
HETATM    2  C6  UNL     1      25.421   1.365  51.680  1.00  0.00     0.089 A 
HETATM    3  C7  UNL     1      26.480   2.153  51.308  1.00  0.00     0.133 A 
HETATM    4  N3  UNL     1      27.406   2.318  52.254  1.00  0.00    -0.211 NA
HETATM    5  C14 UNL     1      27.370   1.791  53.482  1.00  0.00     0.160 A 
HETATM    6  C15 UNL     1      26.283   0.998  53.827  1.00  0.00     0.114 A 
HETATM    7  N4  UNL     1      27.330   1.236  54.769  1.00  0.00    -0.334 N 
HETATM    8  H14 UNL     1      27.605   0.994  55.758  1.00  0.00     0.168 HD
ENDROOT
BRANCH   3   9
HETATM    9  N2  UNL     1      26.516   2.706  50.019  1.00  0.00    -0.341 N 
HETATM   10  H10 UNL     1      26.549   2.025  49.203  1.00  0.00     0.167 HD
BRANCH   9  11
HETATM   11  C8  UNL     1      26.518   4.069  49.634  1.00  0.00     0.035 A 
HETATM   12  C9  UNL     1      27.434   4.662  48.799  1.00  0.00     0.032 A 
HETATM   13  C10 UNL     1      27.442   5.986  48.421  1.00  0.00     0.046 A 
HETATM   14  C11 UNL     1      26.456   6.809  48.908  1.00  0.00     0.138 A 
HETATM   15  F1  UNL     1      26.422   8.114  48.567  1.00  0.00    -0.204 F 
HETATM   16  C12 UNL     1      25.521   6.276  49.742  1.00  0.00     0.074 A 
HETATM   17 CL1  UNL     1      24.252   7.303  50.379  1.00  0.00    -0.081 Cl
HETATM   18  C13 UNL     1      25.560   4.945  50.087  1.00  0.00     0.056 A 
ENDBRANCH   9  11
ENDBRANCH   3   9
BRANCH   1  19
HETATM   19  O1  UNL     1      24.189  -0.011  53.224  1.00  0.00    -0.343 OA
BRANCH  19  20
HETATM   20  C4  UNL     1      22.901   0.486  53.016  1.00  0.00     0.132 C 
HETATM   21  C3  UNL     1      22.240  -0.162  51.816  1.00  0.00     0.052 C 
HETATM   22  C2  UNL     1      20.996   0.599  51.502  1.00  0.00     0.119 C 
HETATM   23  N1  UNL     1      20.416   1.226  52.627  1.00  0.00    -0.416 N 
HETATM   24  C1  UNL     1      20.258   2.636  52.586  1.00  0.00     0.143 C 
HETATM   25  C17 UNL     1      20.574   0.621  53.895  1.00  0.00     0.119 C 
HETATM   26  C16 UNL     1      21.972   0.142  54.189  1.00  0.00     0.052 C 
ENDBRANCH  19  20
ENDBRANCH   1  19
TORSDOF 4
ENDMDL
MODEL 6
REMARK VINA RESULT:      -8.1      3.967      5.355
REMARK  4 active torsions:
REMARK  status: ('A' for Active; 'I' for Inactive)
REMARK    1  A    between atoms: C4_5  and  O1_6 
REMARK    2  A    between atoms: O1_6  and  C5_7 
REMARK    3  A    between atoms: C7_9  and  N2_10 
REMARK    4  A    between atoms: N2_10  and  C8_11 
ROOT
HETATM    1  C5  UNL     1      25.186   4.512  50.069  1.00  0.00     0.103 A 
HETATM    2  C6  UNL     1      25.371   3.214  50.479  1.00  0.00     0.089 A 
HETATM    3  C7  UNL     1      24.805   2.659  51.597  1.00  0.00     0.133 A 
HETATM    4  N3  UNL     1      24.029   3.491  52.295  1.00  0.00    -0.211 NA
HETATM    5  C14 UNL     1      23.780   4.768  51.989  1.00  0.00     0.160 A 
HETATM    6  C15 UNL     1      24.370   5.299  50.849  1.00  0.00     0.114 A 
HETATM    7  N4  UNL     1      23.522   6.107  51.665  1.00  0.00    -0.334 N 
HETATM    8  H14 UNL     1      23.136   7.088  51.717  1.00  0.00     0.168 HD
ENDROOT
BRANCH   3   9
HETATM    9  N2  UNL     1      25.066   1.319  51.918  1.00  0.00    -0.341 N 
HETATM   10  H10 UNL     1      24.286   0.618  51.734  1.00  0.00     0.167 HD
BRANCH   9  11
HETATM   11  C8  UNL     1      26.241   0.745  52.464  1.00  0.00     0.035 A 
HETATM   12  C9  UNL     1      26.580  -0.585  52.409  1.00  0.00     0.032 A 
HETATM   13  C10 UNL     1      27.720  -1.149  52.938  1.00  0.00     0.046 A 
HETATM   14  C11 UNL     1      28.614  -0.330  53.583  1.00  0.00     0.138 A 
HETATM   15  F1  UNL     1      29.743  -0.835  54.118  1.00  0.00    -0.204 F 
HETATM   16  C12 UNL     1      28.329   0.999  53.669  1.00  0.00     0.074 A 
HETATM   17 CL1  UNL     1      29.451   2.068  54.486  1.00  0.00    -0.081 Cl
HETATM   18  C13 UNL     1      27.175   1.510  53.122  1.00  0.00     0.056 A 
ENDBRANCH   9  11
ENDBRANCH   3   9
BRANCH   1  19
HETATM   19  O1  UNL     1      25.785   5.010  48.930  1.00  0.00    -0.343 OA
BRANCH  19  20
HETATM   20  C4  UNL     1      26.371   6.277  48.957  1.00  0.00     0.132 C 
HETATM   21  C3  UNL     1      27.741   6.274  48.308  1.00  0.00     0.052 C 
HETATM   22  C2  UNL     1      28.402   7.575  48.610  1.00  0.00     0.119 C 
HETATM   23  N1  UNL     1      27.495   8.641  48.805  1.00  0.00    -0.416 N 
HETATM   24  C1  UNL     1      27.533   9.317  50.053  1.00  0.00     0.143 C 
HETATM   25  C17 UNL     1      26.264   8.618  48.110  1.00  0.00     0.119 C 
HETATM   26  C16 UNL     1      25.563   7.284  48.125  1.00  0.00     0.052 C 
ENDBRANCH  19  20
ENDBRANCH   1  19
TORSDOF 4
ENDMDL
MODEL 7
REMARK VINA RESULT:      -8.0      4.180      6.211
REMARK  4 active torsions:
REMARK  status: ('A' for Active; 'I' for Inactive)
REMARK    1  A    between atoms: C4_5  and  O1_6 
REMARK    2  A    between atoms: O1_6  and  C5_7 
REMARK    3  A    between atoms: C7_9  and  N2_10 
REMARK    4  A    between atoms: N2_10  and  C8_11 
ROOT
HETATM    1  C5  UNL     1      21.446   0.974  53.118  1.00  0.00     0.103 A 
HETATM    2  C6  UNL     1      22.710   1.178  52.617  1.00  0.00     0.089 A 
HETATM    3  C7  UNL     1      23.797   0.389  52.894  1.00  0.00     0.133 A 
HETATM    4  N3  UNL     1      23.544  -0.632  53.715  1.00  0.00    -0.211 NA
HETATM    5  C14 UNL     1      22.358  -0.923  54.258  1.00  0.00     0.160 A 
HETATM    6  C15 UNL     1      21.278  -0.103  53.957  1.00  0.00     0.114 A 
HETATM    7  N4  UNL     1      21.112  -1.224  54.826  1.00  0.00    -0.334 N 
HETATM    8  H14 UNL     1      20.367  -1.712  55.392  1.00  0.00     0.168 HD
ENDROOT
BRANCH   3   9
HETATM    9  N2  UNL     1      25.041   0.694  52.324  1.00  0.00    -0.341 N 
HETATM   10  H10 UNL     1      25.036   1.312  51.457  1.00  0.00     0.167 HD
BRANCH   9  11
HETATM   11  C8  UNL     1      26.335   0.292  52.738  1.00  0.00     0.035 A 
HETATM   12  C9  UNL     1      26.859  -0.972  52.608  1.00  0.00     0.032 A 
HETATM   13  C10 UNL     1      28.115  -1.369  53.010  1.00  0.00     0.046 A 
HETATM   14  C11 UNL     1      28.937  -0.438  53.595  1.00  0.00     0.138 A 
HETATM   15  F1  UNL     1      30.176  -0.779  54.005  1.00  0.00    -0.204 F 
HETATM   16  C12 UNL     1      28.470   0.832  53.750  1.00  0.00     0.074 A 
HETATM   17 CL1  UNL     1      29.498   2.041  54.494  1.00  0.00    -0.081 Cl
HETATM   18  C13 UNL     1      27.206   1.175  53.331  1.00  0.00     0.056 A 
ENDBRANCH   9  11
ENDBRANCH   3   9
BRANCH   1  19
HETATM   19  O1  UNL     1      20.393   1.806  52.799  1.00  0.00    -0.343 OA
BRANCH  19  20
HETATM   20  C4  UNL     1      20.339   2.398  51.537  1.00  0.00     0.132 C 
HETATM   21  C3  UNL     1      19.532   1.564  50.562  1.00  0.00     0.052 C 
HETATM   22  C2  UNL     1      19.742   2.114  49.193  1.00  0.00     0.119 C 
HETATM   23  N1  UNL     1      20.035   3.497  49.176  1.00  0.00    -0.416 N 
HETATM   24  C1  UNL     1      21.264   3.902  48.591  1.00  0.00     0.143 C 
HETATM   25  C17 UNL     1      19.491   4.316  50.191  1.00  0.00     0.119 C 
HETATM   26  C16 UNL     1      19.601   3.744  51.581  1.00  0.00     0.052 C 
ENDBRANCH  19  20
ENDBRANCH   1  19
TORSDOF 4
ENDMDL
MODEL 8
REMARK VINA RESULT:      -8.0      4.266      7.082
REMARK  4 active torsions:
REMARK  status: ('A' for Active; 'I' for Inactive)
REMARK    1  A    between atoms: C4_5  and  O1_6 
REMARK    2  A    between atoms: O1_6  and  C5_7 
REMARK    3  A    between atoms: C7_9  and  N2_10 
REMARK    4  A    between atoms: N2_10  and  C8_11 
ROOT
HETATM    1  C5  UNL     1      24.776   2.409  52.634  1.00  0.00     0.103 A 
HETATM    2  C6  UNL     1      25.144   2.788  51.365  1.00  0.00     0.089 A 
HETATM    3  C7  UNL     1      26.435   2.832  50.906  1.00  0.00     0.133 A 
HETATM    4  N3  UNL     1      27.354   2.468  51.803  1.00  0.00    -0.211 NA
HETATM    5  C14 UNL     1      27.109   2.083  53.060  1.00  0.00     0.160 A 
HETATM    6  C15 UNL     1      25.790   2.051  53.493  1.00  0.00     0.114 A 
HETATM    7  N4  UNL     1      26.848   1.680  54.377  1.00  0.00    -0.334 N 
HETATM    8  H14 UNL     1      27.004   1.349  55.366  1.00  0.00     0.168 HD
ENDROOT
BRANCH   3   9
HETATM    9  N2  UNL     1      26.692   3.236  49.588  1.00  0.00    -0.341 N 
HETATM   10  H10 UNL     1      26.816   2.467  48.863  1.00  0.00     0.167 HD
BRANCH   9  11
HETATM   11  C8  UNL     1      26.814   4.547  49.065  1.00  0.00     0.035 A 
HETATM   12  C9  UNL     1      25.804   5.475  48.988  1.00  0.00     0.032 A 
HETATM   13  C10 UNL     1      25.916   6.750  48.481  1.00  0.00     0.046 A 
HETATM   14  C11 UNL     1      27.138   7.156  48.002  1.00  0.00     0.138 A 
HETATM   15  F1  UNL     1      27.298   8.395  47.495  1.00  0.00    -0.204 F 
HETATM   16  C12 UNL     1      28.177   6.277  48.052  1.00  0.00     0.074 A 
HETATM   17 CL1  UNL     1      29.747   6.767  47.447  1.00  0.00    -0.081 Cl
HETATM   18  C13 UNL     1      28.009   5.014  48.569  1.00  0.00     0.056 A 
ENDBRANCH   9  11
ENDBRANCH   3   9
BRANCH   1  19
HETATM   19  O1  UNL     1      23.456   2.387  53.035  1.00  0.00    -0.343 OA
BRANCH  19  20
HETATM   20  C4  UNL     1      22.467   2.007  52.127  1.00  0.00     0.132 C 
HETATM   21  C3  UNL     1      21.953   0.609  52.411  1.00  0.00     0.052 C 
HETATM   22  C2  UNL     1      21.109   0.180  51.260  1.00  0.00     0.119 C 
HETATM   23  N1  UNL     1      20.488   1.253  50.581  1.00  0.00    -0.416 N 
HETATM   24  C1  UNL     1      20.773   1.410  49.199  1.00  0.00     0.143 C 
HETATM   25  C17 UNL     1      20.146   2.411  51.315  1.00  0.00     0.119 C 
HETATM   26  C16 UNL     1      21.222   2.898  52.252  1.00  0.00     0.052 C 
ENDBRANCH  19  20
ENDBRANCH   1  19
TORSDOF 4
ENDMDL
MODEL 9
REMARK VINA RESULT:      -8.0      2.564      4.983
REMARK  4 active torsions:
REMARK  status: ('A' for Active; 'I' for Inactive)
REMARK    1  A    between atoms: C4_5  and  O1_6 
REMARK    2  A    between atoms: O1_6  and  C5_7 
REMARK    3  A    between atoms: C7_9  and  N2_10 
REMARK    4  A    between atoms: N2_10  and  C8_11 
ROOT
HETATM    1  C5  UNL     1      24.989   1.001  52.176  1.00  0.00     0.103 A 
HETATM    2  C6  UNL     1      23.645   1.217  52.369  1.00  0.00     0.089 A 
HETATM    3  C7  UNL     1      22.999   2.400  52.117  1.00  0.00     0.133 A 
HETATM    4  N3  UNL     1      23.787   3.372  51.654  1.00  0.00    -0.211 NA
HETATM    5  C14 UNL     1      25.101   3.272  51.429  1.00  0.00     0.160 A 
HETATM    6  C15 UNL     1      25.724   2.060  51.695  1.00  0.00     0.114 A 
HETATM    7  N4  UNL     1      26.479   3.165  51.195  1.00  0.00    -0.334 N 
HETATM    8  H14 UNL     1      27.466   3.419  50.923  1.00  0.00     0.168 HD
ENDROOT
BRANCH   3   9
HETATM    9  N2  UNL     1      21.621   2.503  52.352  1.00  0.00    -0.341 N 
HETATM   10  H10 UNL     1      21.231   3.480  52.514  1.00  0.00     0.167 HD
BRANCH   9  11
HETATM   11  C8  UNL     1      20.646   1.476  52.409  1.00  0.00     0.035 A 
HETATM   12  C9  UNL     1      20.482   0.587  53.444  1.00  0.00     0.032 A 
HETATM   13  C10 UNL     1      19.537  -0.414  53.504  1.00  0.00     0.046 A 
HETATM   14  C11 UNL     1      18.670  -0.556  52.449  1.00  0.00     0.138 A 
HETATM   15  F1  UNL     1      17.728  -1.522  52.463  1.00  0.00    -0.204 F 
HETATM   16  C12 UNL     1      18.787   0.297  51.395  1.00  0.00     0.074 A 
HETATM   17 CL1  UNL     1      17.693   0.138  50.034  1.00  0.00    -0.081 Cl
HETATM   18  C13 UNL     1      19.749   1.280  51.385  1.00  0.00     0.056 A 
ENDBRANCH   9  11
ENDBRANCH   3   9
BRANCH   1  19
HETATM   19  O1  UNL     1      25.579  -0.216  52.449  1.00  0.00    -0.343 OA
BRANCH  19  20
HETATM   20  C4  UNL     1      26.871  -0.253  52.975  1.00  0.00     0.132 C 
HETATM   21  C3  UNL     1      26.867  -0.073  54.480  1.00  0.00     0.052 C 
HETATM   22  C2  UNL     1      28.274   0.142  54.926  1.00  0.00     0.119 C 
HETATM   23  N1  UNL     1      29.234  -0.470  54.090  1.00  0.00    -0.416 N 
HETATM   24  C1  UNL     1      30.210   0.368  53.487  1.00  0.00     0.143 C 
HETATM   25  C17 UNL     1      28.882  -1.658  53.411  1.00  0.00     0.119 C 
HETATM   26  C16 UNL     1      27.522  -1.627  52.762  1.00  0.00     0.052 C 
ENDBRANCH  19  20
ENDBRANCH   1  19
TORSDOF 4
ENDMDL
