MODEL 1
REMARK VINA RESULT:      -9.1      0.000      0.000
REMARK  2 active torsions:
REMARK  status: ('A' for Active; 'I' for Inactive)
REMARK    1  A    between atoms: N2_8  and  C7_9 
REMARK    2  A    between atoms: N3_10  and  C8_11 
ROOT
HETATM    1  C8  UNL     1      23.171   0.907  51.918  1.00  0.00     0.165 C 
HETATM    2  C9  UNL     1      22.777   0.135  53.111  1.00  0.00     0.003 C 
HETATM    3  C10 UNL     1      22.128  -0.365  54.228  1.00  0.00    -0.009 C 
HETATM    4  C11 UNL     1      20.788   0.359  54.586  1.00  0.00     0.150 C 
HETATM    5  N4  UNL     1      20.652   1.319  53.480  1.00  0.00    -0.354 N 
HETATM    6  C12 UNL     1      20.437   0.802  52.197  1.00  0.00     0.241 C 
HETATM    7  O1  UNL     1      20.304  -0.319  52.727  1.00  0.00    -0.269 OA
HETATM    8  C13 UNL     1      20.242   0.400  50.833  1.00  0.00     0.075 C 
HETATM    9  C14 UNL     1      20.726   1.507  50.346  1.00  0.00     0.017 C 
HETATM   10  C15 UNL     1      21.259   2.648  51.034  1.00  0.00    -0.027 A 
HETATM   11  C16 UNL     1      20.810   3.930  51.050  1.00  0.00     0.012 A 
HETATM   12  C17 UNL     1      21.480   4.910  51.744  1.00  0.00     0.001 A 
HETATM   13  C18 UNL     1      22.618   4.553  52.421  1.00  0.00     0.001 A 
HETATM   14  C19 UNL     1      23.038   3.246  52.377  1.00  0.00     0.010 A 
HETATM   15  C20 UNL     1      22.411   2.183  51.693  1.00  0.00    -0.020 A 
HETATM   16  H12 UNL     1      20.689   2.311  53.733  1.00  0.00     0.163 HD
ENDROOT
BRANCH   1  17
HETATM   17  N3  UNL     1      24.572   1.185  51.943  1.00  0.00    -0.269 NA
HETATM   18  C7  UNL     1      25.399   0.763  52.807  1.00  0.00     0.230 C 
BRANCH  18  19
HETATM   19  N2  UNL     1      26.756   0.757  53.230  1.00  0.00    -0.222 NA
HETATM   20  C6  UNL     1      27.442  -0.317  53.201  1.00  0.00     0.156 A 
HETATM   21  C2  UNL     1      28.822  -0.123  53.678  1.00  0.00    -0.010 A 
HETATM   22  N1  UNL     1      27.128  -1.636  52.802  1.00  0.00    -0.241 NA
HETATM   23  C1  UNL     1      29.291   1.042  54.092  1.00  0.00     0.047 C 
HETATM   24  C3  UNL     1      29.766  -1.231  53.723  1.00  0.00     0.012 A 
HETATM   25  C4  UNL     1      29.368  -2.424  53.325  1.00  0.00     0.020 A 
HETATM   26  C5  UNL     1      27.994  -2.565  52.862  1.00  0.00     0.119 A 
ENDBRANCH  18  19
ENDBRANCH   1  17
TORSDOF 2
ENDMDL
MODEL 2
REMARK VINA RESULT:      -9.0      1.917      3.375
REMARK  2 active torsions:
REMARK  status: ('A' for Active; 'I' for Inactive)
REMARK    1  A    between atoms: N2_8  and  C7_9 
REMARK    2  A    between atoms: N3_10  and  C8_11 
ROOT
HETATM    1  C8  UNL     1      23.909   2.840  52.224  1.00  0.00     0.165 C 
HETATM    2  C9  UNL     1      24.420   3.112  50.867  1.00  0.00     0.003 C 
HETATM    3  C10 UNL     1      24.563   3.283  49.500  1.00  0.00    -0.009 C 
HETATM    4  C11 UNL     1      23.267   3.014  48.666  1.00  0.00     0.150 C 
HETATM    5  N4  UNL     1      22.276   2.740  49.718  1.00  0.00    -0.354 N 
HETATM    6  C12 UNL     1      21.929   3.795  50.571  1.00  0.00     0.241 C 
HETATM    7  O1  UNL     1      22.593   4.545  49.828  1.00  0.00    -0.269 OA
HETATM    8  C13 UNL     1      21.510   4.781  51.526  1.00  0.00     0.075 C 
HETATM    9  C14 UNL     1      21.142   3.897  52.409  1.00  0.00     0.017 C 
HETATM   10  C15 UNL     1      21.205   2.466  52.345  1.00  0.00    -0.027 A 
HETATM   11  C16 UNL     1      20.194   1.558  52.367  1.00  0.00     0.012 A 
HETATM   12  C17 UNL     1      20.449   0.207  52.334  1.00  0.00     0.001 A 
HETATM   13  C18 UNL     1      21.758  -0.197  52.278  1.00  0.00     0.001 A 
HETATM   14  C19 UNL     1      22.750   0.753  52.257  1.00  0.00     0.010 A 
HETATM   15  C20 UNL     1      22.574   2.153  52.287  1.00  0.00    -0.020 A 
HETATM   16  H12 UNL     1      21.877   1.797  49.732  1.00  0.00     0.163 HD
ENDROOT
BRANCH   1  17
HETATM   17  N3  UNL     1      24.866   2.092  52.977  1.00  0.00    -0.269 NA
HETATM   18  C7  UNL     1      26.080   1.908  52.663  1.00  0.00     0.230 C 
BRANCH  18  19
HETATM   19  N2  UNL     1      27.312   1.304  53.035  1.00  0.00    -0.222 NA
HETATM   20  C6  UNL     1      27.471   0.043  52.944  1.00  0.00     0.156 A 
HETATM   21  C2  UNL     1      28.810  -0.394  53.375  1.00  0.00    -0.010 A 
HETATM   22  N1  UNL     1      26.615  -0.996  52.514  1.00  0.00    -0.241 NA
HETATM   23  C1  UNL     1      29.741   0.439  53.808  1.00  0.00     0.047 C 
HETATM   24  C3  UNL     1      29.190  -1.800  53.347  1.00  0.00     0.012 A 
HETATM   25  C4  UNL     1      28.311  -2.689  52.925  1.00  0.00     0.020 A 
HETATM   26  C5  UNL     1      27.000  -2.208  52.511  1.00  0.00     0.119 A 
ENDBRANCH  18  19
ENDBRANCH   1  17
TORSDOF 2
ENDMDL
MODEL 3
REMARK VINA RESULT:      -8.7      9.249     12.547
REMARK  2 active torsions:
REMARK  status: ('A' for Active; 'I' for Inactive)
REMARK    1  A    between atoms: N2_8  and  C7_9 
REMARK    2  A    between atoms: N3_10  and  C8_11 
ROOT
HETATM    1  C8  UNL     1      31.885   6.011  47.205  1.00  0.00     0.165 C 
HETATM    2  C9  UNL     1      32.328   7.209  47.943  1.00  0.00     0.003 C 
HETATM    3  C10 UNL     1      33.061   8.248  48.493  1.00  0.00    -0.009 C 
HETATM    4  C11 UNL     1      34.577   8.257  48.105  1.00  0.00     0.150 C 
HETATM    5  N4  UNL     1      34.660   7.129  47.164  1.00  0.00    -0.354 N 
HETATM    6  C12 UNL     1      33.987   7.256  45.942  1.00  0.00     0.241 C 
HETATM    7  O1  UNL     1      33.766   8.445  46.246  1.00  0.00    -0.269 OA
HETATM    8  C13 UNL     1      33.320   7.248  44.671  1.00  0.00     0.075 C 
HETATM    9  C14 UNL     1      33.294   5.948  44.594  1.00  0.00     0.017 C 
HETATM   10  C15 UNL     1      33.774   4.971  45.528  1.00  0.00    -0.027 A 
HETATM   11  C16 UNL     1      34.753   4.042  45.373  1.00  0.00     0.012 A 
HETATM   12  C17 UNL     1      35.055   3.152  46.377  1.00  0.00     0.001 A 
HETATM   13  C18 UNL     1      34.336   3.231  47.542  1.00  0.00     0.001 A 
HETATM   14  C19 UNL     1      33.354   4.185  47.657  1.00  0.00     0.010 A 
HETATM   15  C20 UNL     1      32.984   5.133  46.680  1.00  0.00    -0.020 A 
HETATM   16  H12 UNL     1      35.240   6.337  47.454  1.00  0.00     0.163 HD
ENDROOT
BRANCH   1  17
HETATM   17  N3  UNL     1      30.995   5.232  48.007  1.00  0.00    -0.269 NA
HETATM   18  C7  UNL     1      29.728   5.307  48.001  1.00  0.00     0.230 C 
BRANCH  18  19
HETATM   19  N2  UNL     1      28.519   4.805  48.552  1.00  0.00    -0.222 NA
HETATM   20  C6  UNL     1      27.455   5.506  48.530  1.00  0.00     0.156 A 
HETATM   21  C2  UNL     1      26.308   4.818  49.148  1.00  0.00    -0.010 A 
HETATM   22  N1  UNL     1      27.176   6.800  48.033  1.00  0.00    -0.241 NA
HETATM   23  C1  UNL     1      26.382   3.604  49.666  1.00  0.00     0.047 C 
HETATM   24  C3  UNL     1      24.999   5.453  49.223  1.00  0.00     0.012 A 
HETATM   25  C4  UNL     1      24.849   6.665  48.726  1.00  0.00     0.020 A 
HETATM   26  C5  UNL     1      26.013   7.305  48.126  1.00  0.00     0.119 A 
ENDBRANCH  18  19
ENDBRANCH   1  17
TORSDOF 2
ENDMDL
MODEL 4
REMARK VINA RESULT:      -8.6      2.350      2.790
REMARK  2 active torsions:
REMARK  status: ('A' for Active; 'I' for Inactive)
REMARK    1  A    between atoms: N2_8  and  C7_9 
REMARK    2  A    between atoms: N3_10  and  C8_11 
ROOT
HETATM    1  C8  UNL     1      23.573   2.384  50.398  1.00  0.00     0.165 C 
HETATM    2  C9  UNL     1      22.677   2.444  51.568  1.00  0.00     0.003 C 
HETATM    3  C10 UNL     1      21.616   2.663  52.432  1.00  0.00    -0.009 C 
HETATM    4  C11 UNL     1      20.383   3.379  51.789  1.00  0.00     0.150 C 
HETATM    5  N4  UNL     1      20.793   3.491  50.380  1.00  0.00    -0.354 N 
HETATM    6  C12 UNL     1      20.928   2.304  49.649  1.00  0.00     0.241 C 
HETATM    7  O1  UNL     1      20.432   1.708  50.624  1.00  0.00    -0.269 OA
HETATM    8  C13 UNL     1      21.130   1.165  48.800  1.00  0.00     0.075 C 
HETATM    9  C14 UNL     1      21.935   1.797  47.994  1.00  0.00     0.017 C 
HETATM   10  C15 UNL     1      22.401   3.152  48.053  1.00  0.00    -0.027 A 
HETATM   11  C16 UNL     1      22.205   4.168  47.172  1.00  0.00     0.012 A 
HETATM   12  C17 UNL     1      22.769   5.406  47.376  1.00  0.00     0.001 A 
HETATM   13  C18 UNL     1      23.536   5.584  48.499  1.00  0.00     0.001 A 
HETATM   14  C19 UNL     1      23.709   4.531  49.363  1.00  0.00     0.010 A 
HETATM   15  C20 UNL     1      23.168   3.235  49.228  1.00  0.00    -0.020 A 
HETATM   16  H12 UNL     1      20.918   4.441  50.018  1.00  0.00     0.163 HD
ENDROOT
BRANCH   1  17
HETATM   17  N3  UNL     1      24.913   2.705  50.779  1.00  0.00    -0.269 NA
HETATM   18  C7  UNL     1      25.558   2.186  51.740  1.00  0.00     0.230 C 
BRANCH  18  19
HETATM   19  N2  UNL     1      26.785   2.165  52.455  1.00  0.00    -0.222 NA
HETATM   20  C6  UNL     1      27.364   1.060  52.721  1.00  0.00     0.156 A 
HETATM   21  C2  UNL     1      28.621   1.242  53.468  1.00  0.00    -0.010 A 
HETATM   22  N1  UNL     1      27.027  -0.283  52.437  1.00  0.00    -0.241 NA
HETATM   23  C1  UNL     1      29.091   2.426  53.821  1.00  0.00     0.047 C 
HETATM   24  C3  UNL     1      29.431   0.100  53.867  1.00  0.00     0.012 A 
HETATM   25  C4  UNL     1      29.024  -1.114  53.549  1.00  0.00     0.020 A 
HETATM   26  C5  UNL     1      27.774  -1.242  52.811  1.00  0.00     0.119 A 
ENDBRANCH  18  19
ENDBRANCH   1  17
TORSDOF 2
ENDMDL
MODEL 5
REMARK VINA RESULT:      -8.6      3.357      7.188
REMARK  2 active torsions:
REMARK  status: ('A' for Active; 'I' for Inactive)
REMARK    1  A    between atoms: N2_8  and  C7_9 
REMARK    2  A    between atoms: N3_10  and  C8_11 
ROOT
HETATM    1  C8  UNL     1      23.462   2.771  49.835  1.00  0.00     0.165 C 
HETATM    2  C9  UNL     1      22.830   4.092  50.010  1.00  0.00     0.003 C 
HETATM    3  C10 UNL     1      22.523   5.390  50.383  1.00  0.00    -0.009 C 
HETATM    4  C11 UNL     1      23.565   6.063  51.334  1.00  0.00     0.150 C 
HETATM    5  N4  UNL     1      24.609   5.031  51.426  1.00  0.00    -0.354 N 
HETATM    6  C12 UNL     1      25.335   4.739  50.264  1.00  0.00     0.241 C 
HETATM    7  O1  UNL     1      24.770   5.713  49.729  1.00  0.00    -0.269 OA
HETATM    8  C13 UNL     1      26.128   4.328  49.141  1.00  0.00     0.075 C 
HETATM    9  C14 UNL     1      26.399   3.159  49.649  1.00  0.00     0.017 C 
HETATM   10  C15 UNL     1      25.975   2.587  50.894  1.00  0.00    -0.027 A 
HETATM   11  C16 UNL     1      26.721   2.202  51.962  1.00  0.00     0.012 A 
HETATM   12  C17 UNL     1      26.138   1.631  53.068  1.00  0.00     0.001 A 
HETATM   13  C18 UNL     1      24.777   1.461  53.061  1.00  0.00     0.001 A 
HETATM   14  C19 UNL     1      24.061   1.864  51.961  1.00  0.00     0.010 A 
HETATM   15  C20 UNL     1      24.579   2.457  50.790  1.00  0.00    -0.020 A 
HETATM   16  H12 UNL     1      24.760   4.618  52.351  1.00  0.00     0.163 HD
ENDROOT
BRANCH   1  17
HETATM   17  N3  UNL     1      22.480   1.735  49.894  1.00  0.00    -0.269 NA
HETATM   18  C7  UNL     1      21.233   1.900  50.053  1.00  0.00     0.230 C 
BRANCH  18  19
HETATM   19  N2  UNL     1      19.968   1.263  50.170  1.00  0.00    -0.222 NA
HETATM   20  C6  UNL     1      19.681   0.572  51.202  1.00  0.00     0.156 A 
HETATM   21  C2  UNL     1      18.329  -0.009  51.139  1.00  0.00    -0.010 A 
HETATM   22  N1  UNL     1      20.408   0.264  52.374  1.00  0.00    -0.241 NA
HETATM   23  C1  UNL     1      17.507   0.172  50.119  1.00  0.00     0.047 C 
HETATM   24  C3  UNL     1      17.812  -0.834  52.222  1.00  0.00     0.012 A 
HETATM   25  C4  UNL     1      18.576  -1.057  53.274  1.00  0.00     0.020 A 
HETATM   26  C5  UNL     1      19.905  -0.462  53.289  1.00  0.00     0.119 A 
ENDBRANCH  18  19
ENDBRANCH   1  17
TORSDOF 2
ENDMDL
MODEL 6
REMARK VINA RESULT:      -8.5      3.219      5.717
REMARK  2 active torsions:
REMARK  status: ('A' for Active; 'I' for Inactive)
REMARK    1  A    between atoms: N2_8  and  C7_9 
REMARK    2  A    between atoms: N3_10  and  C8_11 
ROOT
HETATM    1  C8  UNL     1      22.438   2.836  52.190  1.00  0.00     0.165 C 
HETATM    2  C9  UNL     1      21.782   2.725  50.874  1.00  0.00     0.003 C 
HETATM    3  C10 UNL     1      21.215   2.270  49.695  1.00  0.00    -0.009 C 
HETATM    4  C11 UNL     1      21.219   0.715  49.523  1.00  0.00     0.150 C 
HETATM    5  N4  UNL     1      21.786   0.266  50.804  1.00  0.00    -0.354 N 
HETATM    6  C12 UNL     1      21.027   0.487  51.960  1.00  0.00     0.241 C 
HETATM    7  O1  UNL     1      20.095   0.852  51.216  1.00  0.00    -0.269 OA
HETATM    8  C13 UNL     1      20.364   0.680  53.218  1.00  0.00     0.075 C 
HETATM    9  C14 UNL     1      21.467   0.620  53.908  1.00  0.00     0.017 C 
HETATM   10  C15 UNL     1      22.816   0.443  53.454  1.00  0.00    -0.027 A 
HETATM   11  C16 UNL     1      23.684  -0.570  53.710  1.00  0.00     0.012 A 
HETATM   12  C17 UNL     1      24.966  -0.551  53.214  1.00  0.00     0.001 A 
HETATM   13  C18 UNL     1      25.344   0.525  52.452  1.00  0.00     0.001 A 
HETATM   14  C19 UNL     1      24.435   1.528  52.219  1.00  0.00     0.010 A 
HETATM   15  C20 UNL     1      23.106   1.585  52.687  1.00  0.00    -0.020 A 
HETATM   16  H12 UNL     1      22.689  -0.215  50.758  1.00  0.00     0.163 HD
ENDROOT
BRANCH   1  17
HETATM   17  N3  UNL     1      23.381   3.910  52.189  1.00  0.00    -0.269 NA
HETATM   18  C7  UNL     1      23.567   4.736  51.244  1.00  0.00     0.230 C 
BRANCH  18  19
HETATM   19  N2  UNL     1      24.305   5.865  50.799  1.00  0.00    -0.222 NA
HETATM   20  C6  UNL     1      25.345   5.718  50.076  1.00  0.00     0.156 A 
HETATM   21  C2  UNL     1      25.974   7.001  49.716  1.00  0.00    -0.010 A 
HETATM   22  N1  UNL     1      25.996   4.572  49.567  1.00  0.00    -0.241 NA
HETATM   23  C1  UNL     1      25.503   8.174  50.104  1.00  0.00     0.047 C 
HETATM   24  C3  UNL     1      27.175   7.047  48.895  1.00  0.00     0.012 A 
HETATM   25  C4  UNL     1      27.701   5.914  48.470  1.00  0.00     0.020 A 
HETATM   26  C5  UNL     1      27.044   4.672  48.853  1.00  0.00     0.119 A 
ENDBRANCH  18  19
ENDBRANCH   1  17
TORSDOF 2
ENDMDL
MODEL 7
REMARK VINA RESULT:      -8.4      5.125      6.947
REMARK  2 active torsions:
REMARK  status: ('A' for Active; 'I' for Inactive)
REMARK    1  A    between atoms: N2_8  and  C7_9 
REMARK    2  A    between atoms: N3_10  and  C8_11 
ROOT
HETATM    1  C8  UNL     1      25.356   3.431  50.376  1.00  0.00     0.165 C 
HETATM    2  C9  UNL     1      24.284   3.205  49.388  1.00  0.00     0.003 C 
HETATM    3  C10 UNL     1      23.156   2.768  48.713  1.00  0.00    -0.009 C 
HETATM    4  C11 UNL     1      22.288   1.726  49.492  1.00  0.00     0.150 C 
HETATM    5  N4  UNL     1      22.987   1.648  50.784  1.00  0.00    -0.354 N 
HETATM    6  C12 UNL     1      22.976   2.789  51.596  1.00  0.00     0.241 C 
HETATM    7  O1  UNL     1      22.164   3.289  50.792  1.00  0.00    -0.269 OA
HETATM    8  C13 UNL     1      23.062   3.895  52.506  1.00  0.00     0.075 C 
HETATM    9  C14 UNL     1      24.141   3.449  53.084  1.00  0.00     0.017 C 
HETATM   10  C15 UNL     1      24.899   2.264  52.804  1.00  0.00    -0.027 A 
HETATM   11  C16 UNL     1      25.136   1.187  53.598  1.00  0.00     0.012 A 
HETATM   12  C17 UNL     1      25.928   0.148  53.170  1.00  0.00     0.001 A 
HETATM   13  C18 UNL     1      26.474   0.232  51.915  1.00  0.00     0.001 A 
HETATM   14  C19 UNL     1      26.211   1.339  51.146  1.00  0.00     0.010 A 
HETATM   15  C20 UNL     1      25.411   2.444  51.507  1.00  0.00    -0.020 A 
HETATM   16  H12 UNL     1      23.408   0.744  51.019  1.00  0.00     0.163 HD
ENDROOT
BRANCH   1  17
HETATM   17  N3  UNL     1      26.628   3.485  49.728  1.00  0.00    -0.269 NA
HETATM   18  C7  UNL     1      27.206   4.534  49.310  1.00  0.00     0.230 C 
BRANCH  18  19
HETATM   19  N2  UNL     1      28.356   5.064  48.666  1.00  0.00    -0.222 NA
HETATM   20  C6  UNL     1      28.303   6.182  48.057  1.00  0.00     0.156 A 
HETATM   21  C2  UNL     1      29.591   6.563  47.453  1.00  0.00    -0.010 A 
HETATM   22  N1  UNL     1      27.254   7.108  47.858  1.00  0.00    -0.241 NA
HETATM   23  C1  UNL     1      30.681   5.820  47.537  1.00  0.00     0.047 C 
HETATM   24  C3  UNL     1      29.737   7.809  46.712  1.00  0.00     0.012 A 
HETATM   25  C4  UNL     1      28.691   8.602  46.587  1.00  0.00     0.020 A 
HETATM   26  C5  UNL     1      27.439   8.182  47.201  1.00  0.00     0.119 A 
ENDBRANCH  18  19
ENDBRANCH   1  17
TORSDOF 2
ENDMDL
MODEL 8
REMARK VINA RESULT:      -8.4      4.076      5.850
REMARK  2 active torsions:
REMARK  status: ('A' for Active; 'I' for Inactive)
REMARK    1  A    between atoms: N2_8  and  C7_9 
REMARK    2  A    between atoms: N3_10  and  C8_11 
ROOT
HETATM    1  C8  UNL     1      25.144   4.880  50.039  1.00  0.00     0.165 C 
HETATM    2  C9  UNL     1      26.247   5.541  49.315  1.00  0.00     0.003 C 
HETATM    3  C10 UNL     1      27.012   6.350  48.492  1.00  0.00    -0.009 C 
HETATM    4  C11 UNL     1      26.196   7.376  47.638  1.00  0.00     0.150 C 
HETATM    5  N4  UNL     1      24.823   7.151  48.117  1.00  0.00    -0.354 N 
HETATM    6  C12 UNL     1      24.536   7.495  49.445  1.00  0.00     0.241 C 
HETATM    7  O1  UNL     1      25.670   8.012  49.501  1.00  0.00    -0.269 OA
HETATM    8  C13 UNL     1      24.122   7.778  50.789  1.00  0.00     0.075 C 
HETATM    9  C14 UNL     1      23.128   6.937  50.753  1.00  0.00     0.017 C 
HETATM   10  C15 UNL     1      22.709   6.069  49.691  1.00  0.00    -0.027 A 
HETATM   11  C16 UNL     1      21.540   6.059  48.999  1.00  0.00     0.012 A 
HETATM   12  C17 UNL     1      21.295   5.116  48.028  1.00  0.00     0.001 A 
HETATM   13  C18 UNL     1      22.269   4.183  47.780  1.00  0.00     0.001 A 
HETATM   14  C19 UNL     1      23.436   4.228  48.504  1.00  0.00     0.010 A 
HETATM   15  C20 UNL     1      23.766   5.159  49.511  1.00  0.00    -0.020 A 
HETATM   16  H12 UNL     1      24.155   6.789  47.431  1.00  0.00     0.163 HD
ENDROOT
BRANCH   1  17
HETATM   17  N3  UNL     1      25.358   3.468  50.090  1.00  0.00    -0.269 NA
HETATM   18  C7  UNL     1      25.836   2.822  51.072  1.00  0.00     0.230 C 
BRANCH  18  19
HETATM   19  N2  UNL     1      26.209   1.545  51.568  1.00  0.00    -0.222 NA
HETATM   20  C6  UNL     1      27.185   1.421  52.379  1.00  0.00     0.156 A 
HETATM   21  C2  UNL     1      27.419   0.023  52.779  1.00  0.00    -0.010 A 
HETATM   22  N1  UNL     1      28.070   2.362  52.953  1.00  0.00    -0.241 NA
HETATM   23  C1  UNL     1      26.690  -0.990  52.341  1.00  0.00     0.047 C 
HETATM   24  C3  UNL     1      28.491  -0.328  53.701  1.00  0.00     0.012 A 
HETATM   25  C4  UNL     1      29.259   0.632  54.180  1.00  0.00     0.020 A 
HETATM   26  C5  UNL     1      28.989   1.998  53.753  1.00  0.00     0.119 A 
ENDBRANCH  18  19
ENDBRANCH   1  17
TORSDOF 2
ENDMDL
MODEL 9
REMARK VINA RESULT:      -8.4      8.854     12.148
REMARK  2 active torsions:
REMARK  status: ('A' for Active; 'I' for Inactive)
REMARK    1  A    between atoms: N2_8  and  C7_9 
REMARK    2  A    between atoms: N3_10  and  C8_11 
ROOT
HETATM    1  C8  UNL     1      32.177   5.609  48.346  1.00  0.00     0.165 C 
HETATM    2  C9  UNL     1      31.977   4.739  47.172  1.00  0.00     0.003 C 
HETATM    3  C10 UNL     1      32.105   4.063  45.970  1.00  0.00    -0.009 C 
HETATM    4  C11 UNL     1      33.408   4.389  45.169  1.00  0.00     0.150 C 
HETATM    5  N4  UNL     1      34.115   5.296  46.087  1.00  0.00    -0.354 N 
HETATM    6  C12 UNL     1      34.574   4.761  47.298  1.00  0.00     0.241 C 
HETATM    7  O1  UNL     1      34.250   3.638  46.865  1.00  0.00    -0.269 OA
HETATM    8  C13 UNL     1      35.069   4.346  48.580  1.00  0.00     0.075 C 
HETATM    9  C14 UNL     1      35.054   5.551  49.074  1.00  0.00     0.017 C 
HETATM   10  C15 UNL     1      34.643   6.781  48.461  1.00  0.00    -0.027 A 
HETATM   11  C16 UNL     1      35.375   7.892  48.189  1.00  0.00     0.012 A 
HETATM   12  C17 UNL     1      34.796   9.005  47.626  1.00  0.00     0.001 A 
HETATM   13  C18 UNL     1      33.455   8.959  47.347  1.00  0.00     0.001 A 
HETATM   14  C19 UNL     1      32.752   7.816  47.639  1.00  0.00     0.010 A 
HETATM   15  C20 UNL     1      33.267   6.635  48.213  1.00  0.00    -0.020 A 
HETATM   16  H12 UNL     1      34.255   6.256  45.760  1.00  0.00     0.163 HD
ENDROOT
BRANCH   1  17
HETATM   17  N3  UNL     1      30.954   6.258  48.701  1.00  0.00    -0.269 NA
HETATM   18  C7  UNL     1      29.817   6.035  48.185  1.00  0.00     0.230 C 
BRANCH  18  19
HETATM   19  N2  UNL     1      28.438   6.379  48.187  1.00  0.00    -0.222 NA
HETATM   20  C6  UNL     1      27.563   5.552  48.605  1.00  0.00     0.156 A 
HETATM   21  C2  UNL     1      26.192   6.087  48.528  1.00  0.00    -0.010 A 
HETATM   22  N1  UNL     1      27.662   4.239  49.119  1.00  0.00    -0.241 NA
HETATM   23  C1  UNL     1      25.909   7.296  48.073  1.00  0.00     0.047 C 
HETATM   24  C3  UNL     1      25.049   5.295  48.959  1.00  0.00     0.012 A 
HETATM   25  C4  UNL     1      25.255   4.079  49.425  1.00  0.00     0.020 A 
HETATM   26  C5  UNL     1      26.628   3.594  49.480  1.00  0.00     0.119 A 
ENDBRANCH  18  19
ENDBRANCH   1  17
TORSDOF 2
ENDMDL
