MODEL 1
REMARK VINA RESULT:      -7.1      0.000      0.000
REMARK  9 active torsions:
REMARK  status: ('A' for Active; 'I' for Inactive)
REMARK    1  A    between atoms: C2_2  and  C3_3 
REMARK    2  A    between atoms: C3_3  and  C4_4 
REMARK    3  A    between atoms: C4_4  and  N1_5 
REMARK    4  A    between atoms: N1_5  and  C5_6 
REMARK    5  A    between atoms: N1_5  and  C12_14 
REMARK    6  A    between atoms: C5_6  and  N2_7 
REMARK    7  A    between atoms: N2_7  and  C6_8 
REMARK    8  A    between atoms: C12_14  and  C13_15 
REMARK    9  A    between atoms: C14_16  and  O1_17 
ROOT
HETATM    1  N1  UNL     1      23.933   1.203  52.608  1.00  0.00    -0.397 N 
ENDROOT
BRANCH   1   2
HETATM    2  C4  UNL     1      23.640   1.612  51.306  1.00  0.00     0.118 C 
BRANCH   2   3
HETATM    3  C3  UNL     1      22.268   1.892  50.854  1.00  0.00     0.019 C 
BRANCH   3   4
HETATM    4  C2  UNL     1      21.551   0.943  49.987  1.00  0.00    -0.003 C 
HETATM    5  C1  UNL     1      21.587   1.283  48.519  1.00  0.00     0.005 C 
ENDBRANCH   3   4
ENDBRANCH   2   3
ENDBRANCH   1   2
BRANCH   1   6
HETATM    6  C5  UNL     1      25.275   1.300  53.033  1.00  0.00     0.240 C 
BRANCH   6   7
HETATM    7  N2  UNL     1      25.808   0.027  53.514  1.00  0.00    -0.374 N 
HETATM    8  H12 UNL     1      25.191  -0.759  53.871  1.00  0.00     0.161 HD
BRANCH   7   9
HETATM    9  C6  UNL     1      27.216  -0.200  53.520  1.00  0.00     0.029 A 
HETATM   10  C7  UNL     1      27.752  -1.403  53.116  1.00  0.00     0.029 A 
HETATM   11  C8  UNL     1      29.122  -1.578  53.149  1.00  0.00     0.002 A 
HETATM   12  C9  UNL     1      30.019  -0.596  53.575  1.00  0.00     0.000 A 
HETATM   13  C10 UNL     1      29.442   0.591  53.970  1.00  0.00     0.002 A 
HETATM   14  C11 UNL     1      28.082   0.794  53.947  1.00  0.00     0.029 A 
ENDBRANCH   7   9
ENDBRANCH   6   7
ENDBRANCH   1   6
BRANCH   1  15
HETATM   15  C12 UNL     1      23.298  -0.054  52.983  1.00  0.00     0.127 C 
BRANCH  15  16
HETATM   16  C13 UNL     1      22.348   0.109  54.108  1.00  0.00     0.058 A 
HETATM   17  C14 UNL     1      22.184  -1.128  54.909  1.00  0.00     0.111 A 
HETATM   18  C15 UNL     1      20.929  -1.300  54.455  1.00  0.00     0.055 A 
HETATM   19  C16 UNL     1      19.803  -0.859  53.625  1.00  0.00    -0.007 A 
HETATM   20  C17 UNL     1      20.954  -0.188  53.678  1.00  0.00     0.029 A 
HETATM   21 BR1  UNL     1      18.018  -1.238  53.079  1.00  0.00    -0.058 Br
BRANCH  17  22
HETATM   22  O1  UNL     1      22.848  -1.967  55.807  1.00  0.00    -0.385 OA
HETATM   23  H21 UNL     1      23.840  -1.954  55.842  1.00  0.00     0.210 HD
ENDBRANCH  17  22
ENDBRANCH  15  16
ENDBRANCH   1  15
TORSDOF 9
ENDMDL
MODEL 2
REMARK VINA RESULT:      -7.1      3.614      4.618
REMARK  9 active torsions:
REMARK  status: ('A' for Active; 'I' for Inactive)
REMARK    1  A    between atoms: C2_2  and  C3_3 
REMARK    2  A    between atoms: C3_3  and  C4_4 
REMARK    3  A    between atoms: C4_4  and  N1_5 
REMARK    4  A    between atoms: N1_5  and  C5_6 
REMARK    5  A    between atoms: N1_5  and  C12_14 
REMARK    6  A    between atoms: C5_6  and  N2_7 
REMARK    7  A    between atoms: N2_7  and  C6_8 
REMARK    8  A    between atoms: C12_14  and  C13_15 
REMARK    9  A    between atoms: C14_16  and  O1_17 
ROOT
HETATM    1  N1  UNL     1      25.204   3.727  50.063  1.00  0.00    -0.397 N 
ENDROOT
BRANCH   1   2
HETATM    2  C4  UNL     1      25.136   4.871  49.266  1.00  0.00     0.118 C 
BRANCH   2   3
HETATM    3  C3  UNL     1      26.045   6.014  49.444  1.00  0.00     0.019 C 
BRANCH   3   4
HETATM    4  C2  UNL     1      26.986   6.401  48.378  1.00  0.00    -0.003 C 
HETATM    5  C1  UNL     1      28.269   5.612  48.357  1.00  0.00     0.005 C 
ENDBRANCH   3   4
ENDBRANCH   2   3
ENDBRANCH   1   2
BRANCH   1   6
HETATM    6  C5  UNL     1      26.454   3.081  50.168  1.00  0.00     0.240 C 
BRANCH   6   7
HETATM    7  N2  UNL     1      26.945   3.022  51.542  1.00  0.00    -0.374 N 
HETATM    8  H12 UNL     1      27.451   3.829  52.010  1.00  0.00     0.161 HD
BRANCH   7   9
HETATM    9  C6  UNL     1      26.757   1.839  52.317  1.00  0.00     0.029 A 
HETATM   10  C7  UNL     1      26.558   0.613  51.721  1.00  0.00     0.029 A 
HETATM   11  C8  UNL     1      26.370  -0.502  52.516  1.00  0.00     0.002 A 
HETATM   12  C9  UNL     1      26.368  -0.468  53.912  1.00  0.00     0.000 A 
HETATM   13  C10 UNL     1      26.570   0.776  54.466  1.00  0.00     0.002 A 
HETATM   14  C11 UNL     1      26.761   1.903  53.701  1.00  0.00     0.029 A 
ENDBRANCH   7   9
ENDBRANCH   6   7
ENDBRANCH   1   6
BRANCH   1  15
HETATM   15  C12 UNL     1      24.094   2.806  49.860  1.00  0.00     0.127 C 
BRANCH  15  16
HETATM   16  C13 UNL     1      23.043   2.953  50.894  1.00  0.00     0.058 A 
HETATM   17  C14 UNL     1      23.582   3.375  52.210  1.00  0.00     0.111 A 
HETATM   18  C15 UNL     1      23.318   2.168  52.745  1.00  0.00     0.055 A 
HETATM   19  C16 UNL     1      22.801   0.803  52.614  1.00  0.00    -0.007 A 
HETATM   20  C17 UNL     1      22.800   1.664  51.597  1.00  0.00     0.029 A 
HETATM   21 BR1  UNL     1      22.487  -0.846  53.517  1.00  0.00    -0.058 Br
BRANCH  17  22
HETATM   22  O1  UNL     1      24.161   4.455  52.879  1.00  0.00    -0.385 OA
HETATM   23  H21 UNL     1      24.240   4.428  53.868  1.00  0.00     0.210 HD
ENDBRANCH  17  22
ENDBRANCH  15  16
ENDBRANCH   1  15
TORSDOF 9
ENDMDL
MODEL 3
REMARK VINA RESULT:      -7.0      1.548      5.221
REMARK  9 active torsions:
REMARK  status: ('A' for Active; 'I' for Inactive)
REMARK    1  A    between atoms: C2_2  and  C3_3 
REMARK    2  A    between atoms: C3_3  and  C4_4 
REMARK    3  A    between atoms: C4_4  and  N1_5 
REMARK    4  A    between atoms: N1_5  and  C5_6 
REMARK    5  A    between atoms: N1_5  and  C12_14 
REMARK    6  A    between atoms: C5_6  and  N2_7 
REMARK    7  A    between atoms: N2_7  and  C6_8 
REMARK    8  A    between atoms: C12_14  and  C13_15 
REMARK    9  A    between atoms: C14_16  and  O1_17 
ROOT
HETATM    1  N1  UNL     1      26.061   0.221  52.958  1.00  0.00    -0.397 N 
ENDROOT
BRANCH   1   2
HETATM    2  C4  UNL     1      27.307  -0.365  52.730  1.00  0.00     0.118 C 
BRANCH   2   3
HETATM    3  C3  UNL     1      28.499  -0.025  53.523  1.00  0.00     0.019 C 
BRANCH   3   4
HETATM    4  C2  UNL     1      29.685  -0.898  53.513  1.00  0.00    -0.003 C 
HETATM    5  C1  UNL     1      29.387  -2.359  53.289  1.00  0.00     0.005 C 
ENDBRANCH   3   4
ENDBRANCH   2   3
ENDBRANCH   1   2
BRANCH   1   6
HETATM    6  C5  UNL     1      26.037   1.435  53.677  1.00  0.00     0.240 C 
BRANCH   6   7
HETATM    7  N2  UNL     1      25.948   2.605  52.807  1.00  0.00    -0.374 N 
HETATM    8  H12 UNL     1      26.759   3.272  52.651  1.00  0.00     0.161 HD
BRANCH   7   9
HETATM    9  C6  UNL     1      24.730   2.895  52.124  1.00  0.00     0.029 A 
HETATM   10  C7  UNL     1      24.499   2.446  50.842  1.00  0.00     0.029 A 
HETATM   11  C8  UNL     1      23.307   2.762  50.219  1.00  0.00     0.002 A 
HETATM   12  C9  UNL     1      22.299   3.523  50.814  1.00  0.00     0.000 A 
HETATM   13  C10 UNL     1      22.569   3.952  52.094  1.00  0.00     0.002 A 
HETATM   14  C11 UNL     1      23.746   3.652  52.740  1.00  0.00     0.029 A 
ENDBRANCH   7   9
ENDBRANCH   6   7
ENDBRANCH   1   6
BRANCH   1  15
HETATM   15  C12 UNL     1      25.040  -0.724  53.388  1.00  0.00     0.127 C 
BRANCH  15  16
HETATM   16  C13 UNL     1      23.918  -0.060  54.092  1.00  0.00     0.058 A 
HETATM   17  C14 UNL     1      22.980  -1.021  54.721  1.00  0.00     0.111 A 
HETATM   18  C15 UNL     1      22.017  -0.719  53.830  1.00  0.00     0.055 A 
HETATM   19  C16 UNL     1      21.552   0.041  52.666  1.00  0.00    -0.007 A 
HETATM   20  C17 UNL     1      22.777   0.188  53.168  1.00  0.00     0.029 A 
HETATM   21 BR1  UNL     1      20.089   0.361  51.487  1.00  0.00    -0.058 Br
BRANCH  17  22
HETATM   22  O1  UNL     1      22.868  -1.947  55.760  1.00  0.00    -0.385 OA
HETATM   23  H21 UNL     1      22.005  -2.416  55.902  1.00  0.00     0.210 HD
ENDBRANCH  17  22
ENDBRANCH  15  16
ENDBRANCH   1  15
TORSDOF 9
ENDMDL
MODEL 4
REMARK VINA RESULT:      -6.9      3.851      5.565
REMARK  9 active torsions:
REMARK  status: ('A' for Active; 'I' for Inactive)
REMARK    1  A    between atoms: C2_2  and  C3_3 
REMARK    2  A    between atoms: C3_3  and  C4_4 
REMARK    3  A    between atoms: C4_4  and  N1_5 
REMARK    4  A    between atoms: N1_5  and  C5_6 
REMARK    5  A    between atoms: N1_5  and  C12_14 
REMARK    6  A    between atoms: C5_6  and  N2_7 
REMARK    7  A    between atoms: N2_7  and  C6_8 
REMARK    8  A    between atoms: C12_14  and  C13_15 
REMARK    9  A    between atoms: C14_16  and  O1_17 
ROOT
HETATM    1  N1  UNL     1      24.393   2.060  52.001  1.00  0.00    -0.397 N 
ENDROOT
BRANCH   1   2
HETATM    2  C4  UNL     1      23.341   1.145  52.069  1.00  0.00     0.118 C 
BRANCH   2   3
HETATM    3  C3  UNL     1      23.239   0.134  53.132  1.00  0.00     0.019 C 
BRANCH   3   4
HETATM    4  C2  UNL     1      22.031   0.040  53.970  1.00  0.00    -0.003 C 
HETATM    5  C1  UNL     1      21.764  -1.332  54.535  1.00  0.00     0.005 C 
ENDBRANCH   3   4
ENDBRANCH   2   3
ENDBRANCH   1   2
BRANCH   1   6
HETATM    6  C5  UNL     1      25.132   2.288  53.182  1.00  0.00     0.240 C 
BRANCH   6   7
HETATM    7  N2  UNL     1      26.568   2.402  52.935  1.00  0.00    -0.374 N 
HETATM    8  H12 UNL     1      27.032   3.309  52.637  1.00  0.00     0.161 HD
BRANCH   7   9
HETATM    9  C6  UNL     1      27.411   1.263  53.091  1.00  0.00     0.029 A 
HETATM   10  C7  UNL     1      26.950  -0.012  52.847  1.00  0.00     0.029 A 
HETATM   11  C8  UNL     1      27.804  -1.084  53.021  1.00  0.00     0.002 A 
HETATM   12  C9  UNL     1      29.131  -0.960  53.437  1.00  0.00     0.000 A 
HETATM   13  C10 UNL     1      29.552   0.331  53.669  1.00  0.00     0.002 A 
HETATM   14  C11 UNL     1      28.725   1.418  53.504  1.00  0.00     0.029 A 
ENDBRANCH   7   9
ENDBRANCH   6   7
ENDBRANCH   1   6
BRANCH   1  15
HETATM   15  C12 UNL     1      24.059   3.283  51.285  1.00  0.00     0.127 C 
BRANCH  15  16
HETATM   16  C13 UNL     1      24.634   3.311  49.920  1.00  0.00     0.058 A 
HETATM   17  C14 UNL     1      25.963   3.967  49.867  1.00  0.00     0.111 A 
HETATM   18  C15 UNL     1      25.458   5.019  49.197  1.00  0.00     0.055 A 
HETATM   19  C16 UNL     1      24.321   5.709  48.579  1.00  0.00    -0.007 A 
HETATM   20  C17 UNL     1      24.195   4.525  49.179  1.00  0.00     0.029 A 
HETATM   21 BR1  UNL     1      23.760   7.261  47.627  1.00  0.00    -0.058 Br
BRANCH  17  22
HETATM   22  O1  UNL     1      27.298   3.808  50.248  1.00  0.00    -0.385 OA
HETATM   23  H21 UNL     1      27.921   3.327  49.644  1.00  0.00     0.210 HD
ENDBRANCH  17  22
ENDBRANCH  15  16
ENDBRANCH   1  15
TORSDOF 9
ENDMDL
MODEL 5
REMARK VINA RESULT:      -6.8      3.946      6.058
REMARK  9 active torsions:
REMARK  status: ('A' for Active; 'I' for Inactive)
REMARK    1  A    between atoms: C2_2  and  C3_3 
REMARK    2  A    between atoms: C3_3  and  C4_4 
REMARK    3  A    between atoms: C4_4  and  N1_5 
REMARK    4  A    between atoms: N1_5  and  C5_6 
REMARK    5  A    between atoms: N1_5  and  C12_14 
REMARK    6  A    between atoms: C5_6  and  N2_7 
REMARK    7  A    between atoms: N2_7  and  C6_8 
REMARK    8  A    between atoms: C12_14  and  C13_15 
REMARK    9  A    between atoms: C14_16  and  O1_17 
ROOT
HETATM    1  N1  UNL     1      23.687   1.408  52.117  1.00  0.00    -0.397 N 
ENDROOT
BRANCH   1   2
HETATM    2  C4  UNL     1      22.483   0.709  52.207  1.00  0.00     0.118 C 
BRANCH   2   3
HETATM    3  C3  UNL     1      21.669   0.690  53.432  1.00  0.00     0.019 C 
BRANCH   3   4
HETATM    4  C2  UNL     1      21.937  -0.290  54.499  1.00  0.00    -0.003 C 
HETATM    5  C1  UNL     1      21.489  -1.695  54.189  1.00  0.00     0.005 C 
ENDBRANCH   3   4
ENDBRANCH   2   3
ENDBRANCH   1   2
BRANCH   1   6
HETATM    6  C5  UNL     1      23.769   2.442  51.160  1.00  0.00     0.240 C 
BRANCH   6   7
HETATM    7  N2  UNL     1      24.686   3.508  51.558  1.00  0.00    -0.374 N 
HETATM    8  H12 UNL     1      24.818   3.809  52.567  1.00  0.00     0.161 HD
BRANCH   7   9
HETATM    9  C6  UNL     1      25.451   4.196  50.570  1.00  0.00     0.029 A 
HETATM   10  C7  UNL     1      26.499   3.586  49.918  1.00  0.00     0.029 A 
HETATM   11  C8  UNL     1      27.216   4.299  48.976  1.00  0.00     0.002 A 
HETATM   12  C9  UNL     1      26.943   5.625  48.634  1.00  0.00     0.000 A 
HETATM   13  C10 UNL     1      25.888   6.197  49.308  1.00  0.00     0.002 A 
HETATM   14  C11 UNL     1      25.156   5.512  50.251  1.00  0.00     0.029 A 
ENDBRANCH   7   9
ENDBRANCH   6   7
ENDBRANCH   1   6
BRANCH   1  15
HETATM   15  C12 UNL     1      24.864   0.549  52.139  1.00  0.00     0.127 C 
BRANCH  15  16
HETATM   16  C13 UNL     1      25.462   0.448  53.491  1.00  0.00     0.058 A 
HETATM   17  C14 UNL     1      26.333   1.601  53.826  1.00  0.00     0.111 A 
HETATM   18  C15 UNL     1      27.436   0.832  53.764  1.00  0.00     0.055 A 
HETATM   19  C16 UNL     1      28.068  -0.472  53.540  1.00  0.00    -0.007 A 
HETATM   20  C17 UNL     1      26.750  -0.296  53.453  1.00  0.00     0.029 A 
HETATM   21 BR1  UNL     1      29.718  -1.425  53.495  1.00  0.00    -0.058 Br
BRANCH  17  22
HETATM   22  O1  UNL     1      26.306   2.966  54.120  1.00  0.00    -0.385 OA
HETATM   23  H21 UNL     1      26.859   3.590  53.581  1.00  0.00     0.210 HD
ENDBRANCH  17  22
ENDBRANCH  15  16
ENDBRANCH   1  15
TORSDOF 9
ENDMDL
MODEL 6
REMARK VINA RESULT:      -6.8      2.280      4.766
REMARK  9 active torsions:
REMARK  status: ('A' for Active; 'I' for Inactive)
REMARK    1  A    between atoms: C2_2  and  C3_3 
REMARK    2  A    between atoms: C3_3  and  C4_4 
REMARK    3  A    between atoms: C4_4  and  N1_5 
REMARK    4  A    between atoms: N1_5  and  C5_6 
REMARK    5  A    between atoms: N1_5  and  C12_14 
REMARK    6  A    between atoms: C5_6  and  N2_7 
REMARK    7  A    between atoms: N2_7  and  C6_8 
REMARK    8  A    between atoms: C12_14  and  C13_15 
REMARK    9  A    between atoms: C14_16  and  O1_17 
ROOT
HETATM    1  N1  UNL     1      24.905   0.471  52.627  1.00  0.00    -0.397 N 
ENDROOT
BRANCH   1   2
HETATM    2  C4  UNL     1      25.680   0.982  53.669  1.00  0.00     0.118 C 
BRANCH   2   3
HETATM    3  C3  UNL     1      26.847   0.268  54.211  1.00  0.00     0.019 C 
BRANCH   3   4
HETATM    4  C2  UNL     1      27.781  -0.437  53.316  1.00  0.00    -0.003 C 
HETATM    5  C1  UNL     1      29.206  -0.478  53.803  1.00  0.00     0.005 C 
ENDBRANCH   3   4
ENDBRANCH   2   3
ENDBRANCH   1   2
BRANCH   1   6
HETATM    6  C5  UNL     1      24.329   1.398  51.731  1.00  0.00     0.240 C 
BRANCH   6   7
HETATM    7  N2  UNL     1      24.743   2.773  51.998  1.00  0.00    -0.374 N 
HETATM    8  H12 UNL     1      24.640   3.233  52.949  1.00  0.00     0.161 HD
BRANCH   7   9
HETATM    9  C6  UNL     1      25.312   3.562  50.955  1.00  0.00     0.029 A 
HETATM   10  C7  UNL     1      26.445   3.158  50.284  1.00  0.00     0.029 A 
HETATM   11  C8  UNL     1      26.964   3.963  49.287  1.00  0.00     0.002 A 
HETATM   12  C9  UNL     1      26.405   5.185  48.908  1.00  0.00     0.000 A 
HETATM   13  C10 UNL     1      25.274   5.551  49.603  1.00  0.00     0.002 A 
HETATM   14  C11 UNL     1      24.734   4.770  50.599  1.00  0.00     0.029 A 
ENDBRANCH   7   9
ENDBRANCH   6   7
ENDBRANCH   1   6
BRANCH   1  15
HETATM   15  C12 UNL     1      23.984  -0.578  53.042  1.00  0.00     0.127 C 
BRANCH  15  16
HETATM   16  C13 UNL     1      23.050  -0.122  54.099  1.00  0.00     0.058 A 
HETATM   17  C14 UNL     1      22.689  -1.198  55.053  1.00  0.00     0.111 A 
HETATM   18  C15 UNL     1      21.430  -1.245  54.580  1.00  0.00     0.055 A 
HETATM   19  C16 UNL     1      20.397  -0.763  53.656  1.00  0.00    -0.007 A 
HETATM   20  C17 UNL     1      21.635  -0.268  53.661  1.00  0.00     0.029 A 
HETATM   21 BR1  UNL     1      18.584  -0.947  53.101  1.00  0.00    -0.058 Br
BRANCH  17  22
HETATM   22  O1  UNL     1      23.204  -1.992  56.081  1.00  0.00    -0.385 OA
HETATM   23  H21 UNL     1      22.676  -2.765  56.408  1.00  0.00     0.210 HD
ENDBRANCH  17  22
ENDBRANCH  15  16
ENDBRANCH   1  15
TORSDOF 9
ENDMDL
MODEL 7
REMARK VINA RESULT:      -6.6      3.401      6.888
REMARK  9 active torsions:
REMARK  status: ('A' for Active; 'I' for Inactive)
REMARK    1  A    between atoms: C2_2  and  C3_3 
REMARK    2  A    between atoms: C3_3  and  C4_4 
REMARK    3  A    between atoms: C4_4  and  N1_5 
REMARK    4  A    between atoms: N1_5  and  C5_6 
REMARK    5  A    between atoms: N1_5  and  C12_14 
REMARK    6  A    between atoms: C5_6  and  N2_7 
REMARK    7  A    between atoms: N2_7  and  C6_8 
REMARK    8  A    between atoms: C12_14  and  C13_15 
REMARK    9  A    between atoms: C14_16  and  O1_17 
ROOT
HETATM    1  N1  UNL     1      26.187   1.654  52.692  1.00  0.00    -0.397 N 
ENDROOT
BRANCH   1   2
HETATM    2  C4  UNL     1      27.581   1.698  52.640  1.00  0.00     0.118 C 
BRANCH   2   3
HETATM    3  C3  UNL     1      28.423   1.511  53.832  1.00  0.00     0.019 C 
BRANCH   3   4
HETATM    4  C2  UNL     1      28.659   0.166  54.385  1.00  0.00    -0.003 C 
HETATM    5  C1  UNL     1      29.765  -0.604  53.711  1.00  0.00     0.005 C 
ENDBRANCH   3   4
ENDBRANCH   2   3
ENDBRANCH   1   2
BRANCH   1   6
HETATM    6  C5  UNL     1      25.567   0.409  52.453  1.00  0.00     0.240 C 
BRANCH   6   7
HETATM    7  N2  UNL     1      24.868  -0.107  53.627  1.00  0.00    -0.374 N 
HETATM    8  H12 UNL     1      25.368  -0.387  54.520  1.00  0.00     0.161 HD
BRANCH   7   9
HETATM    9  C6  UNL     1      23.450  -0.258  53.604  1.00  0.00     0.029 A 
HETATM   10  C7  UNL     1      22.680   0.327  52.623  1.00  0.00     0.029 A 
HETATM   11  C8  UNL     1      21.309   0.159  52.650  1.00  0.00     0.002 A 
HETATM   12  C9  UNL     1      20.637  -0.578  53.627  1.00  0.00     0.000 A 
HETATM   13  C10 UNL     1      21.443  -1.146  54.588  1.00  0.00     0.002 A 
HETATM   14  C11 UNL     1      22.810  -0.998  54.587  1.00  0.00     0.029 A 
ENDBRANCH   7   9
ENDBRANCH   6   7
ENDBRANCH   1   6
BRANCH   1  15
HETATM   15  C12 UNL     1      25.542   2.762  52.001  1.00  0.00     0.127 C 
BRANCH  15  16
HETATM   16  C13 UNL     1      25.645   2.644  50.527  1.00  0.00     0.058 A 
HETATM   17  C14 UNL     1      26.351   3.789  49.904  1.00  0.00     0.111 A 
HETATM   18  C15 UNL     1      25.211   4.235  49.345  1.00  0.00     0.055 A 
HETATM   19  C16 UNL     1      23.769   4.102  49.114  1.00  0.00    -0.007 A 
HETATM   20  C17 UNL     1      24.453   3.234  49.859  1.00  0.00     0.029 A 
HETATM   21 BR1  UNL     1      22.245   4.856  48.253  1.00  0.00    -0.058 Br
BRANCH  17  22
HETATM   22  O1  UNL     1      27.608   4.385  49.779  1.00  0.00    -0.385 OA
HETATM   23  H21 UNL     1      27.684   5.374  49.825  1.00  0.00     0.210 HD
ENDBRANCH  17  22
ENDBRANCH  15  16
ENDBRANCH   1  15
TORSDOF 9
ENDMDL
MODEL 8
REMARK VINA RESULT:      -6.6      3.110      4.434
REMARK  9 active torsions:
REMARK  status: ('A' for Active; 'I' for Inactive)
REMARK    1  A    between atoms: C2_2  and  C3_3 
REMARK    2  A    between atoms: C3_3  and  C4_4 
REMARK    3  A    between atoms: C4_4  and  N1_5 
REMARK    4  A    between atoms: N1_5  and  C5_6 
REMARK    5  A    between atoms: N1_5  and  C12_14 
REMARK    6  A    between atoms: C5_6  and  N2_7 
REMARK    7  A    between atoms: N2_7  and  C6_8 
REMARK    8  A    between atoms: C12_14  and  C13_15 
REMARK    9  A    between atoms: C14_16  and  O1_17 
ROOT
HETATM    1  N1  UNL     1      23.771   0.550  52.731  1.00  0.00    -0.397 N 
ENDROOT
BRANCH   1   2
HETATM    2  C4  UNL     1      22.467   0.592  53.228  1.00  0.00     0.118 C 
BRANCH   2   3
HETATM    3  C3  UNL     1      21.299   0.212  52.418  1.00  0.00     0.019 C 
BRANCH   3   4
HETATM    4  C2  UNL     1      20.839   1.068  51.311  1.00  0.00    -0.003 C 
HETATM    5  C1  UNL     1      21.441   0.738  49.970  1.00  0.00     0.005 C 
ENDBRANCH   3   4
ENDBRANCH   2   3
ENDBRANCH   1   2
BRANCH   1   6
HETATM    6  C5  UNL     1      24.674  -0.341  53.351  1.00  0.00     0.240 C 
BRANCH   6   7
HETATM    7  N2  UNL     1      25.743   0.348  54.068  1.00  0.00    -0.374 N 
HETATM    8  H12 UNL     1      25.564   1.150  54.740  1.00  0.00     0.161 HD
BRANCH   7   9
HETATM    9  C6  UNL     1      27.100  -0.047  53.877  1.00  0.00     0.029 A 
HETATM   10  C7  UNL     1      27.425  -1.200  53.198  1.00  0.00     0.029 A 
HETATM   11  C8  UNL     1      28.755  -1.544  53.047  1.00  0.00     0.002 A 
HETATM   12  C9  UNL     1      29.814  -0.786  53.550  1.00  0.00     0.000 A 
HETATM   13  C10 UNL     1      29.446   0.358  54.222  1.00  0.00     0.002 A 
HETATM   14  C11 UNL     1      28.131   0.727  54.387  1.00  0.00     0.029 A 
ENDBRANCH   7   9
ENDBRANCH   6   7
ENDBRANCH   1   6
BRANCH   1  15
HETATM   15  C12 UNL     1      24.342   1.865  52.475  1.00  0.00     0.127 C 
BRANCH  15  16
HETATM   16  C13 UNL     1      25.028   1.936  51.164  1.00  0.00     0.058 A 
HETATM   17  C14 UNL     1      26.218   2.821  51.181  1.00  0.00     0.111 A 
HETATM   18  C15 UNL     1      25.597   3.731  50.407  1.00  0.00     0.055 A 
HETATM   19  C16 UNL     1      24.418   4.172  49.656  1.00  0.00    -0.007 A 
HETATM   20  C17 UNL     1      24.450   3.014  50.315  1.00  0.00     0.029 A 
HETATM   21 BR1  UNL     1      23.681   5.550  48.567  1.00  0.00    -0.058 Br
BRANCH  17  22
HETATM   22  O1  UNL     1      27.518   2.926  51.681  1.00  0.00    -0.385 OA
HETATM   23  H21 UNL     1      28.284   2.892  51.052  1.00  0.00     0.210 HD
ENDBRANCH  17  22
ENDBRANCH  15  16
ENDBRANCH   1  15
TORSDOF 9
ENDMDL
MODEL 9
REMARK VINA RESULT:      -6.6      4.826      6.386
REMARK  9 active torsions:
REMARK  status: ('A' for Active; 'I' for Inactive)
REMARK    1  A    between atoms: C2_2  and  C3_3 
REMARK    2  A    between atoms: C3_3  and  C4_4 
REMARK    3  A    between atoms: C4_4  and  N1_5 
REMARK    4  A    between atoms: N1_5  and  C5_6 
REMARK    5  A    between atoms: N1_5  and  C12_14 
REMARK    6  A    between atoms: C5_6  and  N2_7 
REMARK    7  A    between atoms: N2_7  and  C6_8 
REMARK    8  A    between atoms: C12_14  and  C13_15 
REMARK    9  A    between atoms: C14_16  and  O1_17 
ROOT
HETATM    1  N1  UNL     1      24.905   3.122  50.876  1.00  0.00    -0.397 N 
ENDROOT
BRANCH   1   2
HETATM    2  C4  UNL     1      24.337   3.252  52.144  1.00  0.00     0.118 C 
BRANCH   2   3
HETATM    3  C3  UNL     1      23.385   2.270  52.688  1.00  0.00     0.019 C 
BRANCH   3   4
HETATM    4  C2  UNL     1      23.362   0.885  52.188  1.00  0.00    -0.003 C 
HETATM    5  C1  UNL     1      23.425  -0.171  53.260  1.00  0.00     0.005 C 
ENDBRANCH   3   4
ENDBRANCH   2   3
ENDBRANCH   1   2
BRANCH   1   6
HETATM    6  C5  UNL     1      26.276   2.792  50.809  1.00  0.00     0.240 C 
BRANCH   6   7
HETATM    7  N2  UNL     1      26.934   2.844  52.113  1.00  0.00    -0.374 N 
HETATM    8  H12 UNL     1      26.989   3.729  52.696  1.00  0.00     0.161 HD
BRANCH   7   9
HETATM    9  C6  UNL     1      27.541   1.672  52.653  1.00  0.00     0.029 A 
HETATM   10  C7  UNL     1      27.033   0.417  52.400  1.00  0.00     0.029 A 
HETATM   11  C8  UNL     1      27.652  -0.687  52.954  1.00  0.00     0.002 A 
HETATM   12  C9  UNL     1      28.782  -0.614  53.772  1.00  0.00     0.000 A 
HETATM   13  C10 UNL     1      29.257   0.658  53.999  1.00  0.00     0.002 A 
HETATM   14  C11 UNL     1      28.663   1.775  53.460  1.00  0.00     0.029 A 
ENDBRANCH   7   9
ENDBRANCH   6   7
ENDBRANCH   1   6
BRANCH   1  15
HETATM   15  C12 UNL     1      24.522   4.181  49.952  1.00  0.00     0.127 C 
BRANCH  15  16
HETATM   16  C13 UNL     1      25.473   5.317  49.971  1.00  0.00     0.058 A 
HETATM   17  C14 UNL     1      24.913   6.529  50.617  1.00  0.00     0.111 A 
HETATM   18  C15 UNL     1      24.853   7.174  49.437  1.00  0.00     0.055 A 
HETATM   19  C16 UNL     1      25.069   7.199  47.987  1.00  0.00    -0.007 A 
HETATM   20  C17 UNL     1      25.358   6.132  48.730  1.00  0.00     0.029 A 
HETATM   21 BR1  UNL     1      24.925   8.245  46.400  1.00  0.00    -0.058 Br
BRANCH  17  22
HETATM   22  O1  UNL     1      24.522   7.050  51.852  1.00  0.00    -0.385 OA
HETATM   23  H21 UNL     1      25.052   6.830  52.662  1.00  0.00     0.210 HD
ENDBRANCH  17  22
ENDBRANCH  15  16
ENDBRANCH   1  15
TORSDOF 9
ENDMDL
