MODEL 1
REMARK VINA RESULT:      -8.0      0.000      0.000
REMARK  5 active torsions:
REMARK  status: ('A' for Active; 'I' for Inactive)
REMARK    1  A    between atoms: C5_6  and  C6_7 
REMARK    2  A    between atoms: C7_8  and  C8_9 
REMARK    3  A    between atoms: C8_9  and  N2_10 
REMARK    4  A    between atoms: N2_10  and  N3_11 
REMARK       I    between atoms: N3_11  and  C9_12 
REMARK       I    between atoms: C9_12  and  N4_14 
REMARK    5  A    between atoms: N4_14  and  C10_15 
ROOT
HETATM    1  N1  UNL     1      34.602   6.591  47.600  1.00  0.00    -0.191 NA
HETATM    2  C1  UNL     1      33.447   6.520  47.694  1.00  0.00     0.101 C 
HETATM    3  C2  UNL     1      32.017   6.453  47.817  1.00  0.00     0.062 A 
HETATM    4  C3  UNL     1      31.321   7.587  47.443  1.00  0.00     0.026 A 
HETATM    5  C4  UNL     1      29.944   7.618  47.525  1.00  0.00     0.033 A 
HETATM    6  C5  UNL     1      29.316   6.482  47.990  1.00  0.00     0.056 A 
HETATM    7  N5  UNL     1      30.007   5.386  48.350  1.00  0.00    -0.260 NA
HETATM    8  C16 UNL     1      31.353   5.326  48.281  1.00  0.00     0.140 A 
ENDROOT
BRANCH   6   9
HETATM    9  C6  UNL     1      27.862   6.452  48.100  1.00  0.00     0.029 C 
HETATM   10  C7  UNL     1      27.202   5.568  48.831  1.00  0.00    -0.009 C 
BRANCH  10  11
HETATM   11  C8  UNL     1      25.709   5.531  48.949  1.00  0.00     0.137 C 
BRANCH  11  12
HETATM   12  N2  UNL     1      25.359   4.167  49.373  1.00  0.00    -0.233 NA
HETATM   13  H7  UNL     1      25.984   3.472  48.914  1.00  0.00     0.146 HD
BRANCH  12  14
HETATM   14  N3  UNL     1      25.451   4.026  50.745  1.00  0.00    -0.273 N 
HETATM   15  C9  UNL     1      26.258   2.918  51.129  1.00  0.00     0.335 C 
HETATM   16  O1  UNL     1      26.803   2.181  50.255  1.00  0.00    -0.246 OA
HETATM   17  N4  UNL     1      26.500   2.573  52.505  1.00  0.00    -0.308 N 
HETATM   18  H9  UNL     1      26.066   3.159  53.256  1.00  0.00     0.170 HD
HETATM   19  H8  UNL     1      25.053   4.562  51.565  1.00  0.00     0.185 HD
BRANCH  17  20
HETATM   20  C10 UNL     1      27.315   1.453  52.852  1.00  0.00     0.038 A 
HETATM   21  C11 UNL     1      28.477   1.872  53.499  1.00  0.00     0.032 A 
HETATM   22  C12 UNL     1      29.424   0.959  53.931  1.00  0.00     0.046 A 
HETATM   23  C13 UNL     1      29.199  -0.384  53.713  1.00  0.00     0.138 A 
HETATM   24  F1  UNL     1      30.106  -1.311  54.123  1.00  0.00    -0.204 F 
HETATM   25  C14 UNL     1      28.051  -0.792  53.074  1.00  0.00     0.074 A 
HETATM   26 CL1  UNL     1      27.700  -2.492  52.761  1.00  0.00    -0.081 Cl
HETATM   27  C15 UNL     1      27.108   0.096  52.642  1.00  0.00     0.056 A 
ENDBRANCH  17  20
ENDBRANCH  12  14
ENDBRANCH  11  12
ENDBRANCH  10  11
ENDBRANCH   6   9
TORSDOF 5
ENDMDL
MODEL 2
REMARK VINA RESULT:      -7.6      5.529      8.944
REMARK  5 active torsions:
REMARK  status: ('A' for Active; 'I' for Inactive)
REMARK    1  A    between atoms: C5_6  and  C6_7 
REMARK    2  A    between atoms: C7_8  and  C8_9 
REMARK    3  A    between atoms: C8_9  and  N2_10 
REMARK    4  A    between atoms: N2_10  and  N3_11 
REMARK       I    between atoms: N3_11  and  C9_12 
REMARK       I    between atoms: C9_12  and  N4_14 
REMARK    5  A    between atoms: N4_14  and  C10_15 
ROOT
HETATM    1  N1  UNL     1      29.027  -1.466  53.635  1.00  0.00    -0.191 NA
HETATM    2  C1  UNL     1      28.058  -0.863  53.425  1.00  0.00     0.101 C 
HETATM    3  C2  UNL     1      26.870  -0.100  53.159  1.00  0.00     0.062 A 
HETATM    4  C3  UNL     1      26.950   0.808  52.120  1.00  0.00     0.026 A 
HETATM    5  C4  UNL     1      25.860   1.586  51.789  1.00  0.00     0.033 A 
HETATM    6  C5  UNL     1      24.714   1.413  52.536  1.00  0.00     0.056 A 
HETATM    7  N5  UNL     1      24.651   0.525  53.544  1.00  0.00    -0.260 NA
HETATM    8  C16 UNL     1      25.700  -0.249  53.890  1.00  0.00     0.140 A 
ENDROOT
BRANCH   6   9
HETATM    9  C6  UNL     1      23.527   2.206  52.236  1.00  0.00     0.029 C 
HETATM   10  C7  UNL     1      23.432   3.503  52.483  1.00  0.00    -0.009 C 
BRANCH  10  11
HETATM   11  C8  UNL     1      22.217   4.324  52.178  1.00  0.00     0.137 C 
BRANCH  11  12
HETATM   12  N2  UNL     1      22.642   5.731  52.224  1.00  0.00    -0.233 NA
HETATM   13  H7  UNL     1      22.303   6.184  53.099  1.00  0.00     0.146 HD
BRANCH  12  14
HETATM   14  N3  UNL     1      24.018   5.844  52.157  1.00  0.00    -0.273 N 
HETATM   15  C9  UNL     1      24.447   6.688  51.093  1.00  0.00     0.335 C 
HETATM   16  O1  UNL     1      23.604   7.244  50.329  1.00  0.00    -0.246 OA
HETATM   17  N4  UNL     1      25.835   6.957  50.826  1.00  0.00    -0.308 N 
HETATM   18  H9  UNL     1      26.561   6.516  51.437  1.00  0.00     0.170 HD
HETATM   19  H8  UNL     1      24.815   5.440  52.722  1.00  0.00     0.185 HD
BRANCH  17  20
HETATM   20  C10 UNL     1      26.227   7.810  49.750  1.00  0.00     0.038 A 
HETATM   21  C11 UNL     1      26.592   7.056  48.635  1.00  0.00     0.032 A 
HETATM   22  C12 UNL     1      27.011   7.667  47.465  1.00  0.00     0.046 A 
HETATM   23  C13 UNL     1      27.060   9.045  47.417  1.00  0.00     0.138 A 
HETATM   24  F1  UNL     1      27.466   9.681  46.285  1.00  0.00    -0.204 F 
HETATM   25  C14 UNL     1      26.699   9.783  48.519  1.00  0.00     0.074 A 
HETATM   26 CL1  UNL     1      26.739  11.546  48.529  1.00  0.00    -0.081 Cl
HETATM   27  C15 UNL     1      26.285   9.195  49.680  1.00  0.00     0.056 A 
ENDBRANCH  17  20
ENDBRANCH  12  14
ENDBRANCH  11  12
ENDBRANCH  10  11
ENDBRANCH   6   9
TORSDOF 5
ENDMDL
MODEL 3
REMARK VINA RESULT:      -7.4      4.913      8.950
REMARK  5 active torsions:
REMARK  status: ('A' for Active; 'I' for Inactive)
REMARK    1  A    between atoms: C5_6  and  C6_7 
REMARK    2  A    between atoms: C7_8  and  C8_9 
REMARK    3  A    between atoms: C8_9  and  N2_10 
REMARK    4  A    between atoms: N2_10  and  N3_11 
REMARK       I    between atoms: N3_11  and  C9_12 
REMARK       I    between atoms: C9_12  and  N4_14 
REMARK    5  A    between atoms: N4_14  and  C10_15 
ROOT
HETATM    1  N1  UNL     1      27.684  -2.817  52.642  1.00  0.00    -0.191 NA
HETATM    2  C1  UNL     1      27.052  -1.847  52.725  1.00  0.00     0.101 C 
HETATM    3  C2  UNL     1      26.287  -0.636  52.832  1.00  0.00     0.062 A 
HETATM    4  C3  UNL     1      26.896   0.511  52.357  1.00  0.00     0.026 A 
HETATM    5  C4  UNL     1      26.239   1.724  52.416  1.00  0.00     0.033 A 
HETATM    6  C5  UNL     1      24.974   1.728  52.964  1.00  0.00     0.056 A 
HETATM    7  N5  UNL     1      24.396   0.604  53.423  1.00  0.00    -0.260 NA
HETATM    8  C16 UNL     1      25.012  -0.595  53.378  1.00  0.00     0.140 A 
ENDROOT
BRANCH   6   9
HETATM    9  C6  UNL     1      24.229   2.978  53.056  1.00  0.00     0.029 C 
HETATM   10  C7  UNL     1      24.009   3.776  52.023  1.00  0.00    -0.009 C 
BRANCH  10  11
HETATM   11  C8  UNL     1      23.243   5.061  52.110  1.00  0.00     0.137 C 
BRANCH  11  12
HETATM   12  N2  UNL     1      23.719   5.904  51.003  1.00  0.00    -0.233 NA
HETATM   13  H7  UNL     1      22.920   6.397  50.551  1.00  0.00     0.146 HD
BRANCH  12  14
HETATM   14  N3  UNL     1      24.641   6.837  51.439  1.00  0.00    -0.273 N 
HETATM   15  C9  UNL     1      25.550   7.229  50.416  1.00  0.00     0.335 C 
HETATM   16  O1  UNL     1      25.466   6.736  49.253  1.00  0.00    -0.246 OA
HETATM   17  N4  UNL     1      26.599   8.190  50.635  1.00  0.00    -0.308 N 
HETATM   18  H9  UNL     1      26.700   8.619  51.584  1.00  0.00     0.170 HD
HETATM   19  H8  UNL     1      24.814   7.318  52.364  1.00  0.00     0.185 HD
BRANCH  17  20
HETATM   20  C10 UNL     1      27.492   8.559  49.584  1.00  0.00     0.038 A 
HETATM   21  C11 UNL     1      27.658   9.943  49.542  1.00  0.00     0.032 A 
HETATM   22  C12 UNL     1      28.482  10.537  48.602  1.00  0.00     0.046 A 
HETATM   23  C13 UNL     1      29.146   9.732  47.699  1.00  0.00     0.138 A 
HETATM   24  F1  UNL     1      29.964  10.279  46.760  1.00  0.00    -0.204 F 
HETATM   25  C14 UNL     1      28.979   8.368  47.744  1.00  0.00     0.074 A 
HETATM   26 CL1  UNL     1      29.795   7.280  46.621  1.00  0.00    -0.081 Cl
HETATM   27  C15 UNL     1      28.169   7.768  48.666  1.00  0.00     0.056 A 
ENDBRANCH  17  20
ENDBRANCH  12  14
ENDBRANCH  11  12
ENDBRANCH  10  11
ENDBRANCH   6   9
TORSDOF 5
ENDMDL
MODEL 4
REMARK VINA RESULT:      -7.3      4.483      8.149
REMARK  5 active torsions:
REMARK  status: ('A' for Active; 'I' for Inactive)
REMARK    1  A    between atoms: C5_6  and  C6_7 
REMARK    2  A    between atoms: C7_8  and  C8_9 
REMARK    3  A    between atoms: C8_9  and  N2_10 
REMARK    4  A    between atoms: N2_10  and  N3_11 
REMARK       I    between atoms: N3_11  and  C9_12 
REMARK       I    between atoms: C9_12  and  N4_14 
REMARK    5  A    between atoms: N4_14  and  C10_15 
ROOT
HETATM    1  N1  UNL     1      29.089  -0.914  54.247  1.00  0.00    -0.191 NA
HETATM    2  C1  UNL     1      28.177  -0.257  53.960  1.00  0.00     0.101 C 
HETATM    3  C2  UNL     1      27.037   0.540  53.597  1.00  0.00     0.062 A 
HETATM    4  C3  UNL     1      25.807  -0.086  53.679  1.00  0.00     0.026 A 
HETATM    5  C4  UNL     1      24.654   0.598  53.351  1.00  0.00     0.033 A 
HETATM    6  C5  UNL     1      24.794   1.908  52.945  1.00  0.00     0.056 A 
HETATM    7  N5  UNL     1      25.998   2.503  52.870  1.00  0.00    -0.260 NA
HETATM    8  C16 UNL     1      27.142   1.860  53.184  1.00  0.00     0.140 A 
ENDROOT
BRANCH   6   9
HETATM    9  C6  UNL     1      23.614   2.685  52.584  1.00  0.00     0.029 C 
HETATM   10  C7  UNL     1      23.525   3.996  52.742  1.00  0.00    -0.009 C 
BRANCH  10  11
HETATM   11  C8  UNL     1      22.316   4.800  52.373  1.00  0.00     0.137 C 
BRANCH  11  12
HETATM   12  N2  UNL     1      22.803   5.952  51.599  1.00  0.00    -0.233 NA
HETATM   13  H7  UNL     1      23.593   6.416  52.096  1.00  0.00     0.146 HD
BRANCH  12  14
HETATM   14  N3  UNL     1      23.219   5.574  50.337  1.00  0.00    -0.273 N 
HETATM   15  C9  UNL     1      24.534   6.028  50.034  1.00  0.00     0.335 C 
HETATM   16  O1  UNL     1      25.195   6.703  50.877  1.00  0.00    -0.246 OA
HETATM   17  N4  UNL     1      25.180   5.755  48.777  1.00  0.00    -0.308 N 
HETATM   18  H9  UNL     1      24.664   5.200  48.055  1.00  0.00     0.170 HD
HETATM   19  H8  UNL     1      22.772   5.022  49.553  1.00  0.00     0.185 HD
BRANCH  17  20
HETATM   20  C10 UNL     1      26.500   6.228  48.509  1.00  0.00     0.038 A 
HETATM   21  C11 UNL     1      27.421   5.183  48.584  1.00  0.00     0.032 A 
HETATM   22  C12 UNL     1      28.769   5.402  48.360  1.00  0.00     0.046 A 
HETATM   23  C13 UNL     1      29.194   6.679  48.058  1.00  0.00     0.138 A 
HETATM   24  F1  UNL     1      30.511   6.933  47.832  1.00  0.00    -0.204 F 
HETATM   25  C14 UNL     1      28.282   7.705  47.986  1.00  0.00     0.074 A 
HETATM   26 CL1  UNL     1      28.753   9.361  47.605  1.00  0.00    -0.081 Cl
HETATM   27  C15 UNL     1      26.948   7.506  48.203  1.00  0.00     0.056 A 
ENDBRANCH  17  20
ENDBRANCH  12  14
ENDBRANCH  11  12
ENDBRANCH  10  11
ENDBRANCH   6   9
TORSDOF 5
ENDMDL
MODEL 5
REMARK VINA RESULT:      -7.3      2.065      2.500
REMARK  5 active torsions:
REMARK  status: ('A' for Active; 'I' for Inactive)
REMARK    1  A    between atoms: C5_6  and  C6_7 
REMARK    2  A    between atoms: C7_8  and  C8_9 
REMARK    3  A    between atoms: C8_9  and  N2_10 
REMARK    4  A    between atoms: N2_10  and  N3_11 
REMARK       I    between atoms: N3_11  and  C9_12 
REMARK       I    between atoms: C9_12  and  N4_14 
REMARK    5  A    between atoms: N4_14  and  C10_15 
ROOT
HETATM    1  N1  UNL     1      36.114   6.416  48.820  1.00  0.00    -0.191 NA
HETATM    2  C1  UNL     1      34.970   6.496  48.642  1.00  0.00     0.101 C 
HETATM    3  C2  UNL     1      33.555   6.617  48.426  1.00  0.00     0.062 A 
HETATM    4  C3  UNL     1      33.124   7.805  47.866  1.00  0.00     0.026 A 
HETATM    5  C4  UNL     1      31.782   8.014  47.621  1.00  0.00     0.033 A 
HETATM    6  C5  UNL     1      30.915   6.996  47.959  1.00  0.00     0.056 A 
HETATM    7  N5  UNL     1      31.350   5.846  48.503  1.00  0.00    -0.260 NA
HETATM    8  C16 UNL     1      32.654   5.613  48.754  1.00  0.00     0.140 A 
ENDROOT
BRANCH   6   9
HETATM    9  C6  UNL     1      29.485   7.155  47.725  1.00  0.00     0.029 C 
HETATM   10  C7  UNL     1      28.563   6.378  48.270  1.00  0.00    -0.009 C 
BRANCH  10  11
HETATM   11  C8  UNL     1      27.092   6.536  48.034  1.00  0.00     0.137 C 
BRANCH  11  12
HETATM   12  N2  UNL     1      26.452   5.329  48.578  1.00  0.00    -0.233 NA
HETATM   13  H7  UNL     1      26.485   4.554  47.881  1.00  0.00     0.146 HD
BRANCH  12  14
HETATM   14  N3  UNL     1      27.062   4.916  49.747  1.00  0.00    -0.273 N 
HETATM   15  C9  UNL     1      26.488   3.725  50.274  1.00  0.00     0.335 C 
HETATM   16  O1  UNL     1      25.523   3.157  49.684  1.00  0.00    -0.246 OA
HETATM   17  N4  UNL     1      26.959   3.106  51.485  1.00  0.00    -0.308 N 
HETATM   18  H9  UNL     1      27.756   3.547  52.000  1.00  0.00     0.170 HD
HETATM   19  H8  UNL     1      27.860   5.294  50.329  1.00  0.00     0.185 HD
BRANCH  17  20
HETATM   20  C10 UNL     1      26.357   1.911  51.984  1.00  0.00     0.038 A 
HETATM   21  C11 UNL     1      25.129   2.191  52.581  1.00  0.00     0.032 A 
HETATM   22  C12 UNL     1      24.358   1.186  53.139  1.00  0.00     0.046 A 
HETATM   23  C13 UNL     1      24.827  -0.111  53.094  1.00  0.00     0.138 A 
HETATM   24  F1  UNL     1      24.098  -1.126  53.632  1.00  0.00    -0.204 F 
HETATM   25  C14 UNL     1      26.039  -0.383  52.504  1.00  0.00     0.074 A 
HETATM   26 CL1  UNL     1      26.699  -2.015  52.412  1.00  0.00    -0.081 Cl
HETATM   27  C15 UNL     1      26.810   0.599  51.950  1.00  0.00     0.056 A 
ENDBRANCH  17  20
ENDBRANCH  12  14
ENDBRANCH  11  12
ENDBRANCH  10  11
ENDBRANCH   6   9
TORSDOF 5
ENDMDL
MODEL 6
REMARK VINA RESULT:      -7.2     10.824     13.650
REMARK  5 active torsions:
REMARK  status: ('A' for Active; 'I' for Inactive)
REMARK    1  A    between atoms: C5_6  and  C6_7 
REMARK    2  A    between atoms: C7_8  and  C8_9 
REMARK    3  A    between atoms: C8_9  and  N2_10 
REMARK    4  A    between atoms: N2_10  and  N3_11 
REMARK       I    between atoms: N3_11  and  C9_12 
REMARK       I    between atoms: C9_12  and  N4_14 
REMARK    5  A    between atoms: N4_14  and  C10_15 
ROOT
HETATM    1  N1  UNL     1      22.669  -1.779  55.561  1.00  0.00    -0.191 NA
HETATM    2  C1  UNL     1      22.015  -1.188  54.806  1.00  0.00     0.101 C 
HETATM    3  C2  UNL     1      21.216  -0.439  53.876  1.00  0.00     0.062 A 
HETATM    4  C3  UNL     1      21.856   0.599  53.223  1.00  0.00     0.026 A 
HETATM    5  C4  UNL     1      21.171   1.375  52.311  1.00  0.00     0.033 A 
HETATM    6  C5  UNL     1      19.844   1.068  52.093  1.00  0.00     0.056 A 
HETATM    7  N5  UNL     1      19.236   0.055  52.737  1.00  0.00    -0.260 NA
HETATM    8  C16 UNL     1      19.879  -0.721  53.633  1.00  0.00     0.140 A 
ENDROOT
BRANCH   6   9
HETATM    9  C6  UNL     1      19.066   1.852  51.142  1.00  0.00     0.029 C 
HETATM   10  C7  UNL     1      19.176   3.164  51.012  1.00  0.00    -0.009 C 
BRANCH  10  11
HETATM   11  C8  UNL     1      18.379   3.976  50.036  1.00  0.00     0.137 C 
BRANCH  11  12
HETATM   12  N2  UNL     1      17.492   4.834  50.836  1.00  0.00    -0.233 NA
HETATM   13  H7  UNL     1      17.713   5.839  50.670  1.00  0.00     0.146 HD
BRANCH  12  14
HETATM   14  N3  UNL     1      16.163   4.605  50.536  1.00  0.00    -0.273 N 
HETATM   15  C9  UNL     1      15.431   4.093  51.645  1.00  0.00     0.335 C 
HETATM   16  O1  UNL     1      16.000   3.893  52.758  1.00  0.00    -0.246 OA
HETATM   17  N4  UNL     1      14.029   3.778  51.571  1.00  0.00    -0.308 N 
HETATM   18  H9  UNL     1      13.524   3.931  50.667  1.00  0.00     0.170 HD
HETATM   19  H8  UNL     1      15.577   4.728  49.664  1.00  0.00     0.185 HD
BRANCH  17  20
HETATM   20  C10 UNL     1      13.328   3.266  52.705  1.00  0.00     0.038 A 
HETATM   21  C11 UNL     1      12.689   4.296  53.394  1.00  0.00     0.032 A 
HETATM   22  C12 UNL     1      11.944   4.040  54.533  1.00  0.00     0.046 A 
HETATM   23  C13 UNL     1      11.840   2.739  54.979  1.00  0.00     0.138 A 
HETATM   24  F1  UNL     1      11.118   2.448  56.094  1.00  0.00    -0.204 F 
HETATM   25  C14 UNL     1      12.473   1.727  54.296  1.00  0.00     0.074 A 
HETATM   26 CL1  UNL     1      12.385   0.043  54.810  1.00  0.00    -0.081 Cl
HETATM   27  C15 UNL     1      13.211   1.964  53.172  1.00  0.00     0.056 A 
ENDBRANCH  17  20
ENDBRANCH  12  14
ENDBRANCH  11  12
ENDBRANCH  10  11
ENDBRANCH   6   9
TORSDOF 5
ENDMDL
MODEL 7
REMARK VINA RESULT:      -7.2      4.190      8.327
REMARK  5 active torsions:
REMARK  status: ('A' for Active; 'I' for Inactive)
REMARK    1  A    between atoms: C5_6  and  C6_7 
REMARK    2  A    between atoms: C7_8  and  C8_9 
REMARK    3  A    between atoms: C8_9  and  N2_10 
REMARK    4  A    between atoms: N2_10  and  N3_11 
REMARK       I    between atoms: N3_11  and  C9_12 
REMARK       I    between atoms: C9_12  and  N4_14 
REMARK    5  A    between atoms: N4_14  and  C10_15 
ROOT
HETATM    1  N1  UNL     1      26.909  -0.097  55.213  1.00  0.00    -0.191 NA
HETATM    2  C1  UNL     1      26.650   0.589  54.313  1.00  0.00     0.101 C 
HETATM    3  C2  UNL     1      26.312   1.428  53.197  1.00  0.00     0.062 A 
HETATM    4  C3  UNL     1      24.979   1.778  53.082  1.00  0.00     0.026 A 
HETATM    5  C4  UNL     1      24.557   2.582  52.043  1.00  0.00     0.033 A 
HETATM    6  C5  UNL     1      25.515   3.006  51.146  1.00  0.00     0.056 A 
HETATM    7  N5  UNL     1      26.808   2.656  51.271  1.00  0.00    -0.260 NA
HETATM    8  C16 UNL     1      27.250   1.872  52.276  1.00  0.00     0.140 A 
ENDROOT
BRANCH   6   9
HETATM    9  C6  UNL     1      25.133   3.857  50.025  1.00  0.00     0.029 C 
HETATM   10  C7  UNL     1      25.719   5.011  49.750  1.00  0.00    -0.009 C 
BRANCH  10  11
HETATM   11  C8  UNL     1      25.331   5.890  48.601  1.00  0.00     0.137 C 
BRANCH  11  12
HETATM   12  N2  UNL     1      26.522   6.686  48.266  1.00  0.00    -0.233 NA
HETATM   13  H7  UNL     1      26.319   7.703  48.365  1.00  0.00     0.146 HD
BRANCH  12  14
HETATM   14  N3  UNL     1      27.594   6.355  49.073  1.00  0.00    -0.273 N 
HETATM   15  C9  UNL     1      28.848   6.590  48.442  1.00  0.00     0.335 C 
HETATM   16  O1  UNL     1      28.903   7.054  47.266  1.00  0.00    -0.246 OA
HETATM   17  N4  UNL     1      30.105   6.320  49.089  1.00  0.00    -0.308 N 
HETATM   18  H9  UNL     1      30.099   5.936  50.062  1.00  0.00     0.170 HD
HETATM   19  H8  UNL     1      27.680   5.967  50.053  1.00  0.00     0.185 HD
BRANCH  17  20
HETATM   20  C10 UNL     1      31.344   6.568  48.424  1.00  0.00     0.038 A 
HETATM   21  C11 UNL     1      31.807   7.852  48.710  1.00  0.00     0.032 A 
HETATM   22  C12 UNL     1      32.996   8.319  48.176  1.00  0.00     0.046 A 
HETATM   23  C13 UNL     1      33.723   7.488  47.349  1.00  0.00     0.138 A 
HETATM   24  F1  UNL     1      34.896   7.912  46.805  1.00  0.00    -0.204 F 
HETATM   25  C14 UNL     1      33.262   6.224  47.070  1.00  0.00     0.074 A 
HETATM   26 CL1  UNL     1      34.140   5.109  46.022  1.00  0.00    -0.081 Cl
HETATM   27  C15 UNL     1      32.092   5.748  47.590  1.00  0.00     0.056 A 
ENDBRANCH  17  20
ENDBRANCH  12  14
ENDBRANCH  11  12
ENDBRANCH  10  11
ENDBRANCH   6   9
TORSDOF 5
ENDMDL
MODEL 8
REMARK VINA RESULT:      -7.2      3.965      8.538
REMARK  5 active torsions:
REMARK  status: ('A' for Active; 'I' for Inactive)
REMARK    1  A    between atoms: C5_6  and  C6_7 
REMARK    2  A    between atoms: C7_8  and  C8_9 
REMARK    3  A    between atoms: C8_9  and  N2_10 
REMARK    4  A    between atoms: N2_10  and  N3_11 
REMARK       I    between atoms: N3_11  and  C9_12 
REMARK       I    between atoms: C9_12  and  N4_14 
REMARK    5  A    between atoms: N4_14  and  C10_15 
ROOT
HETATM    1  N1  UNL     1      23.160   0.217  53.155  1.00  0.00    -0.191 NA
HETATM    2  C1  UNL     1      23.840   0.903  52.512  1.00  0.00     0.101 C 
HETATM    3  C2  UNL     1      24.668   1.752  51.700  1.00  0.00     0.062 A 
HETATM    4  C3  UNL     1      24.005   2.683  50.922  1.00  0.00     0.026 A 
HETATM    5  C4  UNL     1      24.715   3.543  50.109  1.00  0.00     0.033 A 
HETATM    6  C5  UNL     1      26.089   3.425  50.115  1.00  0.00     0.056 A 
HETATM    7  N5  UNL     1      26.719   2.514  50.878  1.00  0.00    -0.260 NA
HETATM    8  C16 UNL     1      26.052   1.661  51.682  1.00  0.00     0.140 A 
ENDROOT
BRANCH   6   9
HETATM    9  C6  UNL     1      26.895   4.305  49.278  1.00  0.00     0.029 C 
HETATM   10  C7  UNL     1      26.555   5.550  48.984  1.00  0.00    -0.009 C 
BRANCH  10  11
HETATM   11  C8  UNL     1      27.379   6.460  48.125  1.00  0.00     0.137 C 
BRANCH  11  12
HETATM   12  N2  UNL     1      28.388   7.064  49.007  1.00  0.00    -0.233 NA
HETATM   13  H7  UNL     1      28.781   6.348  49.655  1.00  0.00     0.146 HD
BRANCH  12  14
HETATM   14  N3  UNL     1      29.417   7.634  48.282  1.00  0.00    -0.273 N 
HETATM   15  C9  UNL     1      30.390   6.681  47.868  1.00  0.00     0.335 C 
HETATM   16  O1  UNL     1      30.264   5.457  48.168  1.00  0.00    -0.246 OA
HETATM   17  N4  UNL     1      31.553   7.041  47.100  1.00  0.00    -0.308 N 
HETATM   18  H9  UNL     1      31.691   8.043  46.834  1.00  0.00     0.170 HD
HETATM   19  H8  UNL     1      29.634   8.621  47.971  1.00  0.00     0.185 HD
BRANCH  17  20
HETATM   20  C10 UNL     1      32.508   6.056  46.704  1.00  0.00     0.038 A 
HETATM   21  C11 UNL     1      32.629   6.020  45.315  1.00  0.00     0.032 A 
HETATM   22  C12 UNL     1      33.500   5.140  44.696  1.00  0.00     0.046 A 
HETATM   23  C13 UNL     1      34.255   4.291  45.479  1.00  0.00     0.138 A 
HETATM   24  F1  UNL     1      35.121   3.413  44.907  1.00  0.00    -0.204 F 
HETATM   25  C14 UNL     1      34.131   4.331  46.848  1.00  0.00     0.074 A 
HETATM   26 CL1  UNL     1      35.063   3.276  47.910  1.00  0.00    -0.081 Cl
HETATM   27  C15 UNL     1      33.277   5.194  47.474  1.00  0.00     0.056 A 
ENDBRANCH  17  20
ENDBRANCH  12  14
ENDBRANCH  11  12
ENDBRANCH  10  11
ENDBRANCH   6   9
TORSDOF 5
ENDMDL
MODEL 9
REMARK VINA RESULT:      -7.1      6.334      8.049
REMARK  5 active torsions:
REMARK  status: ('A' for Active; 'I' for Inactive)
REMARK    1  A    between atoms: C5_6  and  C6_7 
REMARK    2  A    between atoms: C7_8  and  C8_9 
REMARK    3  A    between atoms: C8_9  and  N2_10 
REMARK    4  A    between atoms: N2_10  and  N3_11 
REMARK       I    between atoms: N3_11  and  C9_12 
REMARK       I    between atoms: C9_12  and  N4_14 
REMARK    5  A    between atoms: N4_14  and  C10_15 
ROOT
HETATM    1  N1  UNL     1      21.405   6.362  48.512  1.00  0.00    -0.191 NA
HETATM    2  C1  UNL     1      21.199   5.509  49.271  1.00  0.00     0.101 C 
HETATM    3  C2  UNL     1      20.962   4.457  50.221  1.00  0.00     0.062 A 
HETATM    4  C3  UNL     1      21.404   4.690  51.510  1.00  0.00     0.026 A 
HETATM    5  C4  UNL     1      21.221   3.739  52.492  1.00  0.00     0.033 A 
HETATM    6  C5  UNL     1      20.590   2.569  52.126  1.00  0.00     0.056 A 
HETATM    7  N5  UNL     1      20.166   2.357  50.867  1.00  0.00    -0.260 NA
HETATM    8  C16 UNL     1      20.330   3.268  49.886  1.00  0.00     0.140 A 
ENDROOT
BRANCH   6   9
HETATM    9  C6  UNL     1      20.367   1.524  53.118  1.00  0.00     0.029 C 
HETATM   10  C7  UNL     1      21.292   0.649  53.478  1.00  0.00    -0.009 C 
BRANCH  10  11
HETATM   11  C8  UNL     1      21.070  -0.427  54.497  1.00  0.00     0.137 C 
BRANCH  11  12
HETATM   12  N2  UNL     1      22.334  -1.172  54.597  1.00  0.00    -0.233 NA
HETATM   13  H7  UNL     1      22.147  -2.189  54.726  1.00  0.00     0.146 HD
BRANCH  12  14
HETATM   14  N3  UNL     1      23.117  -0.992  53.473  1.00  0.00    -0.273 N 
HETATM   15  C9  UNL     1      24.492  -0.802  53.787  1.00  0.00     0.335 C 
HETATM   16  O1  UNL     1      24.888  -0.810  54.990  1.00  0.00    -0.246 OA
HETATM   17  N4  UNL     1      25.498  -0.595  52.779  1.00  0.00    -0.308 N 
HETATM   18  H9  UNL     1      25.209  -0.583  51.773  1.00  0.00     0.170 HD
HETATM   19  H8  UNL     1      22.913  -0.964  52.436  1.00  0.00     0.185 HD
BRANCH  17  20
HETATM   20  C10 UNL     1      26.869  -0.409  53.132  1.00  0.00     0.038 A 
HETATM   21  C11 UNL     1      27.599  -1.574  52.902  1.00  0.00     0.032 A 
HETATM   22  C12 UNL     1      28.955  -1.633  53.171  1.00  0.00     0.046 A 
HETATM   23  C13 UNL     1      29.582  -0.511  53.673  1.00  0.00     0.138 A 
HETATM   24  F1  UNL     1      30.913  -0.531  53.950  1.00  0.00    -0.204 F 
HETATM   25  C14 UNL     1      28.857   0.636  53.898  1.00  0.00     0.074 A 
HETATM   26 CL1  UNL     1      29.592   2.105  54.539  1.00  0.00    -0.081 Cl
HETATM   27  C15 UNL     1      27.519   0.709  53.638  1.00  0.00     0.056 A 
ENDBRANCH  17  20
ENDBRANCH  12  14
ENDBRANCH  11  12
ENDBRANCH  10  11
ENDBRANCH   6   9
TORSDOF 5
ENDMDL
