MODEL 1
REMARK VINA RESULT:      -6.9      0.000      0.000
REMARK  5 active torsions:
REMARK  status: ('A' for Active; 'I' for Inactive)
REMARK    1  A    between atoms: C4_5  and  C5_6 
REMARK    2  A    between atoms: C5_6  and  O1_7 
REMARK    3  A    between atoms: O1_7  and  C6_8 
REMARK    4  A    between atoms: C10_14  and  O2_15 
REMARK    5  A    between atoms: C12_17  and  O3_18 
ROOT
HETATM    1  C1  UNL     1      23.561   3.500  52.482  1.00  0.00     0.018 C 
HETATM    2  C2  UNL     1      24.568   3.212  51.882  1.00  0.00    -0.070 C 
HETATM    3  C3  UNL     1      25.758   2.883  51.148  1.00  0.00     0.061 C 
HETATM    4 BR1  UNL     1      26.304   3.800  49.566  1.00  0.00    -0.041 Br
HETATM    5  C4  UNL     1      26.517   1.893  51.591  1.00  0.00     0.028 C 
ENDROOT
BRANCH   5   6
HETATM    6  C5  UNL     1      26.271   1.073  52.777  1.00  0.00     0.207 C 
BRANCH   6   7
HETATM    7  O1  UNL     1      25.139   0.230  52.640  1.00  0.00    -0.330 OA
BRANCH   7   8
HETATM    8  C6  UNL     1      24.493  -0.375  53.689  1.00  0.00     0.178 A 
HETATM    9  N1  UNL     1      25.070  -0.899  54.789  1.00  0.00    -0.217 NA
HETATM   10  C7  UNL     1      24.296  -1.466  55.744  1.00  0.00     0.236 A 
HETATM   11  N2  UNL     1      22.957  -1.536  55.659  1.00  0.00    -0.241 NA
HETATM   12  C8  UNL     1      22.332  -1.023  54.574  1.00  0.00     0.075 A 
HETATM   13  C9  UNL     1      20.959  -1.117  54.526  1.00  0.00     0.072 A 
HETATM   14  C15 UNL     1      23.104  -0.440  53.584  1.00  0.00     0.048 A 
HETATM   15  C10 UNL     1      20.319  -0.589  53.409  1.00  0.00     0.103 A 
HETATM   16  C12 UNL     1      21.061  -0.003  52.411  1.00  0.00     0.102 A 
HETATM   17  C14 UNL     1      22.436   0.081  52.477  1.00  0.00     0.057 A 
BRANCH  15  18
HETATM   18  O2  UNL     1      18.943  -0.633  53.266  1.00  0.00    -0.353 OA
HETATM   19  C11 UNL     1      18.252  -1.851  53.435  1.00  0.00     0.210 C 
ENDBRANCH  15  18
BRANCH  16  20
HETATM   20  O3  UNL     1      20.407   0.527  51.288  1.00  0.00    -0.353 OA
HETATM   21  C13 UNL     1      20.400   1.935  51.129  1.00  0.00     0.210 C 
ENDBRANCH  16  20
ENDBRANCH   7   8
ENDBRANCH   6   7
ENDBRANCH   5   6
TORSDOF 5
ENDMDL
MODEL 2
REMARK VINA RESULT:      -6.8      2.157      5.255
REMARK  5 active torsions:
REMARK  status: ('A' for Active; 'I' for Inactive)
REMARK    1  A    between atoms: C4_5  and  C5_6 
REMARK    2  A    between atoms: C5_6  and  O1_7 
REMARK    3  A    between atoms: O1_7  and  C6_8 
REMARK    4  A    between atoms: C10_14  and  O2_15 
REMARK    5  A    between atoms: C12_17  and  O3_18 
ROOT
HETATM    1  C1  UNL     1      21.884   1.429  48.844  1.00  0.00     0.018 C 
HETATM    2  C2  UNL     1      22.058   2.100  49.833  1.00  0.00    -0.070 C 
HETATM    3  C3  UNL     1      22.277   2.915  50.994  1.00  0.00     0.061 C 
HETATM    4 BR1  UNL     1      22.867   4.728  50.910  1.00  0.00    -0.041 Br
HETATM    5  C4  UNL     1      22.059   2.383  52.187  1.00  0.00     0.028 C 
ENDROOT
BRANCH   5   6
HETATM    6  C5  UNL     1      21.607   1.019  52.460  1.00  0.00     0.207 C 
BRANCH   6   7
HETATM    7  O1  UNL     1      22.660   0.069  52.410  1.00  0.00    -0.330 OA
BRANCH   7   8
HETATM    8  C6  UNL     1      23.369  -0.357  53.504  1.00  0.00     0.178 A 
HETATM    9  N1  UNL     1      22.890  -1.078  54.538  1.00  0.00    -0.217 NA
HETATM   10  C7  UNL     1      23.717  -1.425  55.551  1.00  0.00     0.236 A 
HETATM   11  N2  UNL     1      25.017  -1.087  55.588  1.00  0.00    -0.241 NA
HETATM   12  C8  UNL     1      25.544  -0.364  54.573  1.00  0.00     0.075 A 
HETATM   13  C9  UNL     1      26.880  -0.038  54.650  1.00  0.00     0.072 A 
HETATM   14  C15 UNL     1      24.716   0.003  53.526  1.00  0.00     0.048 A 
HETATM   15  C10 UNL     1      27.420   0.706  53.605  1.00  0.00     0.103 A 
HETATM   16  C12 UNL     1      26.620   1.083  52.552  1.00  0.00     0.102 A 
HETATM   17  C14 UNL     1      25.284   0.747  52.494  1.00  0.00     0.057 A 
BRANCH  15  18
HETATM   18  O2  UNL     1      28.752   1.084  53.588  1.00  0.00    -0.353 OA
HETATM   19  C11 UNL     1      29.766   0.104  53.605  1.00  0.00     0.210 C 
ENDBRANCH  15  18
BRANCH  16  20
HETATM   20  O3  UNL     1      27.172   1.833  51.503  1.00  0.00    -0.353 OA
HETATM   21  C13 UNL     1      26.330   2.755  50.834  1.00  0.00     0.210 C 
ENDBRANCH  16  20
ENDBRANCH   7   8
ENDBRANCH   6   7
ENDBRANCH   5   6
TORSDOF 5
ENDMDL
MODEL 3
REMARK VINA RESULT:      -6.7      2.414      4.129
REMARK  5 active torsions:
REMARK  status: ('A' for Active; 'I' for Inactive)
REMARK    1  A    between atoms: C4_5  and  C5_6 
REMARK    2  A    between atoms: C5_6  and  O1_7 
REMARK    3  A    between atoms: O1_7  and  C6_8 
REMARK    4  A    between atoms: C10_14  and  O2_15 
REMARK    5  A    between atoms: C12_17  and  O3_18 
ROOT
HETATM    1  C1  UNL     1      29.252  -1.541  53.423  1.00  0.00     0.018 C 
HETATM    2  C2  UNL     1      28.649  -0.516  53.634  1.00  0.00    -0.070 C 
HETATM    3  C3  UNL     1      27.953   0.715  53.883  1.00  0.00     0.061 C 
HETATM    4 BR1  UNL     1      28.740   2.436  53.634  1.00  0.00    -0.041 Br
HETATM    5  C4  UNL     1      26.701   0.655  54.309  1.00  0.00     0.028 C 
ENDROOT
BRANCH   5   6
HETATM    6  C5  UNL     1      25.926  -0.560  54.560  1.00  0.00     0.207 C 
BRANCH   6   7
HETATM    7  O1  UNL     1      24.890  -0.759  53.611  1.00  0.00    -0.330 OA
BRANCH   7   8
HETATM    8  C6  UNL     1      23.571  -0.449  53.829  1.00  0.00     0.178 A 
HETATM    9  N1  UNL     1      22.762  -1.001  54.755  1.00  0.00    -0.217 NA
HETATM   10  C7  UNL     1      21.477  -0.589  54.850  1.00  0.00     0.236 A 
HETATM   11  N2  UNL     1      20.948   0.361  54.060  1.00  0.00    -0.241 NA
HETATM   12  C8  UNL     1      21.722   0.945  53.116  1.00  0.00     0.075 A 
HETATM   13  C9  UNL     1      21.141   1.912  52.326  1.00  0.00     0.072 A 
HETATM   14  C15 UNL     1      23.040   0.538  53.000  1.00  0.00     0.048 A 
HETATM   15  C10 UNL     1      21.939   2.512  51.357  1.00  0.00     0.103 A 
HETATM   16  C12 UNL     1      23.252   2.127  51.220  1.00  0.00     0.102 A 
HETATM   17  C14 UNL     1      23.815   1.155  52.020  1.00  0.00     0.057 A 
BRANCH  15  18
HETATM   18  O2  UNL     1      21.451   3.495  50.513  1.00  0.00    -0.353 OA
HETATM   19  C11 UNL     1      20.945   4.699  51.047  1.00  0.00     0.210 C 
ENDBRANCH  15  18
BRANCH  16  20
HETATM   20  O3  UNL     1      24.049   2.736  50.239  1.00  0.00    -0.353 OA
HETATM   21  C13 UNL     1      24.804   3.876  50.612  1.00  0.00     0.210 C 
ENDBRANCH  16  20
ENDBRANCH   7   8
ENDBRANCH   6   7
ENDBRANCH   5   6
TORSDOF 5
ENDMDL
MODEL 4
REMARK VINA RESULT:      -6.7      2.661      3.905
REMARK  5 active torsions:
REMARK  status: ('A' for Active; 'I' for Inactive)
REMARK    1  A    between atoms: C4_5  and  C5_6 
REMARK    2  A    between atoms: C5_6  and  O1_7 
REMARK    3  A    between atoms: O1_7  and  C6_8 
REMARK    4  A    between atoms: C10_14  and  O2_15 
REMARK    5  A    between atoms: C12_17  and  O3_18 
ROOT
HETATM    1  C1  UNL     1      24.908   6.663  48.643  1.00  0.00     0.018 C 
HETATM    2  C2  UNL     1      25.970   6.088  48.653  1.00  0.00    -0.070 C 
HETATM    3  C3  UNL     1      27.242   5.423  48.651  1.00  0.00     0.061 C 
HETATM    4 BR1  UNL     1      28.866   6.262  48.102  1.00  0.00    -0.041 Br
HETATM    5  C4  UNL     1      27.294   4.162  49.050  1.00  0.00     0.028 C 
ENDROOT
BRANCH   5   6
HETATM    6  C5  UNL     1      26.167   3.348  49.506  1.00  0.00     0.207 C 
BRANCH   6   7
HETATM    7  O1  UNL     1      25.968   3.417  50.909  1.00  0.00    -0.330 OA
BRANCH   7   8
HETATM    8  C6  UNL     1      26.434   2.486  51.803  1.00  0.00     0.178 A 
HETATM    9  N1  UNL     1      27.701   2.366  52.247  1.00  0.00    -0.217 NA
HETATM   10  C7  UNL     1      28.009   1.391  53.133  1.00  0.00     0.236 A 
HETATM   11  N2  UNL     1      27.106   0.517  53.608  1.00  0.00    -0.241 NA
HETATM   12  C8  UNL     1      25.821   0.597  53.192  1.00  0.00     0.075 A 
HETATM   13  C9  UNL     1      24.929  -0.319  53.702  1.00  0.00     0.072 A 
HETATM   14  C15 UNL     1      25.484   1.586  52.285  1.00  0.00     0.048 A 
HETATM   15  C10 UNL     1      23.608  -0.234  53.272  1.00  0.00     0.103 A 
HETATM   16  C12 UNL     1      23.245   0.739  52.372  1.00  0.00     0.102 A 
HETATM   17  C14 UNL     1      24.154   1.647  51.872  1.00  0.00     0.057 A 
BRANCH  15  18
HETATM   18  O2  UNL     1      22.634  -1.108  53.726  1.00  0.00    -0.353 OA
HETATM   19  C11 UNL     1      22.531  -1.401  55.102  1.00  0.00     0.210 C 
ENDBRANCH  15  18
BRANCH  16  20
HETATM   20  O3  UNL     1      21.910   0.816  51.944  1.00  0.00    -0.353 OA
HETATM   21  C13 UNL     1      21.138   1.922  52.379  1.00  0.00     0.210 C 
ENDBRANCH  16  20
ENDBRANCH   7   8
ENDBRANCH   6   7
ENDBRANCH   5   6
TORSDOF 5
ENDMDL
MODEL 5
REMARK VINA RESULT:      -6.6      2.827      5.470
REMARK  5 active torsions:
REMARK  status: ('A' for Active; 'I' for Inactive)
REMARK    1  A    between atoms: C4_5  and  C5_6 
REMARK    2  A    between atoms: C5_6  and  O1_7 
REMARK    3  A    between atoms: O1_7  and  C6_8 
REMARK    4  A    between atoms: C10_14  and  O2_15 
REMARK    5  A    between atoms: C12_17  and  O3_18 
ROOT
HETATM    1  C1  UNL     1      24.239   7.408  50.762  1.00  0.00     0.018 C 
HETATM    2  C2  UNL     1      24.859   6.487  50.287  1.00  0.00    -0.070 C 
HETATM    3  C3  UNL     1      25.609   5.409  49.708  1.00  0.00     0.061 C 
HETATM    4 BR1  UNL     1      27.207   5.664  48.696  1.00  0.00    -0.041 Br
HETATM    5  C4  UNL     1      25.172   4.171  49.884  1.00  0.00     0.028 C 
ENDROOT
BRANCH   5   6
HETATM    6  C5  UNL     1      23.975   3.770  50.623  1.00  0.00     0.207 C 
BRANCH   6   7
HETATM    7  O1  UNL     1      24.258   3.363  51.952  1.00  0.00    -0.330 OA
BRANCH   7   8
HETATM    8  C6  UNL     1      23.932   2.135  52.471  1.00  0.00     0.178 A 
HETATM    9  N1  UNL     1      22.688   1.641  52.636  1.00  0.00    -0.217 NA
HETATM   10  C7  UNL     1      22.523   0.407  53.164  1.00  0.00     0.236 A 
HETATM   11  N2  UNL     1      23.550  -0.375  53.541  1.00  0.00    -0.241 NA
HETATM   12  C8  UNL     1      24.817   0.077  53.394  1.00  0.00     0.075 A 
HETATM   13  C9  UNL     1      25.840  -0.754  53.794  1.00  0.00     0.072 A 
HETATM   14  C15 UNL     1      25.008   1.338  52.857  1.00  0.00     0.048 A 
HETATM   15  C10 UNL     1      27.142  -0.287  53.642  1.00  0.00     0.103 A 
HETATM   16  C12 UNL     1      27.361   0.961  53.110  1.00  0.00     0.102 A 
HETATM   17  C14 UNL     1      26.323   1.779  52.716  1.00  0.00     0.057 A 
BRANCH  15  18
HETATM   18  O2  UNL     1      28.239  -1.047  54.013  1.00  0.00    -0.353 OA
HETATM   19  C11 UNL     1      28.749  -2.029  53.137  1.00  0.00     0.210 C 
ENDBRANCH  15  18
BRANCH  16  20
HETATM   20  O3  UNL     1      28.677   1.424  52.961  1.00  0.00    -0.353 OA
HETATM   21  C13 UNL     1      29.146   2.393  53.884  1.00  0.00     0.210 C 
ENDBRANCH  16  20
ENDBRANCH   7   8
ENDBRANCH   6   7
ENDBRANCH   5   6
TORSDOF 5
ENDMDL
MODEL 6
REMARK VINA RESULT:      -6.5      3.247      6.313
REMARK  5 active torsions:
REMARK  status: ('A' for Active; 'I' for Inactive)
REMARK    1  A    between atoms: C4_5  and  C5_6 
REMARK    2  A    between atoms: C5_6  and  O1_7 
REMARK    3  A    between atoms: O1_7  and  C6_8 
REMARK    4  A    between atoms: C10_14  and  O2_15 
REMARK    5  A    between atoms: C12_17  and  O3_18 
ROOT
HETATM    1  C1  UNL     1      21.551   1.274  48.547  1.00  0.00     0.018 C 
HETATM    2  C2  UNL     1      20.828   1.087  49.496  1.00  0.00    -0.070 C 
HETATM    3  C3  UNL     1      19.951   0.877  50.613  1.00  0.00     0.061 C 
HETATM    4 BR1  UNL     1      18.064   1.158  50.534  1.00  0.00    -0.041 Br
HETATM    5  C4  UNL     1      20.475   0.468  51.757  1.00  0.00     0.028 C 
ENDROOT
BRANCH   5   6
HETATM    6  C5  UNL     1      21.889   0.199  52.018  1.00  0.00     0.207 C 
BRANCH   6   7
HETATM    7  O1  UNL     1      22.601   1.351  52.440  1.00  0.00    -0.330 OA
BRANCH   7   8
HETATM    8  C6  UNL     1      23.820   1.733  51.940  1.00  0.00     0.178 A 
HETATM    9  N1  UNL     1      24.033   2.552  50.890  1.00  0.00    -0.217 NA
HETATM   10  C7  UNL     1      25.300   2.838  50.512  1.00  0.00     0.236 A 
HETATM   11  N2  UNL     1      26.383   2.343  51.135  1.00  0.00    -0.241 NA
HETATM   12  C8  UNL     1      26.220   1.517  52.194  1.00  0.00     0.075 A 
HETATM   13  C9  UNL     1      27.355   1.031  52.803  1.00  0.00     0.072 A 
HETATM   14  C15 UNL     1      24.932   1.210  52.598  1.00  0.00     0.048 A 
HETATM   15  C10 UNL     1      27.185   0.182  53.892  1.00  0.00     0.103 A 
HETATM   16  C12 UNL     1      25.917  -0.139  54.315  1.00  0.00     0.102 A 
HETATM   17  C14 UNL     1      24.792   0.357  53.691  1.00  0.00     0.057 A 
BRANCH  15  18
HETATM   18  O2  UNL     1      28.262  -0.359  54.574  1.00  0.00    -0.353 OA
HETATM   19  C11 UNL     1      29.448  -0.682  53.881  1.00  0.00     0.210 C 
ENDBRANCH  15  18
BRANCH  16  20
HETATM   20  O3  UNL     1      25.755  -0.997  55.414  1.00  0.00    -0.353 OA
HETATM   21  C13 UNL     1      24.434  -1.355  55.785  1.00  0.00     0.210 C 
ENDBRANCH  16  20
ENDBRANCH   7   8
ENDBRANCH   6   7
ENDBRANCH   5   6
TORSDOF 5
ENDMDL
MODEL 7
REMARK VINA RESULT:      -6.4      2.774      4.333
REMARK  5 active torsions:
REMARK  status: ('A' for Active; 'I' for Inactive)
REMARK    1  A    between atoms: C4_5  and  C5_6 
REMARK    2  A    between atoms: C5_6  and  O1_7 
REMARK    3  A    between atoms: O1_7  and  C6_8 
REMARK    4  A    between atoms: C10_14  and  O2_15 
REMARK    5  A    between atoms: C12_17  and  O3_18 
ROOT
HETATM    1  C1  UNL     1      26.795  -2.219  52.218  1.00  0.00     0.018 C 
HETATM    2  C2  UNL     1      27.466  -1.457  52.872  1.00  0.00    -0.070 C 
HETATM    3  C3  UNL     1      28.283  -0.562  53.641  1.00  0.00     0.061 C 
HETATM    4 BR1  UNL     1      30.177  -0.436  53.443  1.00  0.00    -0.041 Br
HETATM    5  C4  UNL     1      27.695   0.216  54.536  1.00  0.00     0.028 C 
ENDROOT
BRANCH   5   6
HETATM    6  C5  UNL     1      26.264   0.268  54.836  1.00  0.00     0.207 C 
BRANCH   6   7
HETATM    7  O1  UNL     1      25.658   1.483  54.425  1.00  0.00    -0.330 OA
BRANCH   7   8
HETATM    8  C6  UNL     1      25.401   1.815  53.119  1.00  0.00     0.178 A 
HETATM    9  N1  UNL     1      26.227   2.479  52.285  1.00  0.00    -0.217 NA
HETATM   10  C7  UNL     1      25.832   2.736  51.017  1.00  0.00     0.236 A 
HETATM   11  N2  UNL     1      24.637   2.359  50.529  1.00  0.00    -0.241 NA
HETATM   12  C8  UNL     1      23.774   1.690  51.327  1.00  0.00     0.075 A 
HETATM   13  C9  UNL     1      22.561   1.324  50.788  1.00  0.00     0.072 A 
HETATM   14  C15 UNL     1      24.158   1.418  52.629  1.00  0.00     0.048 A 
HETATM   15  C10 UNL     1      21.675   0.636  51.612  1.00  0.00     0.103 A 
HETATM   16  C12 UNL     1      22.031   0.351  52.909  1.00  0.00     0.102 A 
HETATM   17  C14 UNL     1      23.251   0.727  53.431  1.00  0.00     0.057 A 
BRANCH  15  18
HETATM   18  O2  UNL     1      20.432   0.223  51.165  1.00  0.00    -0.353 OA
HETATM   19  C11 UNL     1      19.394   1.163  50.989  1.00  0.00     0.210 C 
ENDBRANCH  15  18
BRANCH  16  20
HETATM   20  O3  UNL     1      21.131  -0.342  53.732  1.00  0.00    -0.353 OA
HETATM   21  C13 UNL     1      21.641  -1.397  54.530  1.00  0.00     0.210 C 
ENDBRANCH  16  20
ENDBRANCH   7   8
ENDBRANCH   6   7
ENDBRANCH   5   6
TORSDOF 5
ENDMDL
MODEL 8
REMARK VINA RESULT:      -6.3      3.049      4.615
REMARK  5 active torsions:
REMARK  status: ('A' for Active; 'I' for Inactive)
REMARK    1  A    between atoms: C4_5  and  C5_6 
REMARK    2  A    between atoms: C5_6  and  O1_7 
REMARK    3  A    between atoms: O1_7  and  C6_8 
REMARK    4  A    between atoms: C10_14  and  O2_15 
REMARK    5  A    between atoms: C12_17  and  O3_18 
ROOT
HETATM    1  C1  UNL     1      24.781   6.648  48.535  1.00  0.00     0.018 C 
HETATM    2  C2  UNL     1      25.857   6.105  48.608  1.00  0.00    -0.070 C 
HETATM    3  C3  UNL     1      27.147   5.478  48.682  1.00  0.00     0.061 C 
HETATM    4 BR1  UNL     1      28.777   6.372  48.250  1.00  0.00    -0.041 Br
HETATM    5  C4  UNL     1      27.210   4.213  49.069  1.00  0.00     0.028 C 
ENDROOT
BRANCH   5   6
HETATM    6  C5  UNL     1      26.082   3.360  49.440  1.00  0.00     0.207 C 
BRANCH   6   7
HETATM    7  O1  UNL     1      25.747   3.455  50.815  1.00  0.00    -0.330 OA
BRANCH   7   8
HETATM    8  C6  UNL     1      24.464   3.438  51.302  1.00  0.00     0.178 A 
HETATM    9  N1  UNL     1      23.539   4.407  51.152  1.00  0.00    -0.217 NA
HETATM   10  C7  UNL     1      22.309   4.246  51.693  1.00  0.00     0.236 A 
HETATM   11  N2  UNL     1      21.947   3.152  52.384  1.00  0.00    -0.241 NA
HETATM   12  C8  UNL     1      22.842   2.152  52.560  1.00  0.00     0.075 A 
HETATM   13  C9  UNL     1      22.431   1.049  53.276  1.00  0.00     0.072 A 
HETATM   14  C15 UNL     1      24.106   2.296  52.017  1.00  0.00     0.048 A 
HETATM   15  C10 UNL     1      23.353   0.022  53.455  1.00  0.00     0.103 A 
HETATM   16  C12 UNL     1      24.616   0.139  52.925  1.00  0.00     0.102 A 
HETATM   17  C14 UNL     1      25.008   1.252  52.212  1.00  0.00     0.057 A 
BRANCH  15  18
HETATM   18  O2  UNL     1      23.038  -1.128  54.159  1.00  0.00    -0.353 OA
HETATM   19  C11 UNL     1      21.706  -1.592  54.198  1.00  0.00     0.210 C 
ENDBRANCH  15  18
BRANCH  16  20
HETATM   20  O3  UNL     1      25.539  -0.901  53.113  1.00  0.00    -0.353 OA
HETATM   21  C13 UNL     1      26.823  -0.759  52.530  1.00  0.00     0.210 C 
ENDBRANCH  16  20
ENDBRANCH   7   8
ENDBRANCH   6   7
ENDBRANCH   5   6
TORSDOF 5
ENDMDL
MODEL 9
REMARK VINA RESULT:      -6.3      3.434      5.790
REMARK  5 active torsions:
REMARK  status: ('A' for Active; 'I' for Inactive)
REMARK    1  A    between atoms: C4_5  and  C5_6 
REMARK    2  A    between atoms: C5_6  and  O1_7 
REMARK    3  A    between atoms: O1_7  and  C6_8 
REMARK    4  A    between atoms: C10_14  and  O2_15 
REMARK    5  A    between atoms: C12_17  and  O3_18 
ROOT
HETATM    1  C1  UNL     1      22.639   2.104  47.899  1.00  0.00     0.018 C 
HETATM    2  C2  UNL     1      21.856   2.188  48.815  1.00  0.00    -0.070 C 
HETATM    3  C3  UNL     1      20.910   2.271  49.892  1.00  0.00     0.061 C 
HETATM    4 BR1  UNL     1      19.500   1.011  50.151  1.00  0.00    -0.041 Br
HETATM    5  C4  UNL     1      21.020   3.272  50.751  1.00  0.00     0.028 C 
ENDROOT
BRANCH   5   6
HETATM    6  C5  UNL     1      22.026   4.333  50.724  1.00  0.00     0.207 C 
BRANCH   6   7
HETATM    7  O1  UNL     1      23.109   4.090  51.608  1.00  0.00    -0.330 OA
BRANCH   7   8
HETATM    8  C6  UNL     1      24.364   3.709  51.206  1.00  0.00     0.178 A 
HETATM    9  N1  UNL     1      25.182   4.393  50.380  1.00  0.00    -0.217 NA
HETATM   10  C7  UNL     1      26.399   3.886  50.074  1.00  0.00     0.236 A 
HETATM   11  N2  UNL     1      26.850   2.715  50.557  1.00  0.00    -0.241 NA
HETATM   12  C8  UNL     1      26.066   1.993  51.390  1.00  0.00     0.075 A 
HETATM   13  C9  UNL     1      26.566   0.800  51.860  1.00  0.00     0.072 A 
HETATM   14  C15 UNL     1      24.817   2.493  51.715  1.00  0.00     0.048 A 
HETATM   15  C10 UNL     1      25.757   0.059  52.716  1.00  0.00     0.103 A 
HETATM   16  C12 UNL     1      24.512   0.532  53.057  1.00  0.00     0.102 A 
HETATM   17  C14 UNL     1      24.029   1.730  52.575  1.00  0.00     0.057 A 
BRANCH  15  18
HETATM   18  O2  UNL     1      26.167  -1.154  53.244  1.00  0.00    -0.353 OA
HETATM   19  C11 UNL     1      26.807  -2.104  52.421  1.00  0.00     0.210 C 
ENDBRANCH  15  18
BRANCH  16  20
HETATM   20  O3  UNL     1      23.702  -0.223  53.921  1.00  0.00    -0.353 OA
HETATM   21  C13 UNL     1      22.625  -0.947  53.353  1.00  0.00     0.210 C 
ENDBRANCH  16  20
ENDBRANCH   7   8
ENDBRANCH   6   7
ENDBRANCH   5   6
TORSDOF 5
ENDMDL
