MODEL 1
REMARK VINA RESULT:      -8.5      0.000      0.000
REMARK  7 active torsions:
REMARK  status: ('A' for Active; 'I' for Inactive)
REMARK    1  A    between atoms: C2_2  and  O1_3 
REMARK    2  A    between atoms: O1_3  and  C3_4 
REMARK    3  A    between atoms: C6_7  and  N1_8 
REMARK       I    between atoms: N1_8  and  C7_9 
REMARK    4  A    between atoms: C7_9  and  C8_11 
REMARK    5  A    between atoms: N2_18  and  C15_19 
REMARK    6  A    between atoms: C19_24  and  C20_25 
REMARK    7  A    between atoms: C21_26  and  N4_27 
ROOT
HETATM    1  C3  UNL     1      21.508   1.302  50.173  1.00  0.00     0.166 A 
HETATM    2  C4  UNL     1      21.651   1.864  49.007  1.00  0.00     0.037 A 
HETATM    3  C5  UNL     1      22.786   2.652  48.495  1.00  0.00     0.090 A 
HETATM    4  C6  UNL     1      23.842   2.752  49.529  1.00  0.00     0.032 A 
HETATM    5  C14 UNL     1      23.749   2.201  50.728  1.00  0.00     0.143 A 
HETATM    6  N2  UNL     1      22.593   1.471  51.077  1.00  0.00    -0.131 N 
ENDROOT
BRANCH   6   7
HETATM    7  C15 UNL     1      22.507   0.883  52.373  1.00  0.00     0.734 C 
HETATM    8  N3  UNL     1      21.361   0.947  52.962  1.00  0.00    -0.075 NA
HETATM    9  C16 UNL     1      20.924   0.476  54.234  1.00  0.00     0.132 C 
HETATM   10  C17 UNL     1      21.601  -0.411  54.957  1.00  0.00    -0.001 C 
HETATM   11  C18 UNL     1      22.868  -1.174  54.813  1.00  0.00     0.088 C 
HETATM   12  C19 UNL     1      23.810  -0.545  53.883  1.00  0.00     0.058 C 
HETATM   13  N5  UNL     1      23.684   0.281  52.901  1.00  0.00    -0.067 NA
BRANCH  12  14
HETATM   14  C20 UNL     1      25.204  -0.911  54.088  1.00  0.00     0.038 C 
HETATM   15  C21 UNL     1      26.050  -0.113  54.698  1.00  0.00     0.051 C 
BRANCH  15  16
HETATM   16  N4  UNL     1      27.416  -0.168  55.044  1.00  0.00    -0.319 NA
HETATM   17  C22 UNL     1      28.360   0.518  54.520  1.00  0.00     0.259 C 
ENDBRANCH  15  16
ENDBRANCH  12  14
ENDBRANCH   6   7
BRANCH   1  18
HETATM   18  O1  UNL     1      20.355   0.595  50.468  1.00  0.00    -0.306 OA
BRANCH  18  19
HETATM   19  C2  UNL     1      19.097   1.089  50.235  1.00  0.00     0.134 C 
HETATM   20  C1  UNL     1      18.098   0.290  50.530  1.00  0.00     0.038 C 
ENDBRANCH  18  19
ENDBRANCH   1  18
BRANCH   4  21
HETATM   21  N1  UNL     1      25.049   3.464  49.285  1.00  0.00    -0.325 N 
HETATM   22  C7  UNL     1      25.138   4.870  49.089  1.00  0.00     0.256 C 
HETATM   23  O2  UNL     1      24.101   5.554  49.129  1.00  0.00    -0.267 OA
HETATM   24  H7  UNL     1      25.910   2.871  49.255  1.00  0.00     0.169 HD
BRANCH  22  25
HETATM   25  C8  UNL     1      26.398   5.552  48.842  1.00  0.00     0.032 A 
HETATM   26  C9  UNL     1      26.392   6.932  48.836  1.00  0.00     0.017 A 
HETATM   27  C10 UNL     1      27.588   7.614  48.602  1.00  0.00     0.001 A 
HETATM   28  C11 UNL     1      28.775   6.962  48.376  1.00  0.00     0.000 A 
HETATM   29  C12 UNL     1      28.786   5.575  48.382  1.00  0.00     0.001 A 
HETATM   30  C13 UNL     1      27.591   4.912  48.616  1.00  0.00     0.017 A 
ENDBRANCH  22  25
ENDBRANCH   4  21
TORSDOF 7
ENDMDL
MODEL 2
REMARK VINA RESULT:      -8.3      2.519      8.652
REMARK  7 active torsions:
REMARK  status: ('A' for Active; 'I' for Inactive)
REMARK    1  A    between atoms: C2_2  and  O1_3 
REMARK    2  A    between atoms: O1_3  and  C3_4 
REMARK    3  A    between atoms: C6_7  and  N1_8 
REMARK       I    between atoms: N1_8  and  C7_9 
REMARK    4  A    between atoms: C7_9  and  C8_11 
REMARK    5  A    between atoms: N2_18  and  C15_19 
REMARK    6  A    between atoms: C19_24  and  C20_25 
REMARK    7  A    between atoms: C21_26  and  N4_27 
ROOT
HETATM    1  C3  UNL     1      25.061   1.824  52.827  1.00  0.00     0.166 A 
HETATM    2  C4  UNL     1      24.849   0.675  53.402  1.00  0.00     0.037 A 
HETATM    3  C5  UNL     1      23.639  -0.167  53.363  1.00  0.00     0.090 A 
HETATM    4  C6  UNL     1      22.597   0.480  52.534  1.00  0.00     0.032 A 
HETATM    5  C14 UNL     1      22.759   1.644  51.928  1.00  0.00     0.143 A 
HETATM    6  N2  UNL     1      23.981   2.338  52.057  1.00  0.00    -0.131 N 
ENDROOT
BRANCH   6   7
HETATM    7  C15 UNL     1      24.141   3.592  51.399  1.00  0.00     0.734 C 
HETATM    8  N3  UNL     1      23.310   4.526  51.722  1.00  0.00    -0.075 NA
HETATM    9  C16 UNL     1      23.180   5.872  51.275  1.00  0.00     0.132 C 
HETATM   10  C17 UNL     1      24.131   6.515  50.605  1.00  0.00    -0.001 C 
HETATM   11  C18 UNL     1      25.497   6.202  50.109  1.00  0.00     0.088 C 
HETATM   12  C19 UNL     1      25.727   4.766  49.941  1.00  0.00     0.058 C 
HETATM   13  N5  UNL     1      25.194   3.706  50.449  1.00  0.00    -0.067 NA
BRANCH  12  14
HETATM   14  C20 UNL     1      26.784   4.423  49.000  1.00  0.00     0.038 C 
HETATM   15  C21 UNL     1      27.865   5.159  48.871  1.00  0.00     0.051 C 
BRANCH  15  16
HETATM   16  N4  UNL     1      29.032   5.104  48.081  1.00  0.00    -0.319 NA
HETATM   17  C22 UNL     1      30.055   5.865  48.183  1.00  0.00     0.259 C 
ENDBRANCH  15  16
ENDBRANCH  12  14
ENDBRANCH   6   7
BRANCH   1  18
HETATM   18  O1  UNL     1      26.277   2.466  52.983  1.00  0.00    -0.306 OA
BRANCH  18  19
HETATM   19  C2  UNL     1      27.482   1.819  52.872  1.00  0.00     0.134 C 
HETATM   20  C1  UNL     1      28.490   2.360  53.516  1.00  0.00     0.038 C 
ENDBRANCH  18  19
ENDBRANCH   1  18
BRANCH   4  21
HETATM   21  N1  UNL     1      21.327  -0.131  52.336  1.00  0.00    -0.325 N 
HETATM   22  C7  UNL     1      20.273  -0.143  53.290  1.00  0.00     0.256 C 
HETATM   23  O2  UNL     1      20.443   0.415  54.388  1.00  0.00    -0.267 OA
HETATM   24  H7  UNL     1      21.204  -0.595  51.407  1.00  0.00     0.169 HD
BRANCH  22  25
HETATM   25  C8  UNL     1      18.992  -0.782  53.040  1.00  0.00     0.032 A 
HETATM   26  C9  UNL     1      18.714  -1.954  53.713  1.00  0.00     0.017 A 
HETATM   27  C10 UNL     1      17.491  -2.591  53.492  1.00  0.00     0.001 A 
HETATM   28  C11 UNL     1      16.548  -2.093  52.626  1.00  0.00     0.000 A 
HETATM   29  C12 UNL     1      16.822  -0.915  51.947  1.00  0.00     0.001 A 
HETATM   30  C13 UNL     1      18.041  -0.294  52.178  1.00  0.00     0.017 A 
ENDBRANCH  22  25
ENDBRANCH   4  21
TORSDOF 7
ENDMDL
MODEL 3
REMARK VINA RESULT:      -8.3      3.534      7.765
REMARK  7 active torsions:
REMARK  status: ('A' for Active; 'I' for Inactive)
REMARK    1  A    between atoms: C2_2  and  O1_3 
REMARK    2  A    between atoms: O1_3  and  C3_4 
REMARK    3  A    between atoms: C6_7  and  N1_8 
REMARK       I    between atoms: N1_8  and  C7_9 
REMARK    4  A    between atoms: C7_9  and  C8_11 
REMARK    5  A    between atoms: N2_18  and  C15_19 
REMARK    6  A    between atoms: C19_24  and  C20_25 
REMARK    7  A    between atoms: C21_26  and  N4_27 
ROOT
HETATM    1  C3  UNL     1      23.721   5.395  51.331  1.00  0.00     0.166 A 
HETATM    2  C4  UNL     1      23.475   4.631  52.357  1.00  0.00     0.037 A 
HETATM    3  C5  UNL     1      24.095   3.344  52.718  1.00  0.00     0.090 A 
HETATM    4  C6  UNL     1      25.115   2.971  51.712  1.00  0.00     0.032 A 
HETATM    5  C14 UNL     1      25.405   3.709  50.653  1.00  0.00     0.143 A 
HETATM    6  N2  UNL     1      24.723   4.925  50.438  1.00  0.00    -0.131 N 
ENDROOT
BRANCH   6   7
HETATM    7  C15 UNL     1      25.046   5.710  49.292  1.00  0.00     0.734 C 
HETATM    8  N3  UNL     1      24.055   6.132  48.582  1.00  0.00    -0.075 NA
HETATM    9  C16 UNL     1      24.010   6.922  47.397  1.00  0.00     0.132 C 
HETATM   10  C17 UNL     1      25.041   7.635  46.954  1.00  0.00    -0.001 C 
HETATM   11  C18 UNL     1      26.438   7.892  47.391  1.00  0.00     0.088 C 
HETATM   12  C19 UNL     1      26.965   6.841  48.264  1.00  0.00     0.058 C 
HETATM   13  N5  UNL     1      26.423   5.958  49.033  1.00  0.00    -0.067 NA
BRANCH  12  14
HETATM   14  C20 UNL     1      28.418   6.744  48.293  1.00  0.00     0.038 C 
HETATM   15  C21 UNL     1      29.037   5.587  48.258  1.00  0.00     0.051 C 
BRANCH  15  16
HETATM   16  N4  UNL     1      30.383   5.165  48.270  1.00  0.00    -0.319 NA
HETATM   17  C22 UNL     1      31.386   5.836  48.697  1.00  0.00     0.259 C 
ENDBRANCH  15  16
ENDBRANCH  12  14
ENDBRANCH   6   7
BRANCH   1  18
HETATM   18  O1  UNL     1      23.026   6.580  51.164  1.00  0.00    -0.306 OA
BRANCH  18  19
HETATM   19  C2  UNL     1      21.657   6.640  51.108  1.00  0.00     0.134 C 
HETATM   20  C1  UNL     1      21.150   7.566  50.327  1.00  0.00     0.038 C 
ENDBRANCH  18  19
ENDBRANCH   1  18
BRANCH   4  21
HETATM   21  N1  UNL     1      25.862   1.766  51.830  1.00  0.00    -0.325 N 
HETATM   22  C7  UNL     1      26.698   1.432  52.931  1.00  0.00     0.256 C 
HETATM   23  O2  UNL     1      26.803   2.231  53.876  1.00  0.00    -0.267 OA
HETATM   24  H7  UNL     1      25.761   1.107  51.024  1.00  0.00     0.169 HD
BRANCH  22  25
HETATM   25  C8  UNL     1      27.443   0.185  53.003  1.00  0.00     0.032 A 
HETATM   26  C9  UNL     1      28.744   0.238  53.459  1.00  0.00     0.017 A 
HETATM   27  C10 UNL     1      29.484  -0.944  53.539  1.00  0.00     0.001 A 
HETATM   28  C11 UNL     1      28.964  -2.163  53.180  1.00  0.00     0.000 A 
HETATM   29  C12 UNL     1      27.656  -2.222  52.722  1.00  0.00     0.001 A 
HETATM   30  C13 UNL     1      26.934  -1.040  52.648  1.00  0.00     0.017 A 
ENDBRANCH  22  25
ENDBRANCH   4  21
TORSDOF 7
ENDMDL
MODEL 4
REMARK VINA RESULT:      -8.2      4.163      7.040
REMARK  7 active torsions:
REMARK  status: ('A' for Active; 'I' for Inactive)
REMARK    1  A    between atoms: C2_2  and  O1_3 
REMARK    2  A    between atoms: O1_3  and  C3_4 
REMARK    3  A    between atoms: C6_7  and  N1_8 
REMARK       I    between atoms: N1_8  and  C7_9 
REMARK    4  A    between atoms: C7_9  and  C8_11 
REMARK    5  A    between atoms: N2_18  and  C15_19 
REMARK    6  A    between atoms: C19_24  and  C20_25 
REMARK    7  A    between atoms: C21_26  and  N4_27 
ROOT
HETATM    1  C3  UNL     1      20.641  -0.189  53.451  1.00  0.00     0.166 A 
HETATM    2  C4  UNL     1      21.175  -0.860  54.431  1.00  0.00     0.037 A 
HETATM    3  C5  UNL     1      22.592  -1.198  54.653  1.00  0.00     0.090 A 
HETATM    4  C6  UNL     1      23.423  -0.654  53.555  1.00  0.00     0.032 A 
HETATM    5  C14 UNL     1      22.933   0.034  52.536  1.00  0.00     0.143 A 
HETATM    6  N2  UNL     1      21.547   0.281  52.459  1.00  0.00    -0.131 N 
ENDROOT
BRANCH   6   7
HETATM    7  C15 UNL     1      21.034   1.023  51.355  1.00  0.00     0.734 C 
HETATM    8  N3  UNL     1      21.513   0.735  50.192  1.00  0.00    -0.075 NA
HETATM    9  C16 UNL     1      21.236   1.264  48.898  1.00  0.00     0.132 C 
HETATM   10  C17 UNL     1      20.165   2.001  48.623  1.00  0.00    -0.001 C 
HETATM   11  C18 UNL     1      18.992   2.517  49.377  1.00  0.00     0.088 C 
HETATM   12  C19 UNL     1      19.232   2.599  50.819  1.00  0.00     0.058 C 
HETATM   13  N5  UNL     1      20.045   2.009  51.629  1.00  0.00    -0.067 NA
BRANCH  12  14
HETATM   14  C20 UNL     1      18.383   3.548  51.526  1.00  0.00     0.038 C 
HETATM   15  C21 UNL     1      17.079   3.562  51.371  1.00  0.00     0.051 C 
BRANCH  15  16
HETATM   16  N4  UNL     1      16.012   4.325  51.890  1.00  0.00    -0.319 NA
HETATM   17  C22 UNL     1      15.313   4.047  52.926  1.00  0.00     0.259 C 
ENDBRANCH  15  16
ENDBRANCH  12  14
ENDBRANCH   6   7
BRANCH   1  18
HETATM   18  O1  UNL     1      19.275   0.028  53.419  1.00  0.00    -0.306 OA
BRANCH  18  19
HETATM   19  C2  UNL     1      18.374  -0.942  53.060  1.00  0.00     0.134 C 
HETATM   20  C1  UNL     1      17.615  -0.671  52.024  1.00  0.00     0.038 C 
ENDBRANCH  18  19
ENDBRANCH   1  18
BRANCH   4  21
HETATM   21  N1  UNL     1      24.833  -0.844  53.532  1.00  0.00    -0.325 N 
HETATM   22  C7  UNL     1      25.795   0.192  53.681  1.00  0.00     0.256 C 
HETATM   23  O2  UNL     1      25.407   1.360  53.847  1.00  0.00    -0.267 OA
HETATM   24  H7  UNL     1      25.140  -1.834  53.391  1.00  0.00     0.169 HD
BRANCH  22  25
HETATM   25  C8  UNL     1      27.228  -0.055  53.650  1.00  0.00     0.032 A 
HETATM   26  C9  UNL     1      28.064   0.946  54.102  1.00  0.00     0.017 A 
HETATM   27  C10 UNL     1      29.444   0.737  54.083  1.00  0.00     0.001 A 
HETATM   28  C11 UNL     1      30.006  -0.431  53.630  1.00  0.00     0.000 A 
HETATM   29  C12 UNL     1      29.170  -1.440  53.174  1.00  0.00     0.001 A 
HETATM   30  C13 UNL     1      27.801  -1.218  53.199  1.00  0.00     0.017 A 
ENDBRANCH  22  25
ENDBRANCH   4  21
TORSDOF 7
ENDMDL
MODEL 5
REMARK VINA RESULT:      -8.2      2.793      8.859
REMARK  7 active torsions:
REMARK  status: ('A' for Active; 'I' for Inactive)
REMARK    1  A    between atoms: C2_2  and  O1_3 
REMARK    2  A    between atoms: O1_3  and  C3_4 
REMARK    3  A    between atoms: C6_7  and  N1_8 
REMARK       I    between atoms: N1_8  and  C7_9 
REMARK    4  A    between atoms: C7_9  and  C8_11 
REMARK    5  A    between atoms: N2_18  and  C15_19 
REMARK    6  A    between atoms: C19_24  and  C20_25 
REMARK    7  A    between atoms: C21_26  and  N4_27 
ROOT
HETATM    1  C3  UNL     1      25.770   1.232  53.235  1.00  0.00     0.166 A 
HETATM    2  C4  UNL     1      25.394   0.226  53.972  1.00  0.00     0.037 A 
HETATM    3  C5  UNL     1      24.116  -0.508  53.950  1.00  0.00     0.090 A 
HETATM    4  C6  UNL     1      23.222   0.061  52.916  1.00  0.00     0.032 A 
HETATM    5  C14 UNL     1      23.552   1.081  52.140  1.00  0.00     0.143 A 
HETATM    6  N2  UNL     1      24.820   1.685  52.279  1.00  0.00    -0.131 N 
ENDROOT
BRANCH   6   7
HETATM    7  C15 UNL     1      25.161   2.784  51.436  1.00  0.00     0.734 C 
HETATM    8  N3  UNL     1      26.128   2.595  50.603  1.00  0.00    -0.075 NA
HETATM    9  C16 UNL     1      26.721   3.453  49.633  1.00  0.00     0.132 C 
HETATM   10  C17 UNL     1      26.154   4.578  49.207  1.00  0.00    -0.001 C 
HETATM   11  C18 UNL     1      24.896   5.319  49.483  1.00  0.00     0.088 C 
HETATM   12  C19 UNL     1      24.316   4.994  50.788  1.00  0.00     0.058 C 
HETATM   13  N5  UNL     1      24.411   3.984  51.585  1.00  0.00    -0.067 NA
BRANCH  12  14
HETATM   14  C20 UNL     1      23.435   6.015  51.335  1.00  0.00     0.038 C 
HETATM   15  C21 UNL     1      22.403   6.474  50.665  1.00  0.00     0.051 C 
BRANCH  15  16
HETATM   16  N4  UNL     1      21.390   7.427  50.904  1.00  0.00    -0.319 NA
HETATM   17  C22 UNL     1      20.723   8.064  50.018  1.00  0.00     0.259 C 
ENDBRANCH  15  16
ENDBRANCH  12  14
ENDBRANCH   6   7
BRANCH   1  18
HETATM   18  O1  UNL     1      27.024   1.792  53.408  1.00  0.00    -0.306 OA
BRANCH  18  19
HETATM   19  C2  UNL     1      28.186   1.082  53.241  1.00  0.00     0.134 C 
HETATM   20  C1  UNL     1      29.019   1.091  54.256  1.00  0.00     0.038 C 
ENDBRANCH  18  19
ENDBRANCH   1  18
BRANCH   4  21
HETATM   21  N1  UNL     1      21.921  -0.470  52.691  1.00  0.00    -0.325 N 
HETATM   22  C7  UNL     1      20.761  -0.122  53.437  1.00  0.00     0.256 C 
HETATM   23  O2  UNL     1      20.858   0.706  54.358  1.00  0.00    -0.267 OA
HETATM   24  H7  UNL     1      21.860  -1.165  51.912  1.00  0.00     0.169 HD
BRANCH  22  25
HETATM   25  C8  UNL     1      19.452  -0.695  53.168  1.00  0.00     0.032 A 
HETATM   26  C9  UNL     1      18.644  -0.052  52.252  1.00  0.00     0.017 A 
HETATM   27  C10 UNL     1      17.381  -0.579  51.974  1.00  0.00     0.001 A 
HETATM   28  C11 UNL     1      16.910  -1.719  52.578  1.00  0.00     0.000 A 
HETATM   29  C12 UNL     1      17.719  -2.370  53.498  1.00  0.00     0.001 A 
HETATM   30  C13 UNL     1      18.970  -1.833  53.764  1.00  0.00     0.017 A 
ENDBRANCH  22  25
ENDBRANCH   4  21
TORSDOF 7
ENDMDL
MODEL 6
REMARK VINA RESULT:      -8.2      3.816      6.706
REMARK  7 active torsions:
REMARK  status: ('A' for Active; 'I' for Inactive)
REMARK    1  A    between atoms: C2_2  and  O1_3 
REMARK    2  A    between atoms: O1_3  and  C3_4 
REMARK    3  A    between atoms: C6_7  and  N1_8 
REMARK       I    between atoms: N1_8  and  C7_9 
REMARK    4  A    between atoms: C7_9  and  C8_11 
REMARK    5  A    between atoms: N2_18  and  C15_19 
REMARK    6  A    between atoms: C19_24  and  C20_25 
REMARK    7  A    between atoms: C21_26  and  N4_27 
ROOT
HETATM    1  C3  UNL     1      21.320   2.611  52.389  1.00  0.00     0.166 A 
HETATM    2  C4  UNL     1      22.381   3.364  52.340  1.00  0.00     0.037 A 
HETATM    3  C5  UNL     1      23.799   2.962  52.348  1.00  0.00     0.090 A 
HETATM    4  C6  UNL     1      23.908   1.487  52.424  1.00  0.00     0.032 A 
HETATM    5  C14 UNL     1      22.865   0.676  52.475  1.00  0.00     0.143 A 
HETATM    6  N2  UNL     1      21.559   1.211  52.459  1.00  0.00    -0.131 N 
ENDROOT
BRANCH   6   7
HETATM    7  C15 UNL     1      20.444   0.324  52.515  1.00  0.00     0.734 C 
HETATM    8  N3  UNL     1      20.396  -0.482  53.522  1.00  0.00    -0.075 NA
HETATM    9  C16 UNL     1      19.448  -1.480  53.890  1.00  0.00     0.132 C 
HETATM   10  C17 UNL     1      18.230  -1.561  53.363  1.00  0.00    -0.001 C 
HETATM   11  C18 UNL     1      17.443  -0.806  52.354  1.00  0.00     0.088 C 
HETATM   12  C19 UNL     1      18.284  -0.057  51.417  1.00  0.00     0.058 C 
HETATM   13  N5  UNL     1      19.488   0.403  51.464  1.00  0.00    -0.067 NA
BRANCH  12  14
HETATM   14  C20 UNL     1      17.653   0.250  50.142  1.00  0.00     0.038 C 
HETATM   15  C21 UNL     1      16.627  -0.437  49.691  1.00  0.00     0.051 C 
BRANCH  15  16
HETATM   16  N4  UNL     1      15.817  -0.395  48.537  1.00  0.00    -0.319 NA
HETATM   17  C22 UNL     1      15.314  -1.400  47.926  1.00  0.00     0.259 C 
ENDBRANCH  15  16
ENDBRANCH  12  14
ENDBRANCH   6   7
BRANCH   1  18
HETATM   18  O1  UNL     1      20.060   3.183  52.370  1.00  0.00    -0.306 OA
BRANCH  18  19
HETATM   19  C2  UNL     1      19.593   3.924  51.315  1.00  0.00     0.134 C 
HETATM   20  C1  UNL     1      18.299   3.869  51.098  1.00  0.00     0.038 C 
ENDBRANCH  18  19
ENDBRANCH   1  18
BRANCH   4  21
HETATM   21  N1  UNL     1      25.176   0.841  52.446  1.00  0.00    -0.325 N 
HETATM   22  C7  UNL     1      26.156   1.009  53.463  1.00  0.00     0.256 C 
HETATM   23  O2  UNL     1      25.916   1.769  54.416  1.00  0.00    -0.267 OA
HETATM   24  H7  UNL     1      25.359   0.206  51.635  1.00  0.00     0.169 HD
BRANCH  22  25
HETATM   25  C8  UNL     1      27.439   0.324  53.439  1.00  0.00     0.032 A 
HETATM   26  C9  UNL     1      28.571   1.070  53.697  1.00  0.00     0.017 A 
HETATM   27  C10 UNL     1      29.817   0.440  53.681  1.00  0.00     0.001 A 
HETATM   28  C11 UNL     1      29.960  -0.900  53.418  1.00  0.00     0.000 A 
HETATM   29  C12 UNL     1      28.825  -1.655  53.160  1.00  0.00     0.001 A 
HETATM   30  C13 UNL     1      27.595  -1.014  53.179  1.00  0.00     0.017 A 
ENDBRANCH  22  25
ENDBRANCH   4  21
TORSDOF 7
ENDMDL
MODEL 7
REMARK VINA RESULT:      -8.1      2.732      5.554
REMARK  7 active torsions:
REMARK  status: ('A' for Active; 'I' for Inactive)
REMARK    1  A    between atoms: C2_2  and  O1_3 
REMARK    2  A    between atoms: O1_3  and  C3_4 
REMARK    3  A    between atoms: C6_7  and  N1_8 
REMARK       I    between atoms: N1_8  and  C7_9 
REMARK    4  A    between atoms: C7_9  and  C8_11 
REMARK    5  A    between atoms: N2_18  and  C15_19 
REMARK    6  A    between atoms: C19_24  and  C20_25 
REMARK    7  A    between atoms: C21_26  and  N4_27 
ROOT
HETATM    1  C3  UNL     1      22.880   4.201  50.619  1.00  0.00     0.166 A 
HETATM    2  C4  UNL     1      24.103   4.640  50.527  1.00  0.00     0.037 A 
HETATM    3  C5  UNL     1      25.363   3.918  50.777  1.00  0.00     0.090 A 
HETATM    4  C6  UNL     1      25.078   2.522  51.181  1.00  0.00     0.032 A 
HETATM    5  C14 UNL     1      23.857   2.025  51.291  1.00  0.00     0.143 A 
HETATM    6  N2  UNL     1      22.740   2.842  51.016  1.00  0.00    -0.131 N 
ENDROOT
BRANCH   6   7
HETATM    7  C15 UNL     1      21.430   2.293  51.139  1.00  0.00     0.734 C 
HETATM    8  N3  UNL     1      20.567   2.650  50.249  1.00  0.00    -0.075 NA
HETATM    9  C16 UNL     1      19.197   2.304  50.068  1.00  0.00     0.132 C 
HETATM   10  C17 UNL     1      18.618   1.269  50.670  1.00  0.00    -0.001 C 
HETATM   11  C18 UNL     1      19.038   0.204  51.618  1.00  0.00     0.088 C 
HETATM   12  C19 UNL     1      20.221   0.570  52.400  1.00  0.00     0.058 C 
HETATM   13  N5  UNL     1      21.190   1.404  52.224  1.00  0.00    -0.067 NA
BRANCH  12  14
HETATM   14  C20 UNL     1      20.365  -0.145  53.660  1.00  0.00     0.038 C 
HETATM   15  C21 UNL     1      21.458  -0.809  53.961  1.00  0.00     0.051 C 
BRANCH  15  16
HETATM   16  N4  UNL     1      21.899  -1.578  55.058  1.00  0.00    -0.319 NA
HETATM   17  C22 UNL     1      23.055  -1.529  55.604  1.00  0.00     0.259 C 
ENDBRANCH  15  16
ENDBRANCH  12  14
ENDBRANCH   6   7
BRANCH   1  18
HETATM   18  O1  UNL     1      21.816   5.041  50.339  1.00  0.00    -0.306 OA
BRANCH  18  19
HETATM   19  C2  UNL     1      21.520   6.147  51.095  1.00  0.00     0.134 C 
HETATM   20  C1  UNL     1      21.513   7.296  50.461  1.00  0.00     0.038 C 
ENDBRANCH  18  19
ENDBRANCH   1  18
BRANCH   4  21
HETATM   21  N1  UNL     1      26.129   1.611  51.482  1.00  0.00    -0.325 N 
HETATM   22  C7  UNL     1      26.648   1.370  52.784  1.00  0.00     0.256 C 
HETATM   23  O2  UNL     1      26.168   1.986  53.751  1.00  0.00    -0.267 OA
HETATM   24  H7  UNL     1      26.519   1.104  50.655  1.00  0.00     0.169 HD
BRANCH  22  25
HETATM   25  C8  UNL     1      27.725   0.428  53.039  1.00  0.00     0.032 A 
HETATM   26  C9  UNL     1      28.941   0.935  53.448  1.00  0.00     0.017 A 
HETATM   27  C10 UNL     1      29.994   0.053  53.700  1.00  0.00     0.001 A 
HETATM   28  C11 UNL     1      29.866  -1.307  53.557  1.00  0.00     0.000 A 
HETATM   29  C12 UNL     1      28.645  -1.822  53.147  1.00  0.00     0.001 A 
HETATM   30  C13 UNL     1      27.609  -0.933  52.900  1.00  0.00     0.017 A 
ENDBRANCH  22  25
ENDBRANCH   4  21
TORSDOF 7
ENDMDL
MODEL 8
REMARK VINA RESULT:      -8.0      3.694      6.679
REMARK  7 active torsions:
REMARK  status: ('A' for Active; 'I' for Inactive)
REMARK    1  A    between atoms: C2_2  and  O1_3 
REMARK    2  A    between atoms: O1_3  and  C3_4 
REMARK    3  A    between atoms: C6_7  and  N1_8 
REMARK       I    between atoms: N1_8  and  C7_9 
REMARK    4  A    between atoms: C7_9  and  C8_11 
REMARK    5  A    between atoms: N2_18  and  C15_19 
REMARK    6  A    between atoms: C19_24  and  C20_25 
REMARK    7  A    between atoms: C21_26  and  N4_27 
ROOT
HETATM    1  C3  UNL     1      20.843   0.094  53.287  1.00  0.00     0.166 A 
HETATM    2  C4  UNL     1      21.224  -0.602  54.320  1.00  0.00     0.037 A 
HETATM    3  C5  UNL     1      22.587  -1.004  54.710  1.00  0.00     0.090 A 
HETATM    4  C6  UNL     1      23.568  -0.494  53.725  1.00  0.00     0.032 A 
HETATM    5  C14 UNL     1      23.237   0.217  52.660  1.00  0.00     0.143 A 
HETATM    6  N2  UNL     1      21.882   0.525  52.417  1.00  0.00    -0.131 N 
ENDROOT
BRANCH   6   7
HETATM    7  C15 UNL     1      21.540   1.292  51.264  1.00  0.00     0.734 C 
HETATM    8  N3  UNL     1      21.412   0.644  50.155  1.00  0.00    -0.075 NA
HETATM    9  C16 UNL     1      21.085   1.079  48.839  1.00  0.00     0.132 C 
HETATM   10  C17 UNL     1      20.551   2.267  48.572  1.00  0.00    -0.001 C 
HETATM   11  C18 UNL     1      20.130   3.457  49.357  1.00  0.00     0.088 C 
HETATM   12  C19 UNL     1      20.800   3.550  50.656  1.00  0.00     0.058 C 
HETATM   13  N5  UNL     1      21.371   2.694  51.434  1.00  0.00    -0.067 NA
BRANCH  12  14
HETATM   14  C20 UNL     1      20.852   4.891  51.220  1.00  0.00     0.038 C 
HETATM   15  C21 UNL     1      21.300   5.917  50.533  1.00  0.00     0.051 C 
BRANCH  15  16
HETATM   16  N4  UNL     1      21.474   7.295  50.779  1.00  0.00    -0.319 NA
HETATM   17  C22 UNL     1      20.922   8.257  50.140  1.00  0.00     0.259 C 
ENDBRANCH  15  16
ENDBRANCH  12  14
ENDBRANCH   6   7
BRANCH   1  18
HETATM   18  O1  UNL     1      19.502   0.372  53.092  1.00  0.00    -0.306 OA
BRANCH  18  19
HETATM   19  C2  UNL     1      18.624  -0.533  52.551  1.00  0.00     0.134 C 
HETATM   20  C1  UNL     1      18.052  -0.181  51.423  1.00  0.00     0.038 C 
ENDBRANCH  18  19
ENDBRANCH   1  18
BRANCH   4  21
HETATM   21  N1  UNL     1      24.961  -0.747  53.872  1.00  0.00    -0.325 N 
HETATM   22  C7  UNL     1      25.979  -0.189  53.050  1.00  0.00     0.256 C 
HETATM   23  O2  UNL     1      25.660   0.580  52.128  1.00  0.00    -0.267 OA
HETATM   24  H7  UNL     1      25.209  -1.397  54.653  1.00  0.00     0.169 HD
BRANCH  22  25
HETATM   25  C8  UNL     1      27.391  -0.479  53.241  1.00  0.00     0.032 A 
HETATM   26  C9  UNL     1      28.225   0.570  53.570  1.00  0.00     0.017 A 
HETATM   27  C10 UNL     1      29.586   0.320  53.759  1.00  0.00     0.001 A 
HETATM   28  C11 UNL     1      30.130  -0.934  53.630  1.00  0.00     0.000 A 
HETATM   29  C12 UNL     1      29.296  -1.992  53.300  1.00  0.00     0.001 A 
HETATM   30  C13 UNL     1      27.946  -1.729  53.115  1.00  0.00     0.017 A 
ENDBRANCH  22  25
ENDBRANCH   4  21
TORSDOF 7
ENDMDL
MODEL 9
REMARK VINA RESULT:      -8.0      3.111      7.281
REMARK  7 active torsions:
REMARK  status: ('A' for Active; 'I' for Inactive)
REMARK    1  A    between atoms: C2_2  and  O1_3 
REMARK    2  A    between atoms: O1_3  and  C3_4 
REMARK    3  A    between atoms: C6_7  and  N1_8 
REMARK       I    between atoms: N1_8  and  C7_9 
REMARK    4  A    between atoms: C7_9  and  C8_11 
REMARK    5  A    between atoms: N2_18  and  C15_19 
REMARK    6  A    between atoms: C19_24  and  C20_25 
REMARK    7  A    between atoms: C21_26  and  N4_27 
ROOT
HETATM    1  C3  UNL     1      21.338   2.513  52.049  1.00  0.00     0.166 A 
HETATM    2  C4  UNL     1      21.435   1.495  52.856  1.00  0.00     0.037 A 
HETATM    3  C5  UNL     1      22.607   0.646  53.132  1.00  0.00     0.090 A 
HETATM    4  C6  UNL     1      23.766   1.103  52.332  1.00  0.00     0.032 A 
HETATM    5  C14 UNL     1      23.723   2.130  51.498  1.00  0.00     0.143 A 
HETATM    6  N2  UNL     1      22.522   2.852  51.338  1.00  0.00    -0.131 N 
ENDROOT
BRANCH   6   7
HETATM    7  C15 UNL     1      22.491   3.956  50.436  1.00  0.00     0.734 C 
HETATM    8  N3  UNL     1      22.895   5.091  50.897  1.00  0.00    -0.075 NA
HETATM    9  C16 UNL     1      22.998   6.376  50.289  1.00  0.00     0.132 C 
HETATM   10  C17 UNL     1      22.950   6.569  48.974  1.00  0.00    -0.001 C 
HETATM   11  C18 UNL     1      22.798   5.716  47.767  1.00  0.00     0.088 C 
HETATM   12  C19 UNL     1      22.154   4.432  48.053  1.00  0.00     0.058 C 
HETATM   13  N5  UNL     1      22.020   3.712  49.115  1.00  0.00    -0.067 NA
BRANCH  12  14
HETATM   14  C20 UNL     1      21.511   3.804  46.907  1.00  0.00     0.038 C 
HETATM   15  C21 UNL     1      21.868   4.079  45.673  1.00  0.00     0.051 C 
BRANCH  15  16
HETATM   16  N4  UNL     1      21.461   3.658  44.390  1.00  0.00    -0.319 NA
HETATM   17  C22 UNL     1      20.288   3.769  43.891  1.00  0.00     0.259 C 
ENDBRANCH  15  16
ENDBRANCH  12  14
ENDBRANCH   6   7
BRANCH   1  18
HETATM   18  O1  UNL     1      20.138   3.191  51.926  1.00  0.00    -0.306 OA
BRANCH  18  19
HETATM   19  C2  UNL     1      19.119   2.762  51.113  1.00  0.00     0.134 C 
HETATM   20  C1  UNL     1      17.900   2.976  51.552  1.00  0.00     0.038 C 
ENDBRANCH  18  19
ENDBRANCH   1  18
BRANCH   4  21
HETATM   21  N1  UNL     1      25.026   0.447  52.415  1.00  0.00    -0.325 N 
HETATM   22  C7  UNL     1      26.102   0.857  53.251  1.00  0.00     0.256 C 
HETATM   23  O2  UNL     1      25.961   1.857  53.974  1.00  0.00    -0.267 OA
HETATM   24  H7  UNL     1      25.125  -0.392  51.799  1.00  0.00     0.169 HD
BRANCH  22  25
HETATM   25  C8  UNL     1      27.372   0.151  53.299  1.00  0.00     0.032 A 
HETATM   26  C9  UNL     1      27.373  -1.195  52.997  1.00  0.00     0.017 A 
HETATM   27  C10 UNL     1      28.579  -1.898  53.036  1.00  0.00     0.001 A 
HETATM   28  C11 UNL     1      29.770  -1.299  53.365  1.00  0.00     0.000 A 
HETATM   29  C12 UNL     1      29.775   0.054  53.668  1.00  0.00     0.001 A 
HETATM   30  C13 UNL     1      28.569   0.739  53.625  1.00  0.00     0.017 A 
ENDBRANCH  22  25
ENDBRANCH   4  21
TORSDOF 7
ENDMDL
