MODEL 1
REMARK VINA RESULT:      -8.4      0.000      0.000
REMARK  7 active torsions:
REMARK  status: ('A' for Active; 'I' for Inactive)
REMARK    1  A    between atoms: C2_2  and  C3_3 
REMARK    2  A    between atoms: C3_3  and  C4_4 
REMARK    3  A    between atoms: N1_6  and  C6_7 
REMARK    4  A    between atoms: C6_7  and  C7_8 
REMARK    5  A    between atoms: C7_8  and  C8_9 
REMARK       I    between atoms: C8_9  and  N2_11 
REMARK    6  A    between atoms: N2_11  and  C9_12 
REMARK    7  A    between atoms: C12_15  and  N3_16 
ROOT
HETATM    1  C9  UNL     1      22.624   0.905  51.712  1.00  0.00     0.130 A 
HETATM    2  C10 UNL     1      23.883   0.727  52.242  1.00  0.00     0.068 A 
HETATM    3  C11 UNL     1      24.016   0.017  53.416  1.00  0.00     0.044 A 
HETATM    4  C12 UNL     1      25.285  -0.139  53.911  1.00  0.00     0.140 A 
HETATM    5  N4  UNL     1      25.415  -0.834  55.061  1.00  0.00    -0.224 NA
HETATM    6  C18 UNL     1      24.318  -1.350  55.685  1.00  0.00     0.236 A 
HETATM    7  N5  UNL     1      23.072  -1.190  55.188  1.00  0.00    -0.240 NA
HETATM    8  C19 UNL     1      22.892  -0.507  54.049  1.00  0.00     0.089 A 
HETATM    9  C20 UNL     1      21.634  -0.313  53.493  1.00  0.00     0.151 A 
HETATM   10  N6  UNL     1      21.525   0.392  52.331  1.00  0.00    -0.241 NA
ENDROOT
BRANCH   1  11
HETATM   11  N2  UNL     1      22.251   1.595  50.524  1.00  0.00    -0.312 N 
HETATM   12  C8  UNL     1      21.927   2.979  50.475  1.00  0.00     0.224 C 
HETATM   13  O1  UNL     1      21.994   3.572  51.597  1.00  0.00    -0.273 OA
HETATM   14  H15 UNL     1      22.286   0.858  49.784  1.00  0.00     0.170 HD
BRANCH  12  15
HETATM   15  C7  UNL     1      21.580   3.397  49.093  1.00  0.00     0.125 C 
BRANCH  15  16
HETATM   16  C6  UNL     1      22.581   4.396  48.545  1.00  0.00     0.158 C 
BRANCH  16  17
HETATM   17  N1  UNL     1      23.872   3.891  48.902  1.00  0.00    -0.298 NA
HETATM   18  C3  UNL     1      24.805   4.649  49.338  1.00  0.00     0.006 C 
BRANCH  18  19
HETATM   19  C2  UNL     1      24.509   6.096  49.468  1.00  0.00     0.050 C 
HETATM   20  C1  UNL     1      24.401   6.472  50.921  1.00  0.00     0.011 C 
ENDBRANCH  18  19
BRANCH  18  21
HETATM   21  C4  UNL     1      26.056   3.942  49.648  1.00  0.00     0.050 C 
HETATM   22  C5  UNL     1      27.282   4.474  48.942  1.00  0.00     0.011 C 
ENDBRANCH  18  21
ENDBRANCH  16  17
ENDBRANCH  15  16
ENDBRANCH  12  15
ENDBRANCH   1  11
BRANCH   4  23
HETATM   23  N3  UNL     1      26.428   0.409  53.243  1.00  0.00    -0.360 N 
HETATM   24  C13 UNL     1      26.709   1.737  52.694  1.00  0.00     0.154 C 
HETATM   25  C14 UNL     1      27.832   2.296  53.495  1.00  0.00     0.032 C 
HETATM   26  C15 UNL     1      28.701   1.443  54.069  1.00  0.00     0.111 C 
HETATM   27  F1  UNL     1      29.739   1.953  54.808  1.00  0.00    -0.209 F 
HETATM   28  C16 UNL     1      28.675  -0.063  53.999  1.00  0.00     0.162 C 
HETATM   29 CL1  UNL     1      30.271  -0.573  53.401  1.00  0.00    -0.116 Cl
HETATM   30  C17 UNL     1      27.557  -0.514  53.057  1.00  0.00     0.152 C 
ENDBRANCH   4  23
TORSDOF 7
ENDMDL
MODEL 2
REMARK VINA RESULT:      -8.0      1.474      1.925
REMARK  7 active torsions:
REMARK  status: ('A' for Active; 'I' for Inactive)
REMARK    1  A    between atoms: C2_2  and  C3_3 
REMARK    2  A    between atoms: C3_3  and  C4_4 
REMARK    3  A    between atoms: N1_6  and  C6_7 
REMARK    4  A    between atoms: C6_7  and  C7_8 
REMARK    5  A    between atoms: C7_8  and  C8_9 
REMARK       I    between atoms: C8_9  and  N2_11 
REMARK    6  A    between atoms: N2_11  and  C9_12 
REMARK    7  A    between atoms: C12_15  and  N3_16 
ROOT
HETATM    1  C9  UNL     1      22.869   2.725  51.140  1.00  0.00     0.130 A 
HETATM    2  C10 UNL     1      23.930   2.057  51.711  1.00  0.00     0.068 A 
HETATM    3  C11 UNL     1      23.672   1.055  52.623  1.00  0.00     0.044 A 
HETATM    4  C12 UNL     1      24.754   0.414  53.168  1.00  0.00     0.140 A 
HETATM    5  N4  UNL     1      24.501  -0.566  54.061  1.00  0.00    -0.224 NA
HETATM    6  C18 UNL     1      23.218  -0.888  54.392  1.00  0.00     0.236 A 
HETATM    7  N5  UNL     1      22.160  -0.248  53.848  1.00  0.00    -0.240 NA
HETATM    8  C19 UNL     1      22.360   0.732  52.956  1.00  0.00     0.089 A 
HETATM    9  C20 UNL     1      21.308   1.422  52.366  1.00  0.00     0.151 A 
HETATM   10  N6  UNL     1      21.585   2.408  51.467  1.00  0.00    -0.241 NA
ENDROOT
BRANCH   1  11
HETATM   11  N2  UNL     1      22.896   3.781  50.186  1.00  0.00    -0.312 N 
HETATM   12  C8  UNL     1      22.941   5.161  50.526  1.00  0.00     0.224 C 
HETATM   13  O1  UNL     1      22.956   5.391  51.776  1.00  0.00    -0.273 OA
HETATM   14  H15 UNL     1      22.875   3.288  49.265  1.00  0.00     0.170 HD
BRANCH  12  15
HETATM   15  C7  UNL     1      22.960   6.010  49.308  1.00  0.00     0.125 C 
BRANCH  15  16
HETATM   16  C6  UNL     1      24.289   6.721  49.144  1.00  0.00     0.158 C 
BRANCH  16  17
HETATM   17  N1  UNL     1      25.290   5.701  49.226  1.00  0.00    -0.298 NA
HETATM   18  C3  UNL     1      26.441   5.828  48.682  1.00  0.00     0.006 C 
BRANCH  18  19
HETATM   19  C2  UNL     1      26.717   7.087  47.948  1.00  0.00     0.050 C 
HETATM   20  C1  UNL     1      27.755   7.892  48.682  1.00  0.00     0.011 C 
ENDBRANCH  18  19
BRANCH  18  21
HETATM   21  C4  UNL     1      27.326   4.671  48.878  1.00  0.00     0.050 C 
HETATM   22  C5  UNL     1      26.648   3.431  49.412  1.00  0.00     0.011 C 
ENDBRANCH  18  21
ENDBRANCH  16  17
ENDBRANCH  15  16
ENDBRANCH  12  15
ENDBRANCH   1  11
BRANCH   4  23
HETATM   23  N3  UNL     1      26.096   0.762  52.811  1.00  0.00    -0.360 N 
HETATM   24  C13 UNL     1      26.773   2.051  52.648  1.00  0.00     0.154 C 
HETATM   25  C14 UNL     1      27.823   2.113  53.702  1.00  0.00     0.032 C 
HETATM   26  C15 UNL     1      28.349   0.960  54.155  1.00  0.00     0.111 C 
HETATM   27  F1  UNL     1      29.318   1.011  55.126  1.00  0.00    -0.209 F 
HETATM   28  C16 UNL     1      27.992  -0.436  53.712  1.00  0.00     0.162 C 
HETATM   29 CL1  UNL     1      29.512  -1.219  53.221  1.00  0.00    -0.116 Cl
HETATM   30  C17 UNL     1      26.998  -0.370  52.551  1.00  0.00     0.152 C 
ENDBRANCH   4  23
TORSDOF 7
ENDMDL
MODEL 3
REMARK VINA RESULT:      -7.9      2.896      6.457
REMARK  7 active torsions:
REMARK  status: ('A' for Active; 'I' for Inactive)
REMARK    1  A    between atoms: C2_2  and  C3_3 
REMARK    2  A    between atoms: C3_3  and  C4_4 
REMARK    3  A    between atoms: N1_6  and  C6_7 
REMARK    4  A    between atoms: C6_7  and  C7_8 
REMARK    5  A    between atoms: C7_8  and  C8_9 
REMARK       I    between atoms: C8_9  and  N2_11 
REMARK    6  A    between atoms: N2_11  and  C9_12 
REMARK    7  A    between atoms: C12_15  and  N3_16 
ROOT
HETATM    1  C9  UNL     1      23.074   0.885  52.238  1.00  0.00     0.130 A 
HETATM    2  C10 UNL     1      23.682   1.848  51.463  1.00  0.00     0.068 A 
HETATM    3  C11 UNL     1      23.114   2.184  50.252  1.00  0.00     0.044 A 
HETATM    4  C12 UNL     1      23.749   3.147  49.511  1.00  0.00     0.140 A 
HETATM    5  N4  UNL     1      23.193   3.475  48.326  1.00  0.00    -0.224 NA
HETATM    6  C18 UNL     1      22.049   2.863  47.904  1.00  0.00     0.236 A 
HETATM    7  N5  UNL     1      21.433   1.916  48.644  1.00  0.00    -0.240 NA
HETATM    8  C19 UNL     1      21.947   1.556  49.828  1.00  0.00     0.089 A 
HETATM    9  C20 UNL     1      21.354   0.587  50.629  1.00  0.00     0.151 A 
HETATM   10  N6  UNL     1      21.932   0.271  51.822  1.00  0.00    -0.241 NA
ENDROOT
BRANCH   1  11
HETATM   11  N2  UNL     1      23.477   0.384  53.508  1.00  0.00    -0.312 N 
HETATM   12  C8  UNL     1      24.480  -0.608  53.691  1.00  0.00     0.224 C 
HETATM   13  O1  UNL     1      25.004  -1.027  52.612  1.00  0.00    -0.273 OA
HETATM   14  H15 UNL     1      22.880   0.909  54.186  1.00  0.00     0.170 HD
BRANCH  12  15
HETATM   15  C7  UNL     1      24.669  -0.915  55.132  1.00  0.00     0.125 C 
BRANCH  15  16
HETATM   16  C6  UNL     1      26.014  -0.429  55.634  1.00  0.00     0.158 C 
BRANCH  16  17
HETATM   17  N1  UNL     1      26.351   0.699  54.820  1.00  0.00    -0.298 NA
HETATM   18  C3  UNL     1      27.514   0.853  54.313  1.00  0.00     0.006 C 
BRANCH  18  19
HETATM   19  C2  UNL     1      28.529  -0.190  54.595  1.00  0.00     0.050 C 
HETATM   20  C1  UNL     1      28.815  -0.981  53.347  1.00  0.00     0.011 C 
ENDBRANCH  18  19
BRANCH  18  21
HETATM   21  C4  UNL     1      27.661   2.076  53.511  1.00  0.00     0.050 C 
HETATM   22  C5  UNL     1      29.049   2.673  53.506  1.00  0.00     0.011 C 
ENDBRANCH  18  21
ENDBRANCH  16  17
ENDBRANCH  15  16
ENDBRANCH  12  15
ENDBRANCH   1  11
BRANCH   4  23
HETATM   23  N3  UNL     1      24.949   3.781  49.966  1.00  0.00    -0.360 N 
HETATM   24  C13 UNL     1      26.345   3.341  50.007  1.00  0.00     0.154 C 
HETATM   25  C14 UNL     1      27.098   4.240  49.089  1.00  0.00     0.032 C 
HETATM   26  C15 UNL     1      26.635   5.487  48.886  1.00  0.00     0.111 C 
HETATM   27  F1  UNL     1      27.325   6.321  48.041  1.00  0.00    -0.209 F 
HETATM   28  C16 UNL     1      25.403   6.108  49.494  1.00  0.00     0.162 C 
HETATM   29 CL1  UNL     1      25.927   7.616  50.279  1.00  0.00    -0.116 Cl
HETATM   30  C17 UNL     1      24.785   5.140  50.505  1.00  0.00     0.152 C 
ENDBRANCH   4  23
TORSDOF 7
ENDMDL
MODEL 4
REMARK VINA RESULT:      -7.8      1.765      2.139
REMARK  7 active torsions:
REMARK  status: ('A' for Active; 'I' for Inactive)
REMARK    1  A    between atoms: C2_2  and  C3_3 
REMARK    2  A    between atoms: C3_3  and  C4_4 
REMARK    3  A    between atoms: N1_6  and  C6_7 
REMARK    4  A    between atoms: C6_7  and  C7_8 
REMARK    5  A    between atoms: C7_8  and  C8_9 
REMARK       I    between atoms: C8_9  and  N2_11 
REMARK    6  A    between atoms: N2_11  and  C9_12 
REMARK    7  A    between atoms: C12_15  and  N3_16 
ROOT
HETATM    1  C9  UNL     1      22.662   1.920  51.751  1.00  0.00     0.130 A 
HETATM    2  C10 UNL     1      23.625   1.158  52.374  1.00  0.00     0.068 A 
HETATM    3  C11 UNL     1      23.250   0.324  53.405  1.00  0.00     0.044 A 
HETATM    4  C12 UNL     1      24.238  -0.418  53.999  1.00  0.00     0.140 A 
HETATM    5  N4  UNL     1      23.870  -1.234  55.009  1.00  0.00    -0.224 NA
HETATM    6  C18 UNL     1      22.567  -1.301  55.405  1.00  0.00     0.236 A 
HETATM    7  N5  UNL     1      21.602  -0.565  54.813  1.00  0.00    -0.240 NA
HETATM    8  C19 UNL     1      21.918   0.260  53.805  1.00  0.00     0.089 A 
HETATM    9  C20 UNL     1      20.966   1.040  53.160  1.00  0.00     0.151 A 
HETATM   10  N6  UNL     1      21.358   1.857  52.142  1.00  0.00    -0.241 NA
ENDROOT
BRANCH   1  11
HETATM   11  N2  UNL     1      22.816   2.840  50.676  1.00  0.00    -0.312 N 
HETATM   12  C8  UNL     1      22.545   2.528  49.315  1.00  0.00     0.224 C 
HETATM   13  O1  UNL     1      22.143   1.338  49.121  1.00  0.00    -0.273 OA
HETATM   14  H15 UNL     1      23.152   3.714  51.139  1.00  0.00     0.170 HD
BRANCH  12  15
HETATM   15  C7  UNL     1      22.804   3.698  48.437  1.00  0.00     0.125 C 
BRANCH  15  16
HETATM   16  C6  UNL     1      23.196   4.923  49.242  1.00  0.00     0.158 C 
BRANCH  16  17
HETATM   17  N1  UNL     1      24.623   5.000  49.165  1.00  0.00    -0.298 NA
HETATM   18  C3  UNL     1      25.227   6.031  48.708  1.00  0.00     0.006 C 
BRANCH  18  19
HETATM   19  C2  UNL     1      24.393   7.168  48.250  1.00  0.00     0.050 C 
HETATM   20  C1  UNL     1      25.083   7.889  47.122  1.00  0.00     0.011 C 
ENDBRANCH  18  19
BRANCH  18  21
HETATM   21  C4  UNL     1      26.693   5.916  48.710  1.00  0.00     0.050 C 
HETATM   22  C5  UNL     1      27.222   4.514  48.904  1.00  0.00     0.011 C 
ENDBRANCH  18  21
ENDBRANCH  16  17
ENDBRANCH  15  16
ENDBRANCH  12  15
ENDBRANCH   1  11
BRANCH   4  23
HETATM   23  N3  UNL     1      25.603  -0.337  53.572  1.00  0.00    -0.360 N 
HETATM   24  C13 UNL     1      26.326  -0.946  52.454  1.00  0.00     0.154 C 
HETATM   25  C14 UNL     1      26.756   0.172  51.570  1.00  0.00     0.032 C 
HETATM   26  C15 UNL     1      26.959   1.385  52.118  1.00  0.00     0.111 C 
HETATM   27  F1  UNL     1      27.356   2.420  51.308  1.00  0.00    -0.209 F 
HETATM   28  C16 UNL     1      26.799   1.763  53.569  1.00  0.00     0.162 C 
HETATM   29 CL1  UNL     1      28.339   2.495  54.078  1.00  0.00    -0.116 Cl
HETATM   30  C17 UNL     1      26.475   0.516  54.393  1.00  0.00     0.152 C 
ENDBRANCH   4  23
TORSDOF 7
ENDMDL
MODEL 5
REMARK VINA RESULT:      -7.7      2.278      5.823
REMARK  7 active torsions:
REMARK  status: ('A' for Active; 'I' for Inactive)
REMARK    1  A    between atoms: C2_2  and  C3_3 
REMARK    2  A    between atoms: C3_3  and  C4_4 
REMARK    3  A    between atoms: N1_6  and  C6_7 
REMARK    4  A    between atoms: C6_7  and  C7_8 
REMARK    5  A    between atoms: C7_8  and  C8_9 
REMARK       I    between atoms: C8_9  and  N2_11 
REMARK    6  A    between atoms: N2_11  and  C9_12 
REMARK    7  A    between atoms: C12_15  and  N3_16 
ROOT
HETATM    1  C9  UNL     1      22.174   2.641  50.504  1.00  0.00     0.130 A 
HETATM    2  C10 UNL     1      23.364   2.289  51.101  1.00  0.00     0.068 A 
HETATM    3  C11 UNL     1      24.535   2.844  50.628  1.00  0.00     0.044 A 
HETATM    4  C12 UNL     1      25.699   2.469  51.249  1.00  0.00     0.140 A 
HETATM    5  N4  UNL     1      26.844   3.011  50.785  1.00  0.00    -0.224 NA
HETATM    6  C18 UNL     1      26.821   3.891  49.743  1.00  0.00     0.236 A 
HETATM    7  N5  UNL     1      25.668   4.252  49.139  1.00  0.00    -0.240 NA
HETATM    8  C19 UNL     1      24.505   3.740  49.564  1.00  0.00     0.089 A 
HETATM    9  C20 UNL     1      23.290   4.077  48.979  1.00  0.00     0.151 A 
HETATM   10  N6  UNL     1      22.145   3.519  49.463  1.00  0.00    -0.241 NA
ENDROOT
BRANCH   1  11
HETATM   11  N2  UNL     1      20.859   2.199  50.822  1.00  0.00    -0.312 N 
HETATM   12  C8  UNL     1      20.080   2.723  51.891  1.00  0.00     0.224 C 
HETATM   13  O1  UNL     1      20.656   3.636  52.560  1.00  0.00    -0.273 OA
HETATM   14  H15 UNL     1      20.663   1.459  50.112  1.00  0.00     0.170 HD
BRANCH  12  15
HETATM   15  C7  UNL     1      18.754   2.055  51.962  1.00  0.00     0.125 C 
BRANCH  15  16
HETATM   16  C6  UNL     1      18.847   0.590  51.584  1.00  0.00     0.158 C 
BRANCH  16  17
HETATM   17  N1  UNL     1      19.763   0.004  52.515  1.00  0.00    -0.298 NA
HETATM   18  C3  UNL     1      19.412  -0.917  53.330  1.00  0.00     0.006 C 
BRANCH  18  19
HETATM   19  C2  UNL     1      18.001  -1.372  53.286  1.00  0.00     0.050 C 
HETATM   20  C1  UNL     1      17.906  -2.797  53.760  1.00  0.00     0.011 C 
ENDBRANCH  18  19
BRANCH  18  21
HETATM   21  C4  UNL     1      20.496  -1.386  54.206  1.00  0.00     0.050 C 
HETATM   22  C5  UNL     1      21.589  -0.376  54.465  1.00  0.00     0.011 C 
ENDBRANCH  18  21
ENDBRANCH  16  17
ENDBRANCH  15  16
ENDBRANCH  12  15
ENDBRANCH   1  11
BRANCH   4  23
HETATM   23  N3  UNL     1      25.707   1.544  52.342  1.00  0.00    -0.360 N 
HETATM   24  C13 UNL     1      24.926   0.337  52.621  1.00  0.00     0.154 C 
HETATM   25  C14 UNL     1      25.888  -0.799  52.618  1.00  0.00     0.032 C 
HETATM   26  C15 UNL     1      27.172  -0.556  52.944  1.00  0.00     0.111 C 
HETATM   27  F1  UNL     1      28.064  -1.599  52.944  1.00  0.00    -0.209 F 
HETATM   28  C16 UNL     1      27.776   0.772  53.325  1.00  0.00     0.162 C 
HETATM   29 CL1  UNL     1      28.573   0.537  54.898  1.00  0.00    -0.116 Cl
HETATM   30  C17 UNL     1      26.676   1.832  53.410  1.00  0.00     0.152 C 
ENDBRANCH   4  23
TORSDOF 7
ENDMDL
MODEL 6
REMARK VINA RESULT:      -7.3      1.756      3.129
REMARK  7 active torsions:
REMARK  status: ('A' for Active; 'I' for Inactive)
REMARK    1  A    between atoms: C2_2  and  C3_3 
REMARK    2  A    between atoms: C3_3  and  C4_4 
REMARK    3  A    between atoms: N1_6  and  C6_7 
REMARK    4  A    between atoms: C6_7  and  C7_8 
REMARK    5  A    between atoms: C7_8  and  C8_9 
REMARK       I    between atoms: C8_9  and  N2_11 
REMARK    6  A    between atoms: N2_11  and  C9_12 
REMARK    7  A    between atoms: C12_15  and  N3_16 
ROOT
HETATM    1  C9  UNL     1      23.087   1.694  51.372  1.00  0.00     0.130 A 
HETATM    2  C10 UNL     1      24.272   1.277  51.938  1.00  0.00     0.068 A 
HETATM    3  C11 UNL     1      24.228   0.423  53.020  1.00  0.00     0.044 A 
HETATM    4  C12 UNL     1      25.428   0.031  53.554  1.00  0.00     0.140 A 
HETATM    5  N4  UNL     1      25.384  -0.804  54.614  1.00  0.00    -0.224 NA
HETATM    6  C18 UNL     1      24.188  -1.227  55.113  1.00  0.00     0.236 A 
HETATM    7  N5  UNL     1      23.012  -0.833  54.578  1.00  0.00    -0.240 NA
HETATM    8  C19 UNL     1      23.004  -0.004  53.525  1.00  0.00     0.089 A 
HETATM    9  C20 UNL     1      21.824   0.432  52.935  1.00  0.00     0.151 A 
HETATM   10  N6  UNL     1      21.889   1.275  51.866  1.00  0.00    -0.241 NA
ENDROOT
BRANCH   1  11
HETATM   11  N2  UNL     1      22.893   2.564  50.262  1.00  0.00    -0.312 N 
HETATM   12  C8  UNL     1      22.985   3.981  50.335  1.00  0.00     0.224 C 
HETATM   13  O1  UNL     1      23.260   4.428  51.491  1.00  0.00    -0.273 OA
HETATM   14  H15 UNL     1      22.686   1.916  49.468  1.00  0.00     0.170 HD
BRANCH  12  15
HETATM   15  C7  UNL     1      22.730   4.601  49.009  1.00  0.00     0.125 C 
BRANCH  15  16
HETATM   16  C6  UNL     1      22.599   3.555  47.920  1.00  0.00     0.158 C 
BRANCH  16  17
HETATM   17  N1  UNL     1      21.194   3.402  47.691  1.00  0.00    -0.298 NA
HETATM   18  C3  UNL     1      20.668   3.571  46.538  1.00  0.00     0.006 C 
BRANCH  18  19
HETATM   19  C2  UNL     1      21.569   3.938  45.419  1.00  0.00     0.050 C 
HETATM   20  C1  UNL     1      20.799   3.965  44.126  1.00  0.00     0.011 C 
ENDBRANCH  18  19
BRANCH  18  21
HETATM   21  C4  UNL     1      19.212   3.371  46.509  1.00  0.00     0.050 C 
HETATM   22  C5  UNL     1      18.429   4.240  47.467  1.00  0.00     0.011 C 
ENDBRANCH  18  21
ENDBRANCH  16  17
ENDBRANCH  15  16
ENDBRANCH  12  15
ENDBRANCH   1  11
BRANCH   4  23
HETATM   23  N3  UNL     1      26.677   0.483  53.019  1.00  0.00    -0.360 N 
HETATM   24  C13 UNL     1      27.104   1.767  52.457  1.00  0.00     0.154 C 
HETATM   25  C14 UNL     1      28.148   2.302  53.373  1.00  0.00     0.032 C 
HETATM   26  C15 UNL     1      28.885   1.432  54.088  1.00  0.00     0.111 C 
HETATM   27  F1  UNL     1      29.850   1.919  54.935  1.00  0.00    -0.209 F 
HETATM   28  C16 UNL     1      28.778  -0.072  54.076  1.00  0.00     0.162 C 
HETATM   29 CL1  UNL     1      30.403  -0.696  53.712  1.00  0.00    -0.116 Cl
HETATM   30  C17 UNL     1      27.763  -0.507  53.017  1.00  0.00     0.152 C 
ENDBRANCH   4  23
TORSDOF 7
ENDMDL
MODEL 7
REMARK VINA RESULT:      -7.2      2.859      5.096
REMARK  7 active torsions:
REMARK  status: ('A' for Active; 'I' for Inactive)
REMARK    1  A    between atoms: C2_2  and  C3_3 
REMARK    2  A    between atoms: C3_3  and  C4_4 
REMARK    3  A    between atoms: N1_6  and  C6_7 
REMARK    4  A    between atoms: C6_7  and  C7_8 
REMARK    5  A    between atoms: C7_8  and  C8_9 
REMARK       I    between atoms: C8_9  and  N2_11 
REMARK    6  A    between atoms: N2_11  and  C9_12 
REMARK    7  A    between atoms: C12_15  and  N3_16 
ROOT
HETATM    1  C9  UNL     1      23.165   0.062  52.700  1.00  0.00     0.130 A 
HETATM    2  C10 UNL     1      23.942   0.990  52.043  1.00  0.00     0.068 A 
HETATM    3  C11 UNL     1      25.249   1.167  52.445  1.00  0.00     0.044 A 
HETATM    4  C12 UNL     1      25.991   2.100  51.766  1.00  0.00     0.140 A 
HETATM    5  N4  UNL     1      27.270   2.272  52.160  1.00  0.00    -0.224 NA
HETATM    6  C18 UNL     1      27.782   1.541  53.191  1.00  0.00     0.236 A 
HETATM    7  N5  UNL     1      27.041   0.625  53.852  1.00  0.00    -0.240 NA
HETATM    8  C19 UNL     1      25.765   0.417  53.497  1.00  0.00     0.089 A 
HETATM    9  C20 UNL     1      24.959  -0.512  54.143  1.00  0.00     0.151 A 
HETATM   10  N6  UNL     1      23.670  -0.671  53.730  1.00  0.00    -0.241 NA
ENDROOT
BRANCH   1  11
HETATM   11  N2  UNL     1      21.805  -0.285  52.459  1.00  0.00    -0.312 N 
HETATM   12  C8  UNL     1      20.739   0.003  53.355  1.00  0.00     0.224 C 
HETATM   13  O1  UNL     1      21.095   0.609  54.414  1.00  0.00    -0.273 OA
HETATM   14  H15 UNL     1      21.828  -0.761  51.529  1.00  0.00     0.170 HD
BRANCH  12  15
HETATM   15  C7  UNL     1      19.444  -0.487  52.818  1.00  0.00     0.125 C 
BRANCH  15  16
HETATM   16  C6  UNL     1      18.666   0.623  52.139  1.00  0.00     0.158 C 
BRANCH  16  17
HETATM   17  N1  UNL     1      19.359   0.893  50.916  1.00  0.00    -0.298 NA
HETATM   18  C3  UNL     1      19.808   2.056  50.628  1.00  0.00     0.006 C 
BRANCH  18  19
HETATM   19  C2  UNL     1      19.587   3.140  51.615  1.00  0.00     0.050 C 
HETATM   20  C1  UNL     1      20.900   3.560  52.220  1.00  0.00     0.011 C 
ENDBRANCH  18  19
BRANCH  18  21
HETATM   21  C4  UNL     1      20.487   2.130  49.327  1.00  0.00     0.050 C 
HETATM   22  C5  UNL     1      21.448   0.999  49.043  1.00  0.00     0.011 C 
ENDBRANCH  18  21
ENDBRANCH  16  17
ENDBRANCH  15  16
ENDBRANCH  12  15
ENDBRANCH   1  11
BRANCH   4  23
HETATM   23  N3  UNL     1      25.439   2.860  50.685  1.00  0.00    -0.360 N 
HETATM   24  C13 UNL     1      24.076   3.299  50.380  1.00  0.00     0.154 C 
HETATM   25  C14 UNL     1      24.085   4.786  50.446  1.00  0.00     0.032 C 
HETATM   26  C15 UNL     1      25.235   5.435  50.184  1.00  0.00     0.111 C 
HETATM   27  F1  UNL     1      25.251   6.806  50.242  1.00  0.00    -0.209 F 
HETATM   28  C16 UNL     1      26.562   4.818  49.820  1.00  0.00     0.162 C 
HETATM   29 CL1  UNL     1      27.074   5.575  48.293  1.00  0.00    -0.116 Cl
HETATM   30  C17 UNL     1      26.401   3.305  49.666  1.00  0.00     0.152 C 
ENDBRANCH   4  23
TORSDOF 7
ENDMDL
MODEL 8
REMARK VINA RESULT:      -7.2      3.214      5.188
REMARK  7 active torsions:
REMARK  status: ('A' for Active; 'I' for Inactive)
REMARK    1  A    between atoms: C2_2  and  C3_3 
REMARK    2  A    between atoms: C3_3  and  C4_4 
REMARK    3  A    between atoms: N1_6  and  C6_7 
REMARK    4  A    between atoms: C6_7  and  C7_8 
REMARK    5  A    between atoms: C7_8  and  C8_9 
REMARK       I    between atoms: C8_9  and  N2_11 
REMARK    6  A    between atoms: N2_11  and  C9_12 
REMARK    7  A    between atoms: C12_15  and  N3_16 
ROOT
HETATM    1  C9  UNL     1      26.224   2.408  51.703  1.00  0.00     0.130 A 
HETATM    2  C10 UNL     1      24.872   2.174  51.822  1.00  0.00     0.068 A 
HETATM    3  C11 UNL     1      24.443   1.166  52.659  1.00  0.00     0.044 A 
HETATM    4  C12 UNL     1      23.089   0.966  52.751  1.00  0.00     0.140 A 
HETATM    5  N4  UNL     1      22.669  -0.021  53.570  1.00  0.00    -0.224 NA
HETATM    6  C18 UNL     1      23.569  -0.773  54.266  1.00  0.00     0.236 A 
HETATM    7  N5  UNL     1      24.900  -0.566  54.168  1.00  0.00    -0.240 NA
HETATM    8  C19 UNL     1      25.366   0.403  53.367  1.00  0.00     0.089 A 
HETATM    9  C20 UNL     1      26.724   0.659  53.228  1.00  0.00     0.151 A 
HETATM   10  N6  UNL     1      27.128   1.660  52.396  1.00  0.00    -0.241 NA
ENDROOT
BRANCH   1  11
HETATM   11  N2  UNL     1      26.889   3.383  50.907  1.00  0.00    -0.312 N 
HETATM   12  C8  UNL     1      26.603   3.622  49.535  1.00  0.00     0.224 C 
HETATM   13  O1  UNL     1      25.687   2.882  49.056  1.00  0.00    -0.273 OA
HETATM   14  H15 UNL     1      27.573   3.821  51.565  1.00  0.00     0.170 HD
BRANCH  12  15
HETATM   15  C7  UNL     1      27.466   4.701  48.989  1.00  0.00     0.125 C 
BRANCH  15  16
HETATM   16  C6  UNL     1      26.660   5.937  48.641  1.00  0.00     0.158 C 
BRANCH  16  17
HETATM   17  N1  UNL     1      25.677   6.066  49.674  1.00  0.00    -0.298 NA
HETATM   18  C3  UNL     1      25.148   7.190  49.977  1.00  0.00     0.006 C 
BRANCH  18  19
HETATM   19  C2  UNL     1      25.589   8.383  49.214  1.00  0.00     0.050 C 
HETATM   20  C1  UNL     1      26.497   9.230  50.064  1.00  0.00     0.011 C 
ENDBRANCH  18  19
BRANCH  18  21
HETATM   21  C4  UNL     1      24.162   7.115  51.064  1.00  0.00     0.050 C 
HETATM   22  C5  UNL     1      22.765   7.554  50.691  1.00  0.00     0.011 C 
ENDBRANCH  18  21
ENDBRANCH  16  17
ENDBRANCH  15  16
ENDBRANCH  12  15
ENDBRANCH   1  11
BRANCH   4  23
HETATM   23  N3  UNL     1      22.157   1.764  52.013  1.00  0.00    -0.360 N 
HETATM   24  C13 UNL     1      21.569   3.082  52.263  1.00  0.00     0.154 C 
HETATM   25  C14 UNL     1      22.060   3.976  51.179  1.00  0.00     0.032 C 
HETATM   26  C15 UNL     1      22.381   3.430  49.991  1.00  0.00     0.111 C 
HETATM   27  F1  UNL     1      22.834   4.250  48.987  1.00  0.00    -0.209 F 
HETATM   28  C16 UNL     1      22.302   1.974  49.610  1.00  0.00     0.162 C 
HETATM   29 CL1  UNL     1      21.308   1.885  48.137  1.00  0.00    -0.116 Cl
HETATM   30  C17 UNL     1      21.675   1.176  50.754  1.00  0.00     0.152 C 
ENDBRANCH   4  23
TORSDOF 7
ENDMDL
MODEL 9
REMARK VINA RESULT:      -7.0      1.829      2.537
REMARK  7 active torsions:
REMARK  status: ('A' for Active; 'I' for Inactive)
REMARK    1  A    between atoms: C2_2  and  C3_3 
REMARK    2  A    between atoms: C3_3  and  C4_4 
REMARK    3  A    between atoms: N1_6  and  C6_7 
REMARK    4  A    between atoms: C6_7  and  C7_8 
REMARK    5  A    between atoms: C7_8  and  C8_9 
REMARK       I    between atoms: C8_9  and  N2_11 
REMARK    6  A    between atoms: N2_11  and  C9_12 
REMARK    7  A    between atoms: C12_15  and  N3_16 
ROOT
HETATM    1  C9  UNL     1      23.114   3.073  51.136  1.00  0.00     0.130 A 
HETATM    2  C10 UNL     1      24.151   2.320  51.639  1.00  0.00     0.068 A 
HETATM    3  C11 UNL     1      23.862   1.272  52.487  1.00  0.00     0.044 A 
HETATM    4  C12 UNL     1      24.922   0.546  52.966  1.00  0.00     0.140 A 
HETATM    5  N4  UNL     1      24.639  -0.479  53.797  1.00  0.00    -0.224 NA
HETATM    6  C18 UNL     1      23.347  -0.763  54.131  1.00  0.00     0.236 A 
HETATM    7  N5  UNL     1      22.311  -0.040  53.653  1.00  0.00    -0.240 NA
HETATM    8  C19 UNL     1      22.542   0.988  52.824  1.00  0.00     0.089 A 
HETATM    9  C20 UNL     1      21.514   1.764  52.303  1.00  0.00     0.151 A 
HETATM   10  N6  UNL     1      21.822   2.794  51.466  1.00  0.00    -0.241 NA
ENDROOT
BRANCH   1  11
HETATM   11  N2  UNL     1      23.174   4.188  50.253  1.00  0.00    -0.312 N 
HETATM   12  C8  UNL     1      22.787   5.509  50.611  1.00  0.00     0.224 C 
HETATM   13  O1  UNL     1      22.371   5.626  51.806  1.00  0.00    -0.273 OA
HETATM   14  H15 UNL     1      23.548   3.786  49.364  1.00  0.00     0.170 HD
BRANCH  12  15
HETATM   15  C7  UNL     1      22.968   6.446  49.472  1.00  0.00     0.125 C 
BRANCH  15  16
HETATM   16  C6  UNL     1      24.092   7.429  49.733  1.00  0.00     0.158 C 
BRANCH  16  17
HETATM   17  N1  UNL     1      24.593   7.799  48.444  1.00  0.00    -0.298 NA
HETATM   18  C3  UNL     1      25.816   7.626  48.112  1.00  0.00     0.006 C 
BRANCH  18  19
HETATM   19  C2  UNL     1      26.721   7.019  49.117  1.00  0.00     0.050 C 
HETATM   20  C1  UNL     1      27.237   5.697  48.614  1.00  0.00     0.011 C 
ENDBRANCH  18  19
BRANCH  18  21
HETATM   21  C4  UNL     1      26.135   8.072  46.748  1.00  0.00     0.050 C 
HETATM   22  C5  UNL     1      24.957   8.128  45.803  1.00  0.00     0.011 C 
ENDBRANCH  18  21
ENDBRANCH  16  17
ENDBRANCH  15  16
ENDBRANCH  12  15
ENDBRANCH   1  11
BRANCH   4  23
HETATM   23  N3  UNL     1      26.273   0.856  52.606  1.00  0.00    -0.360 N 
HETATM   24  C13 UNL     1      26.958   2.121  52.335  1.00  0.00     0.154 C 
HETATM   25  C14 UNL     1      27.986   2.282  53.399  1.00  0.00     0.032 C 
HETATM   26  C15 UNL     1      28.498   1.177  53.972  1.00  0.00     0.111 C 
HETATM   27  F1  UNL     1      29.446   1.319  54.954  1.00  0.00    -0.209 F 
HETATM   28  C16 UNL     1      28.145  -0.255  53.658  1.00  0.00     0.162 C 
HETATM   29 CL1  UNL     1      29.671  -1.085  53.277  1.00  0.00    -0.116 Cl
HETATM   30  C17 UNL     1      27.176  -0.298  52.475  1.00  0.00     0.152 C 
ENDBRANCH   4  23
TORSDOF 7
ENDMDL
