MODEL 1
REMARK VINA RESULT:      -8.4      0.000      0.000
REMARK  4 active torsions:
REMARK  status: ('A' for Active; 'I' for Inactive)
REMARK    1  A    between atoms: C7_9  and  O1_10 
REMARK    2  A    between atoms: O1_10  and  C8_11 
REMARK    3  A    between atoms: N4_21  and  C17_22 
REMARK    4  A    between atoms: C17_22  and  C18_23 
ROOT
HETATM    1  C1  UNL     1      21.135   0.224  50.593  1.00  0.00    -0.003 C 
HETATM    2  C2  UNL     1      22.030   0.348  51.620  1.00  0.00     0.094 A 
HETATM    3  C3  UNL     1      21.677   0.669  53.077  1.00  0.00     0.007 A 
HETATM    4  C4  UNL     1      22.956   0.181  52.949  1.00  0.00     0.159 A 
HETATM    5  N1  UNL     1      22.647  -0.761  53.885  1.00  0.00    -0.246 NA
HETATM    6  C5  UNL     1      21.385  -0.786  54.439  1.00  0.00     0.230 A 
HETATM    7  N2  UNL     1      20.353   0.050  54.164  1.00  0.00    -0.244 NA
HETATM    8  C6  UNL     1      20.429   1.052  53.284  1.00  0.00     0.072 A 
HETATM    9  C7  UNL     1      19.862   2.255  52.680  1.00  0.00     0.174 C 
HETATM   10  C10 UNL     1      20.812   2.998  51.781  1.00  0.00     0.044 C 
HETATM   11  C11 UNL     1      22.208   3.161  52.324  1.00  0.00     0.005 C 
HETATM   12  C12 UNL     1      22.455   4.723  52.436  1.00  0.00     0.034 C 
HETATM   13  C13 UNL     1      23.951   4.669  52.681  1.00  0.00    -0.001 C 
HETATM   14  C14 UNL     1      24.439   3.569  52.060  1.00  0.00     0.013 C 
HETATM   15  C15 UNL     1      23.299   2.845  51.371  1.00  0.00     0.082 C 
HETATM   16  C16 UNL     1      24.193   1.729  51.396  1.00  0.00     0.192 C 
HETATM   17  N3  UNL     1      24.098   0.612  52.245  1.00  0.00    -0.369 N 
HETATM   18  N4  UNL     1      25.375   2.580  51.610  1.00  0.00    -0.356 N 
HETATM   19  H19 UNL     1      24.855  -0.061  52.482  1.00  0.00     0.158 HD
ENDROOT
BRANCH  18  20
HETATM   20  C17 UNL     1      26.806   2.593  51.482  1.00  0.00     0.184 C 
BRANCH  20  21
HETATM   21  C18 UNL     1      27.370   1.701  52.525  1.00  0.00     0.052 A 
HETATM   22  C19 UNL     1      28.255   2.304  53.406  1.00  0.00     0.029 A 
HETATM   23  C20 UNL     1      28.857   1.602  54.432  1.00  0.00     0.003 A 
HETATM   24  C21 UNL     1      28.525   0.259  54.529  1.00  0.00     0.019 A 
HETATM   25  C22 UNL     1      27.646  -0.300  53.637  1.00  0.00     0.117 A 
HETATM   26  N5  UNL     1      27.052   0.385  52.628  1.00  0.00    -0.264 NA
ENDBRANCH  20  21
ENDBRANCH  18  20
BRANCH   9  27
HETATM   27  O1  UNL     1      18.718   1.949  51.980  1.00  0.00    -0.380 OA
BRANCH  27  28
HETATM   28  C8  UNL     1      18.323   2.970  51.117  1.00  0.00     0.164 C 
HETATM   29  C9  UNL     1      17.100   3.717  51.588  1.00  0.00     0.033 C 
ENDBRANCH  27  28
ENDBRANCH   9  27
TORSDOF 4
ENDMDL
MODEL 2
REMARK VINA RESULT:      -8.1      1.677      3.433
REMARK  4 active torsions:
REMARK  status: ('A' for Active; 'I' for Inactive)
REMARK    1  A    between atoms: C7_9  and  O1_10 
REMARK    2  A    between atoms: O1_10  and  C8_11 
REMARK    3  A    between atoms: N4_21  and  C17_22 
REMARK    4  A    between atoms: C17_22  and  C18_23 
ROOT
HETATM    1  C1  UNL     1      22.190   4.252  52.264  1.00  0.00    -0.003 C 
HETATM    2  C2  UNL     1      22.604   3.160  51.553  1.00  0.00     0.094 A 
HETATM    3  C3  UNL     1      21.742   2.352  50.576  1.00  0.00     0.007 A 
HETATM    4  C4  UNL     1      23.083   2.086  50.426  1.00  0.00     0.159 A 
HETATM    5  N1  UNL     1      22.951   2.380  49.101  1.00  0.00    -0.246 NA
HETATM    6  C5  UNL     1      21.721   2.754  48.603  1.00  0.00     0.230 A 
HETATM    7  N2  UNL     1      20.560   2.873  49.293  1.00  0.00    -0.244 NA
HETATM    8  C6  UNL     1      20.450   2.629  50.601  1.00  0.00     0.072 A 
HETATM    9  C7  UNL     1      19.624   2.437  51.791  1.00  0.00     0.174 C 
HETATM   10  C10 UNL     1      20.379   1.926  52.987  1.00  0.00     0.044 C 
HETATM   11  C11 UNL     1      21.346   0.807  52.701  1.00  0.00     0.005 C 
HETATM   12  C12 UNL     1      20.854  -0.429  53.565  1.00  0.00     0.034 C 
HETATM   13  C13 UNL     1      22.086  -1.296  53.388  1.00  0.00    -0.001 C 
HETATM   14  C14 UNL     1      23.156  -0.479  53.233  1.00  0.00     0.013 C 
HETATM   15  C15 UNL     1      22.691   0.961  53.304  1.00  0.00     0.082 C 
HETATM   16  C16 UNL     1      23.927   1.235  52.639  1.00  0.00     0.192 C 
HETATM   17  N3  UNL     1      24.079   1.582  51.285  1.00  0.00    -0.369 N 
HETATM   18  N4  UNL     1      24.512  -0.060  53.024  1.00  0.00    -0.356 N 
HETATM   19  H19 UNL     1      24.946   1.516  50.715  1.00  0.00     0.158 HD
ENDROOT
BRANCH  18  20
HETATM   20  C17 UNL     1      25.767  -0.741  53.182  1.00  0.00     0.184 C 
BRANCH  20  21
HETATM   21  C18 UNL     1      26.827   0.281  53.360  1.00  0.00     0.052 A 
HETATM   22  C19 UNL     1      27.689   0.063  54.423  1.00  0.00     0.029 A 
HETATM   23  C20 UNL     1      28.729   0.926  54.711  1.00  0.00     0.003 A 
HETATM   24  C21 UNL     1      28.859   2.025  53.875  1.00  0.00     0.019 A 
HETATM   25  C22 UNL     1      27.984   2.205  52.834  1.00  0.00     0.117 A 
HETATM   26  N5  UNL     1      26.962   1.361  52.547  1.00  0.00    -0.264 NA
ENDBRANCH  20  21
ENDBRANCH  18  20
BRANCH   9  27
HETATM   27  O1  UNL     1      18.980   3.606  52.124  1.00  0.00    -0.380 OA
BRANCH  27  28
HETATM   28  C8  UNL     1      17.898   3.883  51.289  1.00  0.00     0.164 C 
HETATM   29  C9  UNL     1      16.578   3.397  51.832  1.00  0.00     0.033 C 
ENDBRANCH  27  28
ENDBRANCH   9  27
TORSDOF 4
ENDMDL
MODEL 3
REMARK VINA RESULT:      -8.1      1.871      4.048
REMARK  4 active torsions:
REMARK  status: ('A' for Active; 'I' for Inactive)
REMARK    1  A    between atoms: C7_9  and  O1_10 
REMARK    2  A    between atoms: O1_10  and  C8_11 
REMARK    3  A    between atoms: N4_21  and  C17_22 
REMARK    4  A    between atoms: C17_22  and  C18_23 
ROOT
HETATM    1  C1  UNL     1      23.342   4.787  52.504  1.00  0.00    -0.003 C 
HETATM    2  C2  UNL     1      24.167   3.779  52.087  1.00  0.00     0.094 A 
HETATM    3  C3  UNL     1      24.182   3.161  50.685  1.00  0.00     0.007 A 
HETATM    4  C4  UNL     1      25.309   2.842  51.404  1.00  0.00     0.159 A 
HETATM    5  N1  UNL     1      26.056   3.318  50.367  1.00  0.00    -0.246 NA
HETATM    6  C5  UNL     1      25.429   3.825  49.249  1.00  0.00     0.230 A 
HETATM    7  N2  UNL     1      24.094   3.916  49.030  1.00  0.00    -0.244 NA
HETATM    8  C6  UNL     1      23.172   3.506  49.904  1.00  0.00     0.072 A 
HETATM    9  C7  UNL     1      21.781   3.202  50.233  1.00  0.00     0.174 C 
HETATM   10  C10 UNL     1      21.601   2.493  51.547  1.00  0.00     0.044 C 
HETATM   11  C11 UNL     1      22.571   1.369  51.803  1.00  0.00     0.005 C 
HETATM   12  C12 UNL     1      21.691   0.058  51.959  1.00  0.00     0.034 C 
HETATM   13  C13 UNL     1      22.780  -0.846  52.504  1.00  0.00    -0.001 C 
HETATM   14  C14 UNL     1      23.658  -0.079  53.195  1.00  0.00     0.013 C 
HETATM   15  C15 UNL     1      23.194   1.363  53.148  1.00  0.00     0.082 C 
HETATM   16  C16 UNL     1      24.552   1.653  53.490  1.00  0.00     0.192 C 
HETATM   17  N3  UNL     1      25.531   2.170  52.622  1.00  0.00    -0.369 N 
HETATM   18  N4  UNL     1      24.804   0.286  53.976  1.00  0.00    -0.356 N 
HETATM   19  H19 UNL     1      26.562   2.131  52.748  1.00  0.00     0.158 HD
ENDROOT
BRANCH  18  20
HETATM   20  C17 UNL     1      25.685  -0.480  54.812  1.00  0.00     0.184 C 
BRANCH  20  21
HETATM   21  C18 UNL     1      27.081  -0.156  54.430  1.00  0.00     0.052 A 
HETATM   22  C19 UNL     1      27.696  -1.076  53.595  1.00  0.00     0.029 A 
HETATM   23  C20 UNL     1      28.994  -0.907  53.150  1.00  0.00     0.003 A 
HETATM   24  C21 UNL     1      29.645   0.236  53.589  1.00  0.00     0.019 A 
HETATM   25  C22 UNL     1      29.001   1.121  54.416  1.00  0.00     0.117 A 
HETATM   26  N5  UNL     1      27.728   0.960  54.855  1.00  0.00    -0.264 NA
ENDBRANCH  20  21
ENDBRANCH  18  20
BRANCH   9  27
HETATM   27  O1  UNL     1      21.024   4.351  50.228  1.00  0.00    -0.380 OA
BRANCH  27  28
HETATM   28  C8  UNL     1      19.891   4.255  51.035  1.00  0.00     0.164 C 
HETATM   29  C9  UNL     1      18.600   4.482  50.291  1.00  0.00     0.033 C 
ENDBRANCH  27  28
ENDBRANCH   9  27
TORSDOF 4
ENDMDL
MODEL 4
REMARK VINA RESULT:      -8.0      2.305      3.442
REMARK  4 active torsions:
REMARK  status: ('A' for Active; 'I' for Inactive)
REMARK    1  A    between atoms: C7_9  and  O1_10 
REMARK    2  A    between atoms: O1_10  and  C8_11 
REMARK    3  A    between atoms: N4_21  and  C17_22 
REMARK    4  A    between atoms: C17_22  and  C18_23 
ROOT
HETATM    1  C1  UNL     1      21.502   0.954  48.961  1.00  0.00    -0.003 C 
HETATM    2  C2  UNL     1      21.261   0.998  50.306  1.00  0.00     0.094 A 
HETATM    3  C3  UNL     1      20.535   2.127  51.046  1.00  0.00     0.007 A 
HETATM    4  C4  UNL     1      20.633   0.988  51.808  1.00  0.00     0.159 A 
HETATM    5  N1  UNL     1      19.282   1.039  51.986  1.00  0.00    -0.246 NA
HETATM    6  C5  UNL     1      18.554   2.055  51.404  1.00  0.00     0.230 A 
HETATM    7  N2  UNL     1      19.029   3.067  50.638  1.00  0.00    -0.244 NA
HETATM    8  C6  UNL     1      20.321   3.221  50.336  1.00  0.00     0.072 A 
HETATM    9  C7  UNL     1      21.406   4.024  49.777  1.00  0.00     0.174 C 
HETATM   10  C10 UNL     1      22.780   3.479  50.055  1.00  0.00     0.044 C 
HETATM   11  C11 UNL     1      23.005   3.009  51.469  1.00  0.00     0.005 C 
HETATM   12  C12 UNL     1      24.183   3.901  52.045  1.00  0.00     0.034 C 
HETATM   13  C13 UNL     1      24.452   3.086  53.296  1.00  0.00    -0.001 C 
HETATM   14  C14 UNL     1      24.142   1.794  53.032  1.00  0.00     0.013 C 
HETATM   15  C15 UNL     1      23.661   1.686  51.599  1.00  0.00     0.082 C 
HETATM   16  C16 UNL     1      23.082   0.457  52.045  1.00  0.00     0.192 C 
HETATM   17  N3  UNL     1      21.716   0.227  52.290  1.00  0.00    -0.369 N 
HETATM   18  N4  UNL     1      23.952   0.387  53.231  1.00  0.00    -0.356 N 
HETATM   19  H19 UNL     1      21.303  -0.536  52.862  1.00  0.00     0.158 HD
ENDROOT
BRANCH  18  20
HETATM   20  C17 UNL     1      24.470  -0.528  54.210  1.00  0.00     0.184 C 
BRANCH  20  21
HETATM   21  C18 UNL     1      25.951  -0.519  54.110  1.00  0.00     0.052 A 
HETATM   22  C19 UNL     1      26.474  -1.153  52.993  1.00  0.00     0.029 A 
HETATM   23  C20 UNL     1      27.834  -1.222  52.761  1.00  0.00     0.003 A 
HETATM   24  C21 UNL     1      28.646  -0.620  53.711  1.00  0.00     0.019 A 
HETATM   25  C22 UNL     1      28.088  -0.004  54.803  1.00  0.00     0.117 A 
HETATM   26  N5  UNL     1      26.754   0.067  55.035  1.00  0.00    -0.264 NA
ENDBRANCH  20  21
ENDBRANCH  18  20
BRANCH   9  27
HETATM   27  O1  UNL     1      21.242   4.176  48.419  1.00  0.00    -0.380 OA
BRANCH  27  28
HETATM   28  C8  UNL     1      22.446   4.401  47.752  1.00  0.00     0.164 C 
HETATM   29  C9  UNL     1      22.410   5.594  46.831  1.00  0.00     0.033 C 
ENDBRANCH  27  28
ENDBRANCH   9  27
TORSDOF 4
ENDMDL
MODEL 5
REMARK VINA RESULT:      -7.7      2.575      7.506
REMARK  4 active torsions:
REMARK  status: ('A' for Active; 'I' for Inactive)
REMARK    1  A    between atoms: C7_9  and  O1_10 
REMARK    2  A    between atoms: O1_10  and  C8_11 
REMARK    3  A    between atoms: N4_21  and  C17_22 
REMARK    4  A    between atoms: C17_22  and  C18_23 
ROOT
HETATM    1  C1  UNL     1      23.231   1.975  50.010  1.00  0.00    -0.003 C 
HETATM    2  C2  UNL     1      22.301   2.294  50.961  1.00  0.00     0.094 A 
HETATM    3  C3  UNL     1      22.591   2.996  52.292  1.00  0.00     0.007 A 
HETATM    4  C4  UNL     1      21.252   3.011  51.979  1.00  0.00     0.159 A 
HETATM    5  N1  UNL     1      21.271   4.365  52.140  1.00  0.00    -0.246 NA
HETATM    6  C5  UNL     1      22.447   4.996  52.486  1.00  0.00     0.230 A 
HETATM    7  N2  UNL     1      23.654   4.417  52.703  1.00  0.00    -0.244 NA
HETATM    8  C6  UNL     1      23.870   3.103  52.608  1.00  0.00     0.072 A 
HETATM    9  C7  UNL     1      24.732   1.941  52.812  1.00  0.00     0.174 C 
HETATM   10  C10 UNL     1      24.043   0.621  52.601  1.00  0.00     0.044 C 
HETATM   11  C11 UNL     1      22.675   0.509  53.222  1.00  0.00     0.005 C 
HETATM   12  C12 UNL     1      22.762  -0.682  54.265  1.00  0.00     0.034 C 
HETATM   13  C13 UNL     1      21.275  -0.827  54.523  1.00  0.00    -0.001 C 
HETATM   14  C14 UNL     1      20.615  -0.459  53.399  1.00  0.00     0.013 C 
HETATM   15  C15 UNL     1      21.626  -0.060  52.342  1.00  0.00     0.082 C 
HETATM   16  C16 UNL     1      20.514   0.616  51.749  1.00  0.00     0.192 C 
HETATM   17  N3  UNL     1      20.293   2.005  51.749  1.00  0.00    -0.369 N 
HETATM   18  N4  UNL     1      19.529  -0.175  52.506  1.00  0.00    -0.356 N 
HETATM   19  H19 UNL     1      19.393   2.496  51.583  1.00  0.00     0.158 HD
ENDROOT
BRANCH  18  20
HETATM   20  C17 UNL     1      18.151  -0.580  52.504  1.00  0.00     0.184 C 
BRANCH  20  21
HETATM   21  C18 UNL     1      17.431   0.238  51.497  1.00  0.00     0.052 A 
HETATM   22  C19 UNL     1      17.021  -0.444  50.362  1.00  0.00     0.029 A 
HETATM   23  C20 UNL     1      16.335   0.184  49.339  1.00  0.00     0.003 A 
HETATM   24  C21 UNL     1      16.082   1.536  49.515  1.00  0.00     0.019 A 
HETATM   25  C22 UNL     1      16.505   2.174  50.653  1.00  0.00     0.117 A 
HETATM   26  N5  UNL     1      17.178   1.563  51.659  1.00  0.00    -0.264 NA
ENDBRANCH  20  21
ENDBRANCH  18  20
BRANCH   9  27
HETATM   27  O1  UNL     1      25.838   2.013  51.997  1.00  0.00    -0.380 OA
BRANCH  27  28
HETATM   28  C8  UNL     1      26.938   1.333  52.518  1.00  0.00     0.164 C 
HETATM   29  C9  UNL     1      27.882   2.219  53.293  1.00  0.00     0.033 C 
ENDBRANCH  27  28
ENDBRANCH   9  27
TORSDOF 4
ENDMDL
MODEL 6
REMARK VINA RESULT:      -7.6      2.748      6.647
REMARK  4 active torsions:
REMARK  status: ('A' for Active; 'I' for Inactive)
REMARK    1  A    between atoms: C7_9  and  O1_10 
REMARK    2  A    between atoms: O1_10  and  C8_11 
REMARK    3  A    between atoms: N4_21  and  C17_22 
REMARK    4  A    between atoms: C17_22  and  C18_23 
ROOT
HETATM    1  C1  UNL     1      23.786   4.923  52.125  1.00  0.00    -0.003 C 
HETATM    2  C2  UNL     1      23.427   3.609  52.241  1.00  0.00     0.094 A 
HETATM    3  C3  UNL     1      24.291   2.410  51.835  1.00  0.00     0.007 A 
HETATM    4  C4  UNL     1      23.243   2.042  52.645  1.00  0.00     0.159 A 
HETATM    5  N1  UNL     1      24.145   1.437  53.468  1.00  0.00    -0.246 NA
HETATM    6  C5  UNL     1      25.487   1.472  53.156  1.00  0.00     0.230 A 
HETATM    7  N2  UNL     1      26.061   2.058  52.077  1.00  0.00    -0.244 NA
HETATM    8  C6  UNL     1      25.372   2.704  51.133  1.00  0.00     0.072 A 
HETATM    9  C7  UNL     1      25.312   3.349  49.824  1.00  0.00     0.174 C 
HETATM   10  C10 UNL     1      23.918   3.675  49.362  1.00  0.00     0.044 C 
HETATM   11  C11 UNL     1      22.904   2.580  49.574  1.00  0.00     0.005 C 
HETATM   12  C12 UNL     1      22.364   2.198  48.133  1.00  0.00     0.034 C 
HETATM   13  C13 UNL     1      21.186   1.354  48.582  1.00  0.00    -0.001 C 
HETATM   14  C14 UNL     1      20.756   1.833  49.774  1.00  0.00     0.013 C 
HETATM   15  C15 UNL     1      21.618   3.015  50.171  1.00  0.00     0.082 C 
HETATM   16  C16 UNL     1      21.122   2.744  51.484  1.00  0.00     0.192 C 
HETATM   17  N3  UNL     1      21.842   2.147  52.534  1.00  0.00    -0.369 N 
HETATM   18  N4  UNL     1      19.985   1.958  50.977  1.00  0.00    -0.356 N 
HETATM   19  H19 UNL     1      21.450   1.692  53.383  1.00  0.00     0.158 HD
ENDROOT
BRANCH  18  20
HETATM   20  C17 UNL     1      18.685   1.469  51.344  1.00  0.00     0.184 C 
BRANCH  20  21
HETATM   21  C18 UNL     1      18.867   0.287  52.222  1.00  0.00     0.052 A 
HETATM   22  C19 UNL     1      17.774  -0.561  52.310  1.00  0.00     0.029 A 
HETATM   23  C20 UNL     1      17.795  -1.704  53.085  1.00  0.00     0.003 A 
HETATM   24  C21 UNL     1      18.975  -1.955  53.769  1.00  0.00     0.019 A 
HETATM   25  C22 UNL     1      20.034  -1.091  53.655  1.00  0.00     0.117 A 
HETATM   26  N5  UNL     1      20.018   0.033  52.896  1.00  0.00    -0.264 NA
ENDBRANCH  20  21
ENDBRANCH  18  20
BRANCH   9  27
HETATM   27  O1  UNL     1      26.073   4.495  49.817  1.00  0.00    -0.380 OA
BRANCH  27  28
HETATM   28  C8  UNL     1      27.168   4.411  48.958  1.00  0.00     0.164 C 
HETATM   29  C9  UNL     1      27.657   5.752  48.472  1.00  0.00     0.033 C 
ENDBRANCH  27  28
ENDBRANCH   9  27
TORSDOF 4
ENDMDL
MODEL 7
REMARK VINA RESULT:      -7.6      2.676      7.241
REMARK  4 active torsions:
REMARK  status: ('A' for Active; 'I' for Inactive)
REMARK    1  A    between atoms: C7_9  and  O1_10 
REMARK    2  A    between atoms: O1_10  and  C8_11 
REMARK    3  A    between atoms: N4_21  and  C17_22 
REMARK    4  A    between atoms: C17_22  and  C18_23 
ROOT
HETATM    1  C1  UNL     1      24.102   3.671  53.005  1.00  0.00    -0.003 C 
HETATM    2  C2  UNL     1      23.874   2.346  52.754  1.00  0.00     0.094 A 
HETATM    3  C3  UNL     1      24.763   1.434  51.901  1.00  0.00     0.007 A 
HETATM    4  C4  UNL     1      23.882   0.720  52.678  1.00  0.00     0.159 A 
HETATM    5  N1  UNL     1      24.944   0.017  53.164  1.00  0.00    -0.246 NA
HETATM    6  C5  UNL     1      26.216   0.306  52.720  1.00  0.00     0.230 A 
HETATM    7  N2  UNL     1      26.572   1.248  51.812  1.00  0.00    -0.244 NA
HETATM    8  C6  UNL     1      25.699   2.051  51.201  1.00  0.00     0.072 A 
HETATM    9  C7  UNL     1      25.390   3.038  50.168  1.00  0.00     0.174 C 
HETATM   10  C10 UNL     1      23.920   3.310  49.997  1.00  0.00     0.044 C 
HETATM   11  C11 UNL     1      23.043   2.085  49.982  1.00  0.00     0.005 C 
HETATM   12  C12 UNL     1      22.327   2.076  48.568  1.00  0.00     0.034 C 
HETATM   13  C13 UNL     1      21.302   1.000  48.873  1.00  0.00    -0.001 C 
HETATM   14  C14 UNL     1      21.018   1.053  50.197  1.00  0.00     0.013 C 
HETATM   15  C15 UNL     1      21.830   2.164  50.831  1.00  0.00     0.082 C 
HETATM   16  C16 UNL     1      21.560   1.462  52.047  1.00  0.00     0.192 C 
HETATM   17  N3  UNL     1      22.476   0.678  52.771  1.00  0.00    -0.369 N 
HETATM   18  N4  UNL     1      20.429   0.724  51.462  1.00  0.00    -0.356 N 
HETATM   19  H19 UNL     1      22.255  -0.050  53.480  1.00  0.00     0.158 HD
ENDROOT
BRANCH  18  20
HETATM   20  C17 UNL     1      19.243  -0.007  51.813  1.00  0.00     0.184 C 
BRANCH  20  21
HETATM   21  C18 UNL     1      18.083   0.662  51.175  1.00  0.00     0.052 A 
HETATM   22  C19 UNL     1      17.407  -0.095  50.230  1.00  0.00     0.029 A 
HETATM   23  C20 UNL     1      16.304   0.392  49.556  1.00  0.00     0.003 A 
HETATM   24  C21 UNL     1      15.912   1.682  49.879  1.00  0.00     0.019 A 
HETATM   25  C22 UNL     1      16.608   2.398  50.820  1.00  0.00     0.117 A 
HETATM   26  N5  UNL     1      17.691   1.925  51.485  1.00  0.00    -0.264 NA
ENDBRANCH  20  21
ENDBRANCH  18  20
BRANCH   9  27
HETATM   27  O1  UNL     1      26.045   4.221  50.423  1.00  0.00    -0.380 OA
BRANCH  27  28
HETATM   28  C8  UNL     1      26.171   5.023  49.289  1.00  0.00     0.164 C 
HETATM   29  C9  UNL     1      27.542   4.970  48.663  1.00  0.00     0.033 C 
ENDBRANCH  27  28
ENDBRANCH   9  27
TORSDOF 4
ENDMDL
MODEL 8
REMARK VINA RESULT:      -7.5      3.188      5.449
REMARK  4 active torsions:
REMARK  status: ('A' for Active; 'I' for Inactive)
REMARK    1  A    between atoms: C7_9  and  O1_10 
REMARK    2  A    between atoms: O1_10  and  C8_11 
REMARK    3  A    between atoms: N4_21  and  C17_22 
REMARK    4  A    between atoms: C17_22  and  C18_23 
ROOT
HETATM    1  C1  UNL     1      21.357   3.737  51.810  1.00  0.00    -0.003 C 
HETATM    2  C2  UNL     1      22.090   3.299  50.743  1.00  0.00     0.094 A 
HETATM    3  C3  UNL     1      22.302   1.834  50.348  1.00  0.00     0.007 A 
HETATM    4  C4  UNL     1      22.641   2.698  49.334  1.00  0.00     0.159 A 
HETATM    5  N1  UNL     1      21.805   1.999  48.514  1.00  0.00    -0.246 NA
HETATM    6  C5  UNL     1      21.110   0.916  49.009  1.00  0.00     0.230 A 
HETATM    7  N2  UNL     1      21.152   0.424  50.271  1.00  0.00    -0.244 NA
HETATM    8  C6  UNL     1      21.906   0.944  51.242  1.00  0.00     0.072 A 
HETATM    9  C7  UNL     1      22.479   0.866  52.584  1.00  0.00     0.174 C 
HETATM   10  C10 UNL     1      23.532   1.903  52.865  1.00  0.00     0.044 C 
HETATM   11  C11 UNL     1      24.536   2.106  51.761  1.00  0.00     0.005 C 
HETATM   12  C12 UNL     1      25.950   1.749  52.383  1.00  0.00     0.034 C 
HETATM   13  C13 UNL     1      26.805   2.304  51.260  1.00  0.00    -0.001 C 
HETATM   14  C14 UNL     1      26.136   3.336  50.692  1.00  0.00     0.013 C 
HETATM   15  C15 UNL     1      24.814   3.520  51.410  1.00  0.00     0.082 C 
HETATM   16  C16 UNL     1      24.438   4.221  50.221  1.00  0.00     0.192 C 
HETATM   17  N3  UNL     1      23.577   3.745  49.217  1.00  0.00    -0.369 N 
HETATM   18  N4  UNL     1      25.836   4.422  49.804  1.00  0.00    -0.356 N 
HETATM   19  H19 UNL     1      23.502   4.091  48.239  1.00  0.00     0.158 HD
ENDROOT
BRANCH  18  20
HETATM   20  C17 UNL     1      26.667   5.237  48.963  1.00  0.00     0.184 C 
BRANCH  20  21
HETATM   21  C18 UNL     1      26.156   6.629  49.019  1.00  0.00     0.052 A 
HETATM   22  C19 UNL     1      25.822   7.188  47.796  1.00  0.00     0.029 A 
HETATM   23  C20 UNL     1      25.329   8.474  47.690  1.00  0.00     0.003 A 
HETATM   24  C21 UNL     1      25.188   9.173  48.879  1.00  0.00     0.019 A 
HETATM   25  C22 UNL     1      25.531   8.583  50.070  1.00  0.00     0.117 A 
HETATM   26  N5  UNL     1      26.015   7.321  50.179  1.00  0.00    -0.264 NA
ENDBRANCH  20  21
ENDBRANCH  18  20
BRANCH   9  27
HETATM   27  O1  UNL     1      21.488   0.953  53.535  1.00  0.00    -0.380 OA
BRANCH  27  28
HETATM   28  C8  UNL     1      20.944  -0.287  53.864  1.00  0.00     0.164 C 
HETATM   29  C9  UNL     1      21.859  -1.142  54.704  1.00  0.00     0.033 C 
ENDBRANCH  27  28
ENDBRANCH   9  27
TORSDOF 4
ENDMDL
MODEL 9
REMARK VINA RESULT:      -7.2      8.054     10.628
REMARK  4 active torsions:
REMARK  status: ('A' for Active; 'I' for Inactive)
REMARK    1  A    between atoms: C7_9  and  O1_10 
REMARK    2  A    between atoms: O1_10  and  C8_11 
REMARK    3  A    between atoms: N4_21  and  C17_22 
REMARK    4  A    between atoms: C17_22  and  C18_23 
ROOT
HETATM    1  C1  UNL     1      27.691   8.671  46.477  1.00  0.00    -0.003 C 
HETATM    2  C2  UNL     1      27.885   7.689  47.408  1.00  0.00     0.094 A 
HETATM    3  C3  UNL     1      27.720   7.851  48.923  1.00  0.00     0.007 A 
HETATM    4  C4  UNL     1      27.757   6.530  48.545  1.00  0.00     0.159 A 
HETATM    5  N1  UNL     1      26.580   6.349  49.208  1.00  0.00    -0.246 NA
HETATM    6  C5  UNL     1      25.986   7.414  49.851  1.00  0.00     0.230 A 
HETATM    7  N2  UNL     1      26.444   8.688  49.917  1.00  0.00    -0.244 NA
HETATM    8  C6  UNL     1      27.580   9.095  49.347  1.00  0.00     0.072 A 
HETATM    9  C7  UNL     1      28.610  10.114  49.156  1.00  0.00     0.174 C 
HETATM   10  C10 UNL     1      29.824   9.629  48.411  1.00  0.00     0.044 C 
HETATM   11  C11 UNL     1      30.341   8.281  48.843  1.00  0.00     0.005 C 
HETATM   12  C12 UNL     1      31.820   8.524  49.360  1.00  0.00     0.034 C 
HETATM   13  C13 UNL     1      32.242   7.069  49.437  1.00  0.00    -0.001 C 
HETATM   14  C14 UNL     1      31.557   6.381  48.492  1.00  0.00     0.013 C 
HETATM   15  C15 UNL     1      30.656   7.341  47.741  1.00  0.00     0.082 C 
HETATM   16  C16 UNL     1      29.952   6.152  47.371  1.00  0.00     0.192 C 
HETATM   17  N3  UNL     1      28.711   5.732  47.883  1.00  0.00    -0.369 N 
HETATM   18  N4  UNL     1      31.093   5.281  47.699  1.00  0.00    -0.356 N 
HETATM   19  H19 UNL     1      28.314   4.772  47.851  1.00  0.00     0.158 HD
ENDROOT
BRANCH  18  20
HETATM   20  C17 UNL     1      31.638   3.977  47.445  1.00  0.00     0.184 C 
BRANCH  20  21
HETATM   21  C18 UNL     1      32.764   4.125  46.490  1.00  0.00     0.052 A 
HETATM   22  C19 UNL     1      33.894   3.378  46.783  1.00  0.00     0.029 A 
HETATM   23  C20 UNL     1      35.019   3.409  45.983  1.00  0.00     0.003 A 
HETATM   24  C21 UNL     1      34.953   4.232  44.868  1.00  0.00     0.019 A 
HETATM   25  C22 UNL     1      33.816   4.956  44.614  1.00  0.00     0.117 A 
HETATM   26  N5  UNL     1      32.709   4.929  45.396  1.00  0.00    -0.264 NA
ENDBRANCH  20  21
ENDBRANCH  18  20
BRANCH   9  27
HETATM   27  O1  UNL     1      28.088  11.211  48.510  1.00  0.00    -0.380 OA
BRANCH  27  28
HETATM   28  C8  UNL     1      28.619  12.414  48.974  1.00  0.00     0.164 C 
HETATM   29  C9  UNL     1      29.150  13.301  47.876  1.00  0.00     0.033 C 
ENDBRANCH  27  28
ENDBRANCH   9  27
TORSDOF 4
ENDMDL
