MODEL 1
REMARK VINA RESULT:      -6.2      0.000      0.000
REMARK  8 active torsions:
REMARK  status: ('A' for Active; 'I' for Inactive)
REMARK    1  A    between atoms: C2_2  and  C3_3 
REMARK       I    between atoms: C3_3  and  N1_5 
REMARK    2  A    between atoms: N1_5  and  C4_6 
REMARK    3  A    between atoms: C6_8  and  S1_9 
REMARK    4  A    between atoms: N2_11  and  C8_12 
REMARK    5  A    between atoms: C8_12  and  C9_13 
REMARK    6  A    between atoms: C9_13  and  C10_14 
REMARK    7  A    between atoms: C10_14  and  C11_15 
REMARK    8  A    between atoms: C10_14  and  N3_17 
ROOT
HETATM    1  C4  UNL     1      26.153   1.040  52.188  1.00  0.00     0.031 A 
HETATM    2  C5  UNL     1      26.477   1.962  51.290  1.00  0.00     0.046 A 
HETATM    3  C6  UNL     1      25.410   2.843  50.812  1.00  0.00     0.014 A 
HETATM    4  C7  UNL     1      24.161   2.746  51.242  1.00  0.00     0.104 A 
HETATM    5  N2  UNL     1      23.831   1.750  52.206  1.00  0.00    -0.383 N 
HETATM    6  C15 UNL     1      24.801   0.818  52.755  1.00  0.00     0.179 A 
ENDROOT
BRANCH   5   7
HETATM    7  C8  UNL     1      22.455   1.632  52.690  1.00  0.00     0.124 C 
BRANCH   7   8
HETATM    8  C9  UNL     1      21.867   0.289  52.334  1.00  0.00     0.044 C 
BRANCH   8   9
HETATM    9  C10 UNL     1      20.827  -0.189  53.321  1.00  0.00     0.079 C 
BRANCH   9  10
HETATM   10  C11 UNL     1      21.272  -1.425  54.058  1.00  0.00     0.020 C 
HETATM   11  C12 UNL     1      22.372  -1.144  55.044  1.00  0.00     0.007 C 
ENDBRANCH   9  10
BRANCH   9  12
HETATM   12  N3  UNL     1      19.571  -0.278  52.707  1.00  0.00    -0.417 N 
HETATM   13  C13 UNL     1      18.562  -1.080  53.255  1.00  0.00     0.143 C 
HETATM   14  C14 UNL     1      19.384   0.285  51.427  1.00  0.00     0.143 C 
ENDBRANCH   9  12
ENDBRANCH   8   9
ENDBRANCH   7   8
ENDBRANCH   5   7
BRANCH   3  15
HETATM   15  S1  UNL     1      25.789   4.103  49.603  1.00  0.00    -0.142 SA
HETATM   16  H6  UNL     1      25.207   5.308  50.097  1.00  0.00     0.107 HD
ENDBRANCH   3  15
BRANCH   1  17
HETATM   17  N1  UNL     1      27.207   0.201  52.633  1.00  0.00    -0.326 N 
HETATM   18  C3  UNL     1      28.000   0.496  53.775  1.00  0.00     0.244 C 
HETATM   19  O1  UNL     1      27.719   1.558  54.387  1.00  0.00    -0.268 OA
HETATM   20  H4  UNL     1      27.450  -0.693  52.127  1.00  0.00     0.169 HD
BRANCH  18  21
HETATM   21  C2  UNL     1      29.073  -0.390  54.200  1.00  0.00     0.064 C 
HETATM   22  C1  UNL     1      29.792  -1.245  53.530  1.00  0.00     0.017 C 
ENDBRANCH  18  21
ENDBRANCH   1  17
TORSDOF 8
ENDMDL
MODEL 2
REMARK VINA RESULT:      -6.2      2.722      5.219
REMARK  8 active torsions:
REMARK  status: ('A' for Active; 'I' for Inactive)
REMARK    1  A    between atoms: C2_2  and  C3_3 
REMARK       I    between atoms: C3_3  and  N1_5 
REMARK    2  A    between atoms: N1_5  and  C4_6 
REMARK    3  A    between atoms: C6_8  and  S1_9 
REMARK    4  A    between atoms: N2_11  and  C8_12 
REMARK    5  A    between atoms: C8_12  and  C9_13 
REMARK    6  A    between atoms: C9_13  and  C10_14 
REMARK    7  A    between atoms: C10_14  and  C11_15 
REMARK    8  A    between atoms: C10_14  and  N3_17 
ROOT
HETATM    1  C4  UNL     1      25.474   0.045  53.064  1.00  0.00     0.031 A 
HETATM    2  C5  UNL     1      24.559  -0.607  53.769  1.00  0.00     0.046 A 
HETATM    3  C6  UNL     1      23.166  -0.184  53.620  1.00  0.00     0.014 A 
HETATM    4  C7  UNL     1      22.804   0.807  52.819  1.00  0.00     0.104 A 
HETATM    5  N2  UNL     1      23.801   1.497  52.069  1.00  0.00    -0.383 N 
HETATM    6  C15 UNL     1      25.216   1.170  52.133  1.00  0.00     0.179 A 
ENDROOT
BRANCH   5   7
HETATM    7  C8  UNL     1      23.416   2.593  51.181  1.00  0.00     0.124 C 
BRANCH   7   8
HETATM    8  C9  UNL     1      24.462   3.680  51.175  1.00  0.00     0.044 C 
BRANCH   8   9
HETATM    9  C10 UNL     1      24.397   4.565  49.951  1.00  0.00     0.079 C 
BRANCH   9  10
HETATM   10  C11 UNL     1      25.756   4.783  49.337  1.00  0.00     0.020 C 
HETATM   11  C12 UNL     1      26.654   3.587  49.485  1.00  0.00     0.007 C 
ENDBRANCH   9  10
BRANCH   9  12
HETATM   12  N3  UNL     1      23.671   5.731  50.226  1.00  0.00    -0.417 N 
HETATM   13  C13 UNL     1      22.538   6.065  49.471  1.00  0.00     0.143 C 
HETATM   14  C14 UNL     1      24.193   6.674  51.137  1.00  0.00     0.143 C 
ENDBRANCH   9  12
ENDBRANCH   8   9
ENDBRANCH   7   8
ENDBRANCH   5   7
BRANCH   3  15
HETATM   15  S1  UNL     1      21.890  -1.027  54.545  1.00  0.00    -0.142 SA
HETATM   16  H6  UNL     1      21.730  -2.300  53.923  1.00  0.00     0.107 HD
ENDBRANCH   3  15
BRANCH   1  17
HETATM   17  N1  UNL     1      26.817  -0.386  53.229  1.00  0.00    -0.326 N 
HETATM   18  C3  UNL     1      27.696   0.177  54.193  1.00  0.00     0.244 C 
HETATM   19  O1  UNL     1      27.221   1.095  54.910  1.00  0.00    -0.268 OA
HETATM   20  H4  UNL     1      27.225  -1.155  52.633  1.00  0.00     0.169 HD
BRANCH  18  21
HETATM   21  C2  UNL     1      29.066  -0.291  54.332  1.00  0.00     0.064 C 
HETATM   22  C1  UNL     1      29.813  -1.001  53.534  1.00  0.00     0.017 C 
ENDBRANCH  18  21
ENDBRANCH   1  17
TORSDOF 8
ENDMDL
MODEL 3
REMARK VINA RESULT:      -6.2      2.727      5.371
REMARK  8 active torsions:
REMARK  status: ('A' for Active; 'I' for Inactive)
REMARK    1  A    between atoms: C2_2  and  C3_3 
REMARK       I    between atoms: C3_3  and  N1_5 
REMARK    2  A    between atoms: N1_5  and  C4_6 
REMARK    3  A    between atoms: C6_8  and  S1_9 
REMARK    4  A    between atoms: N2_11  and  C8_12 
REMARK    5  A    between atoms: C8_12  and  C9_13 
REMARK    6  A    between atoms: C9_13  and  C10_14 
REMARK    7  A    between atoms: C10_14  and  C11_15 
REMARK    8  A    between atoms: C10_14  and  N3_17 
ROOT
HETATM    1  C4  UNL     1      25.352   0.173  53.049  1.00  0.00     0.031 A 
HETATM    2  C5  UNL     1      24.499  -0.600  53.709  1.00  0.00     0.046 A 
HETATM    3  C6  UNL     1      23.087  -0.215  53.690  1.00  0.00     0.014 A 
HETATM    4  C7  UNL     1      22.651   0.858  53.047  1.00  0.00     0.104 A 
HETATM    5  N2  UNL     1      23.581   1.677  52.344  1.00  0.00    -0.383 N 
HETATM    6  C15 UNL     1      25.007   1.399  52.291  1.00  0.00     0.179 A 
ENDROOT
BRANCH   5   7
HETATM    7  C8  UNL     1      23.113   2.864  51.630  1.00  0.00     0.124 C 
BRANCH   7   8
HETATM    8  C9  UNL     1      24.234   3.854  51.428  1.00  0.00     0.044 C 
BRANCH   8   9
HETATM    9  C10 UNL     1      24.341   4.353  50.005  1.00  0.00     0.079 C 
BRANCH   9  10
HETATM   10  C11 UNL     1      23.565   3.491  49.043  1.00  0.00     0.020 C 
HETATM   11  C12 UNL     1      22.747   4.299  48.075  1.00  0.00     0.007 C 
ENDBRANCH   9  10
BRANCH   9  12
HETATM   12  N3  UNL     1      25.681   4.576  49.662  1.00  0.00    -0.417 N 
HETATM   13  C13 UNL     1      26.101   5.827  49.193  1.00  0.00     0.143 C 
HETATM   14  C14 UNL     1      26.571   3.483  49.601  1.00  0.00     0.143 C 
ENDBRANCH   9  12
ENDBRANCH   8   9
ENDBRANCH   7   8
ENDBRANCH   5   7
BRANCH   3  15
HETATM   15  S1  UNL     1      21.892  -1.218  54.560  1.00  0.00    -0.142 SA
HETATM   16  H6  UNL     1      20.873  -0.323  55.000  1.00  0.00     0.107 HD
ENDBRANCH   3  15
BRANCH   1  17
HETATM   17  N1  UNL     1      26.714  -0.225  53.086  1.00  0.00    -0.326 N 
HETATM   18  C3  UNL     1      27.617   0.204  54.095  1.00  0.00     0.244 C 
HETATM   19  O1  UNL     1      27.145   0.969  54.975  1.00  0.00    -0.268 OA
HETATM   20  H4  UNL     1      27.120  -0.866  52.353  1.00  0.00     0.169 HD
BRANCH  18  21
HETATM   21  C2  UNL     1      29.008  -0.225  54.099  1.00  0.00     0.064 C 
HETATM   22  C1  UNL     1      29.592  -1.239  53.526  1.00  0.00     0.017 C 
ENDBRANCH  18  21
ENDBRANCH   1  17
TORSDOF 8
ENDMDL
MODEL 4
REMARK VINA RESULT:      -5.7      1.466      2.197
REMARK  8 active torsions:
REMARK  status: ('A' for Active; 'I' for Inactive)
REMARK    1  A    between atoms: C2_2  and  C3_3 
REMARK       I    between atoms: C3_3  and  N1_5 
REMARK    2  A    between atoms: N1_5  and  C4_6 
REMARK    3  A    between atoms: C6_8  and  S1_9 
REMARK    4  A    between atoms: N2_11  and  C8_12 
REMARK    5  A    between atoms: C8_12  and  C9_13 
REMARK    6  A    between atoms: C9_13  and  C10_14 
REMARK    7  A    between atoms: C10_14  and  C11_15 
REMARK    8  A    between atoms: C10_14  and  N3_17 
ROOT
HETATM    1  C4  UNL     1      26.265   1.029  52.107  1.00  0.00     0.031 A 
HETATM    2  C5  UNL     1      26.508   2.072  51.323  1.00  0.00     0.046 A 
HETATM    3  C6  UNL     1      25.355   2.820  50.820  1.00  0.00     0.014 A 
HETATM    4  C7  UNL     1      24.107   2.491  51.120  1.00  0.00     0.104 A 
HETATM    5  N2  UNL     1      23.865   1.367  51.962  1.00  0.00    -0.383 N 
HETATM    6  C15 UNL     1      24.925   0.547  52.522  1.00  0.00     0.179 A 
ENDROOT
BRANCH   5   7
HETATM    7  C8  UNL     1      22.492   0.993  52.301  1.00  0.00     0.124 C 
BRANCH   7   8
HETATM    8  C9  UNL     1      21.510   1.590  51.324  1.00  0.00     0.044 C 
BRANCH   8   9
HETATM    9  C10 UNL     1      20.110   1.711  51.882  1.00  0.00     0.079 C 
BRANCH   9  10
HETATM   10  C11 UNL     1      19.193   0.642  51.347  1.00  0.00     0.020 C 
HETATM   11  C12 UNL     1      18.774  -0.341  52.404  1.00  0.00     0.007 C 
ENDBRANCH   9  10
BRANCH   9  12
HETATM   12  N3  UNL     1      19.640   3.024  51.748  1.00  0.00    -0.417 N 
HETATM   13  C13 UNL     1      18.273   3.281  51.576  1.00  0.00     0.143 C 
HETATM   14  C14 UNL     1      20.564   4.078  51.591  1.00  0.00     0.143 C 
ENDBRANCH   9  12
ENDBRANCH   8   9
ENDBRANCH   7   8
ENDBRANCH   5   7
BRANCH   3  15
HETATM   15  S1  UNL     1      25.621   4.234  49.762  1.00  0.00    -0.142 SA
HETATM   16  H6  UNL     1      24.433   5.019  49.848  1.00  0.00     0.107 HD
ENDBRANCH   3  15
BRANCH   1  17
HETATM   17  N1  UNL     1      27.401   0.322  52.579  1.00  0.00    -0.326 N 
HETATM   18  C3  UNL     1      27.996   0.574  53.845  1.00  0.00     0.244 C 
HETATM   19  O1  UNL     1      27.458   1.471  54.544  1.00  0.00    -0.268 OA
HETATM   20  H4  UNL     1      27.860  -0.432  52.001  1.00  0.00     0.169 HD
BRANCH  18  21
HETATM   21  C2  UNL     1      29.162  -0.171  54.295  1.00  0.00     0.064 C 
HETATM   22  C1  UNL     1      29.980  -0.953  53.648  1.00  0.00     0.017 C 
ENDBRANCH  18  21
ENDBRANCH   1  17
TORSDOF 8
ENDMDL
MODEL 5
REMARK VINA RESULT:      -5.6      2.599      6.289
REMARK  8 active torsions:
REMARK  status: ('A' for Active; 'I' for Inactive)
REMARK    1  A    between atoms: C2_2  and  C3_3 
REMARK       I    between atoms: C3_3  and  N1_5 
REMARK    2  A    between atoms: N1_5  and  C4_6 
REMARK    3  A    between atoms: C6_8  and  S1_9 
REMARK    4  A    between atoms: N2_11  and  C8_12 
REMARK    5  A    between atoms: C8_12  and  C9_13 
REMARK    6  A    between atoms: C9_13  and  C10_14 
REMARK    7  A    between atoms: C10_14  and  C11_15 
REMARK    8  A    between atoms: C10_14  and  N3_17 
ROOT
HETATM    1  C4  UNL     1      21.971   0.916  51.129  1.00  0.00     0.031 A 
HETATM    2  C5  UNL     1      21.636   1.387  49.934  1.00  0.00     0.046 A 
HETATM    3  C6  UNL     1      22.552   2.338  49.303  1.00  0.00     0.014 A 
HETATM    4  C7  UNL     1      23.679   2.730  49.879  1.00  0.00     0.104 A 
HETATM    5  N2  UNL     1      24.022   2.215  51.163  1.00  0.00    -0.383 N 
HETATM    6  C15 UNL     1      23.194   1.267  51.889  1.00  0.00     0.179 A 
ENDROOT
BRANCH   5   7
HETATM    7  C8  UNL     1      25.263   2.639  51.810  1.00  0.00     0.124 C 
BRANCH   7   8
HETATM    8  C9  UNL     1      25.296   2.210  53.256  1.00  0.00     0.044 C 
BRANCH   8   9
HETATM    9  C10 UNL     1      26.471   1.320  53.589  1.00  0.00     0.079 C 
BRANCH   9  10
HETATM   10  C11 UNL     1      27.709   1.707  52.822  1.00  0.00     0.020 C 
HETATM   11  C12 UNL     1      28.705   2.448  53.670  1.00  0.00     0.007 C 
ENDBRANCH   9  10
BRANCH   9  12
HETATM   12  N3  UNL     1      26.108  -0.029  53.496  1.00  0.00    -0.417 N 
HETATM   13  C13 UNL     1      25.222  -0.597  54.421  1.00  0.00     0.143 C 
HETATM   14  C14 UNL     1      26.786  -0.869  52.587  1.00  0.00     0.143 C 
ENDBRANCH   9  12
ENDBRANCH   8   9
ENDBRANCH   7   8
ENDBRANCH   5   7
BRANCH   3  15
HETATM   15  S1  UNL     1      22.153   3.004  47.694  1.00  0.00    -0.142 SA
HETATM   16  H6  UNL     1      23.338   3.648  47.231  1.00  0.00     0.107 HD
ENDBRANCH   3  15
BRANCH   1  17
HETATM   17  N1  UNL     1      21.064  -0.004  51.716  1.00  0.00    -0.326 N 
HETATM   18  C3  UNL     1      20.127   0.368  52.718  1.00  0.00     0.244 C 
HETATM   19  O1  UNL     1      20.139   1.576  53.069  1.00  0.00    -0.268 OA
HETATM   20  H4  UNL     1      21.046  -1.019  51.429  1.00  0.00     0.169 HD
BRANCH  18  21
HETATM   21  C2  UNL     1      19.213  -0.604  53.298  1.00  0.00     0.064 C 
HETATM   22  C1  UNL     1      18.092  -1.097  52.852  1.00  0.00     0.017 C 
ENDBRANCH  18  21
ENDBRANCH   1  17
TORSDOF 8
ENDMDL
MODEL 6
REMARK VINA RESULT:      -5.6      1.335      2.258
REMARK  8 active torsions:
REMARK  status: ('A' for Active; 'I' for Inactive)
REMARK    1  A    between atoms: C2_2  and  C3_3 
REMARK       I    between atoms: C3_3  and  N1_5 
REMARK    2  A    between atoms: N1_5  and  C4_6 
REMARK    3  A    between atoms: C6_8  and  S1_9 
REMARK    4  A    between atoms: N2_11  and  C8_12 
REMARK    5  A    between atoms: C8_12  and  C9_13 
REMARK    6  A    between atoms: C9_13  and  C10_14 
REMARK    7  A    between atoms: C10_14  and  C11_15 
REMARK    8  A    between atoms: C10_14  and  N3_17 
ROOT
HETATM    1  C4  UNL     1      26.165   1.924  51.679  1.00  0.00     0.031 A 
HETATM    2  C5  UNL     1      26.372   2.969  50.887  1.00  0.00     0.046 A 
HETATM    3  C6  UNL     1      25.204   3.761  50.498  1.00  0.00     0.014 A 
HETATM    4  C7  UNL     1      23.978   3.469  50.906  1.00  0.00     0.104 A 
HETATM    5  N2  UNL     1      23.775   2.343  51.755  1.00  0.00    -0.383 N 
HETATM    6  C15 UNL     1      24.853   1.481  52.208  1.00  0.00     0.179 A 
ENDROOT
BRANCH   5   7
HETATM    7  C8  UNL     1      22.426   2.009  52.212  1.00  0.00     0.124 C 
BRANCH   7   8
HETATM    8  C9  UNL     1      22.066   0.589  51.852  1.00  0.00     0.044 C 
BRANCH   8   9
HETATM    9  C10 UNL     1      20.784   0.480  51.059  1.00  0.00     0.079 C 
BRANCH   9  10
HETATM   10  C11 UNL     1      20.742   1.458  49.914  1.00  0.00     0.020 C 
HETATM   11  C12 UNL     1      21.578   1.015  48.746  1.00  0.00     0.007 C 
ENDBRANCH   9  10
BRANCH   9  12
HETATM   12  N3  UNL     1      19.674   0.511  51.913  1.00  0.00    -0.417 N 
HETATM   13  C13 UNL     1      18.671   1.476  51.749  1.00  0.00     0.143 C 
HETATM   14  C14 UNL     1      19.661  -0.308  53.062  1.00  0.00     0.143 C 
ENDBRANCH   9  12
ENDBRANCH   8   9
ENDBRANCH   7   8
ENDBRANCH   5   7
BRANCH   3  15
HETATM   15  S1  UNL     1      25.422   5.180  49.434  1.00  0.00    -0.142 SA
HETATM   16  H6  UNL     1      25.376   4.681  48.099  1.00  0.00     0.107 HD
ENDBRANCH   3  15
BRANCH   1  17
HETATM   17  N1  UNL     1      27.315   1.175  52.040  1.00  0.00    -0.326 N 
HETATM   18  C3  UNL     1      28.020   1.380  53.257  1.00  0.00     0.244 C 
HETATM   19  O1  UNL     1      27.569   2.275  54.017  1.00  0.00    -0.268 OA
HETATM   20  H4  UNL     1      27.702   0.422  51.410  1.00  0.00     0.169 HD
BRANCH  18  21
HETATM   21  C2  UNL     1      29.196   0.592  53.592  1.00  0.00     0.064 C 
HETATM   22  C1  UNL     1      29.311  -0.633  54.023  1.00  0.00     0.017 C 
ENDBRANCH  18  21
ENDBRANCH   1  17
TORSDOF 8
ENDMDL
MODEL 7
REMARK VINA RESULT:      -5.5      2.896      4.487
REMARK  8 active torsions:
REMARK  status: ('A' for Active; 'I' for Inactive)
REMARK    1  A    between atoms: C2_2  and  C3_3 
REMARK       I    between atoms: C3_3  and  N1_5 
REMARK    2  A    between atoms: N1_5  and  C4_6 
REMARK    3  A    between atoms: C6_8  and  S1_9 
REMARK    4  A    between atoms: N2_11  and  C8_12 
REMARK    5  A    between atoms: C8_12  and  C9_13 
REMARK    6  A    between atoms: C9_13  and  C10_14 
REMARK    7  A    between atoms: C10_14  and  C11_15 
REMARK    8  A    between atoms: C10_14  and  N3_17 
ROOT
HETATM    1  C4  UNL     1      25.986   2.247  51.580  1.00  0.00     0.031 A 
HETATM    2  C5  UNL     1      26.700   1.146  51.774  1.00  0.00     0.046 A 
HETATM    3  C6  UNL     1      26.039   0.022  52.439  1.00  0.00     0.014 A 
HETATM    4  C7  UNL     1      24.777   0.075  52.841  1.00  0.00     0.104 A 
HETATM    5  N2  UNL     1      24.026   1.267  52.625  1.00  0.00    -0.383 N 
HETATM    6  C15 UNL     1      24.571   2.447  51.977  1.00  0.00     0.179 A 
ENDROOT
BRANCH   5   7
HETATM    7  C8  UNL     1      22.632   1.338  53.064  1.00  0.00     0.124 C 
BRANCH   7   8
HETATM    8  C9  UNL     1      21.721   0.626  52.095  1.00  0.00     0.044 C 
BRANCH   8   9
HETATM    9  C10 UNL     1      20.681   1.532  51.475  1.00  0.00     0.079 C 
BRANCH   9  10
HETATM   10  C11 UNL     1      19.374   0.819  51.245  1.00  0.00     0.020 C 
HETATM   11  C12 UNL     1      19.042  -0.146  52.349  1.00  0.00     0.007 C 
ENDBRANCH   9  10
BRANCH   9  12
HETATM   12  N3  UNL     1      21.208   2.191  50.358  1.00  0.00    -0.417 N 
HETATM   13  C13 UNL     1      21.900   1.481  49.368  1.00  0.00     0.143 C 
HETATM   14  C14 UNL     1      21.211   3.602  50.323  1.00  0.00     0.143 C 
ENDBRANCH   9  12
ENDBRANCH   8   9
ENDBRANCH   7   8
ENDBRANCH   5   7
BRANCH   3  15
HETATM   15  S1  UNL     1      26.950  -1.487  52.726  1.00  0.00    -0.142 SA
HETATM   16  H6  UNL     1      27.553  -1.826  51.479  1.00  0.00     0.107 HD
ENDBRANCH   3  15
BRANCH   1  17
HETATM   17  N1  UNL     1      26.653   3.321  50.933  1.00  0.00    -0.326 N 
HETATM   18  C3  UNL     1      26.277   3.802  49.650  1.00  0.00     0.244 C 
HETATM   19  O1  UNL     1      25.306   3.222  49.100  1.00  0.00    -0.268 OA
HETATM   20  H4  UNL     1      27.468   3.814  51.386  1.00  0.00     0.169 HD
BRANCH  18  21
HETATM   21  C2  UNL     1      26.986   4.905  49.019  1.00  0.00     0.064 C 
HETATM   22  C1  UNL     1      26.591   6.105  48.699  1.00  0.00     0.017 C 
ENDBRANCH  18  21
ENDBRANCH   1  17
TORSDOF 8
ENDMDL
MODEL 8
REMARK VINA RESULT:      -5.5      3.193      5.022
REMARK  8 active torsions:
REMARK  status: ('A' for Active; 'I' for Inactive)
REMARK    1  A    between atoms: C2_2  and  C3_3 
REMARK       I    between atoms: C3_3  and  N1_5 
REMARK    2  A    between atoms: N1_5  and  C4_6 
REMARK    3  A    between atoms: C6_8  and  S1_9 
REMARK    4  A    between atoms: N2_11  and  C8_12 
REMARK    5  A    between atoms: C8_12  and  C9_13 
REMARK    6  A    between atoms: C9_13  and  C10_14 
REMARK    7  A    between atoms: C10_14  and  C11_15 
REMARK    8  A    between atoms: C10_14  and  N3_17 
ROOT
HETATM    1  C4  UNL     1      24.807   4.339  49.576  1.00  0.00     0.031 A 
HETATM    2  C5  UNL     1      23.926   3.922  48.676  1.00  0.00     0.046 A 
HETATM    3  C6  UNL     1      23.029   2.833  49.065  1.00  0.00     0.014 A 
HETATM    4  C7  UNL     1      23.073   2.268  50.263  1.00  0.00     0.104 A 
HETATM    5  N2  UNL     1      24.027   2.728  51.217  1.00  0.00    -0.383 N 
HETATM    6  C15 UNL     1      24.970   3.800  50.948  1.00  0.00     0.179 A 
ENDROOT
BRANCH   5   7
HETATM    7  C8  UNL     1      24.087   2.113  52.542  1.00  0.00     0.124 C 
BRANCH   7   8
HETATM    8  C9  UNL     1      24.194   0.611  52.439  1.00  0.00     0.044 C 
BRANCH   8   9
HETATM    9  C10 UNL     1      24.451  -0.062  53.768  1.00  0.00     0.079 C 
BRANCH   9  10
HETATM   10  C11 UNL     1      25.749  -0.828  53.772  1.00  0.00     0.020 C 
HETATM   11  C12 UNL     1      26.522  -0.659  52.494  1.00  0.00     0.007 C 
ENDBRANCH   9  10
BRANCH   9  12
HETATM   12  N3  UNL     1      23.327  -0.789  54.177  1.00  0.00    -0.417 N 
HETATM   13  C13 UNL     1      23.249  -1.320  55.472  1.00  0.00     0.143 C 
HETATM   14  C14 UNL     1      22.354  -1.156  53.223  1.00  0.00     0.143 C 
ENDBRANCH   9  12
ENDBRANCH   8   9
ENDBRANCH   7   8
ENDBRANCH   5   7
BRANCH   3  15
HETATM   15  S1  UNL     1      21.821   2.231  47.895  1.00  0.00    -0.142 SA
HETATM   16  H6  UNL     1      21.408   3.366  47.137  1.00  0.00     0.107 HD
ENDBRANCH   3  15
BRANCH   1  17
HETATM   17  N1  UNL     1      25.664   5.396  49.171  1.00  0.00    -0.326 N 
HETATM   18  C3  UNL     1      27.027   5.194  48.823  1.00  0.00     0.244 C 
HETATM   19  O1  UNL     1      27.450   4.012  48.892  1.00  0.00    -0.268 OA
HETATM   20  H4  UNL     1      25.319   6.391  49.110  1.00  0.00     0.169 HD
BRANCH  18  21
HETATM   21  C2  UNL     1      27.875   6.303  48.413  1.00  0.00     0.064 C 
HETATM   22  C1  UNL     1      28.990   6.324  47.738  1.00  0.00     0.017 C 
ENDBRANCH  18  21
ENDBRANCH   1  17
TORSDOF 8
ENDMDL
MODEL 9
REMARK VINA RESULT:      -5.4      2.866      5.206
REMARK  8 active torsions:
REMARK  status: ('A' for Active; 'I' for Inactive)
REMARK    1  A    between atoms: C2_2  and  C3_3 
REMARK       I    between atoms: C3_3  and  N1_5 
REMARK    2  A    between atoms: N1_5  and  C4_6 
REMARK    3  A    between atoms: C6_8  and  S1_9 
REMARK    4  A    between atoms: N2_11  and  C8_12 
REMARK    5  A    between atoms: C8_12  and  C9_13 
REMARK    6  A    between atoms: C9_13  and  C10_14 
REMARK    7  A    between atoms: C10_14  and  C11_15 
REMARK    8  A    between atoms: C10_14  and  N3_17 
ROOT
HETATM    1  C4  UNL     1      24.611   0.461  52.892  1.00  0.00     0.031 A 
HETATM    2  C5  UNL     1      23.606   0.115  53.686  1.00  0.00     0.046 A 
HETATM    3  C6  UNL     1      22.256   0.499  53.270  1.00  0.00     0.014 A 
HETATM    4  C7  UNL     1      22.019   1.166  52.149  1.00  0.00     0.104 A 
HETATM    5  N2  UNL     1      23.112   1.529  51.310  1.00  0.00    -0.383 N 
HETATM    6  C15 UNL     1      24.495   1.206  51.616  1.00  0.00     0.179 A 
ENDROOT
BRANCH   5   7
HETATM    7  C8  UNL     1      22.865   2.265  50.070  1.00  0.00     0.124 C 
BRANCH   7   8
HETATM    8  C9  UNL     1      23.944   3.289  49.822  1.00  0.00     0.044 C 
BRANCH   8   9
HETATM    9  C10 UNL     1      23.410   4.694  49.657  1.00  0.00     0.079 C 
BRANCH   9  10
HETATM   10  C11 UNL     1      24.433   5.622  49.056  1.00  0.00     0.020 C 
HETATM   11  C12 UNL     1      23.849   6.520  48.002  1.00  0.00     0.007 C 
ENDBRANCH   9  10
BRANCH   9  12
HETATM   12  N3  UNL     1      22.825   5.140  50.848  1.00  0.00    -0.417 N 
HETATM   13  C13 UNL     1      21.533   5.684  50.852  1.00  0.00     0.143 C 
HETATM   14  C14 UNL     1      23.610   5.223  52.018  1.00  0.00     0.143 C 
ENDBRANCH   9  12
ENDBRANCH   8   9
ENDBRANCH   7   8
ENDBRANCH   5   7
BRANCH   3  15
HETATM   15  S1  UNL     1      20.863   0.060  54.298  1.00  0.00    -0.142 SA
HETATM   16  H6  UNL     1      19.704   0.230  53.483  1.00  0.00     0.107 HD
ENDBRANCH   3  15
BRANCH   1  17
HETATM   17  N1  UNL     1      25.908   0.076  53.322  1.00  0.00    -0.326 N 
HETATM   18  C3  UNL     1      26.754   0.926  54.084  1.00  0.00     0.244 C 
HETATM   19  O1  UNL     1      26.292   2.061  54.368  1.00  0.00    -0.268 OA
HETATM   20  H4  UNL     1      26.306  -0.874  53.089  1.00  0.00     0.169 HD
BRANCH  18  21
HETATM   21  C2  UNL     1      28.078   0.496  54.505  1.00  0.00     0.064 C 
HETATM   22  C1  UNL     1      29.258   0.990  54.256  1.00  0.00     0.017 C 
ENDBRANCH  18  21
ENDBRANCH   1  17
TORSDOF 8
ENDMDL
