MODEL 1
REMARK VINA RESULT:      -8.4      0.000      0.000
REMARK  0 active torsions:
REMARK  status: ('A' for Active; 'I' for Inactive)
ROOT
HETATM    1 CL1  UNL     1      21.945  -0.771  54.923  1.00  0.00    -0.176 Cl
HETATM    2  C1  UNL     1      21.758  -0.151  53.309  1.00  0.00     0.000 A 
HETATM    3  C2  UNL     1      23.030  -0.316  53.508  1.00  0.00     0.135 A 
HETATM    4  C3  UNL     1      24.442  -0.475  53.662  1.00  0.00     0.026 C 
HETATM    5  C4  UNL     1      25.704  -0.429  53.266  1.00  0.00     0.048 C 
HETATM    6  C5  UNL     1      26.495  -0.076  52.065  1.00  0.00     0.172 C 
HETATM    7  N1  UNL     1      27.132   1.205  52.274  1.00  0.00    -0.223 NA
HETATM    8  C6  UNL     1      26.429   2.326  51.718  1.00  0.00     0.140 C 
HETATM    9  C7  UNL     1      24.979   2.137  51.584  1.00  0.00     0.191 C 
HETATM   10  O1  UNL     1      24.257   3.242  51.008  1.00  0.00    -0.354 OA
HETATM   11  C8  UNL     1      22.945   2.942  50.563  1.00  0.00     0.047 C 
HETATM   12  C9  UNL     1      22.273   2.284  51.535  1.00  0.00     0.039 C 
HETATM   13  C10 UNL     1      21.565   1.026  51.169  1.00  0.00    -0.055 C 
HETATM   14  C11 UNL     1      21.642   0.639  49.908  1.00  0.00    -0.019 C 
HETATM   15  C12 UNL     1      21.678   1.687  48.841  1.00  0.00     0.034 C 
HETATM   16  C13 UNL     1      21.984   3.054  49.446  1.00  0.00     0.068 C 
HETATM   17  C14 UNL     1      20.850   0.358  52.286  1.00  0.00     0.085 C 
HETATM   18  N2  UNL     1      27.562   1.345  53.586  1.00  0.00    -0.313 N 
HETATM   19  C15 UNL     1      27.648   0.127  54.380  1.00  0.00     0.218 C 
HETATM   20  N3  UNL     1      26.622  -0.740  54.343  1.00  0.00    -0.247 NA
HETATM   21  H17 UNL     1      27.834   2.212  54.080  1.00  0.00     0.181 HD
ENDROOT
TORSDOF 0
ENDMDL
MODEL 2
REMARK VINA RESULT:      -8.2      2.511      3.867
REMARK  0 active torsions:
REMARK  status: ('A' for Active; 'I' for Inactive)
ROOT
HETATM    1 CL1  UNL     1      26.735   3.282  49.359  1.00  0.00    -0.176 Cl
HETATM    2  C1  UNL     1      25.187   3.218  50.148  1.00  0.00     0.000 A 
HETATM    3  C2  UNL     1      26.057   2.732  50.978  1.00  0.00     0.135 A 
HETATM    4  C3  UNL     1      26.963   2.187  51.940  1.00  0.00     0.026 C 
HETATM    5  C4  UNL     1      27.301   1.667  53.109  1.00  0.00     0.048 C 
HETATM    6  C5  UNL     1      26.675   1.288  54.396  1.00  0.00     0.172 C 
HETATM    7  N1  UNL     1      26.548  -0.151  54.459  1.00  0.00    -0.223 NA
HETATM    8  C6  UNL     1      25.261  -0.659  54.077  1.00  0.00     0.140 C 
HETATM    9  C7  UNL     1      24.513   0.196  53.147  1.00  0.00     0.191 C 
HETATM   10  O1  UNL     1      23.209  -0.285  52.768  1.00  0.00    -0.354 OA
HETATM   11  C8  UNL     1      22.361   0.676  52.164  1.00  0.00     0.047 C 
HETATM   12  C9  UNL     1      23.027   1.316  51.177  1.00  0.00     0.039 C 
HETATM   13  C10 UNL     1      22.994   2.805  51.160  1.00  0.00    -0.055 C 
HETATM   14  C11 UNL     1      22.309   3.401  52.119  1.00  0.00    -0.019 C 
HETATM   15  C12 UNL     1      21.066   2.739  52.625  1.00  0.00     0.034 C 
HETATM   16  C13 UNL     1      21.014   1.284  52.170  1.00  0.00     0.068 C 
HETATM   17  C14 UNL     1      23.748   3.439  50.048  1.00  0.00     0.085 C 
HETATM   18  N2  UNL     1      27.645  -0.779  53.886  1.00  0.00    -0.313 N 
HETATM   19  C15 UNL     1      28.834   0.038  53.683  1.00  0.00     0.218 C 
HETATM   20  N3  UNL     1      28.692   1.259  53.140  1.00  0.00    -0.247 NA
HETATM   21  H17 UNL     1      27.731  -1.764  53.583  1.00  0.00     0.181 HD
ENDROOT
TORSDOF 0
ENDMDL
MODEL 3
REMARK VINA RESULT:      -7.9      2.588      5.150
REMARK  0 active torsions:
REMARK  status: ('A' for Active; 'I' for Inactive)
ROOT
HETATM    1 CL1  UNL     1      21.486  -0.677  53.500  1.00  0.00    -0.176 Cl
HETATM    2  C1  UNL     1      23.166  -0.514  53.916  1.00  0.00     0.000 A 
HETATM    3  C2  UNL     1      22.813   0.585  53.325  1.00  0.00     0.135 A 
HETATM    4  C3  UNL     1      22.489   1.821  52.682  1.00  0.00     0.026 C 
HETATM    5  C4  UNL     1      22.741   3.038  52.229  1.00  0.00     0.048 C 
HETATM    6  C5  UNL     1      23.857   4.009  52.168  1.00  0.00     0.172 C 
HETATM    7  N1  UNL     1      24.389   4.039  50.823  1.00  0.00    -0.223 NA
HETATM    8  C6  UNL     1      25.547   3.216  50.615  1.00  0.00     0.140 C 
HETATM    9  C7  UNL     1      25.654   2.065  51.519  1.00  0.00     0.191 C 
HETATM   10  O1  UNL     1      26.820   1.238  51.341  1.00  0.00    -0.354 OA
HETATM   11  C8  UNL     1      27.103   0.352  52.410  1.00  0.00     0.047 C 
HETATM   12  C9  UNL     1      25.984  -0.329  52.746  1.00  0.00     0.039 C 
HETATM   13  C10 UNL     1      25.597  -0.377  54.184  1.00  0.00    -0.055 C 
HETATM   14  C11 UNL     1      26.384   0.254  55.038  1.00  0.00    -0.019 C 
HETATM   15  C12 UNL     1      27.856   0.275  54.770  1.00  0.00     0.034 C 
HETATM   16  C13 UNL     1      28.143  -0.148  53.333  1.00  0.00     0.068 C 
HETATM   17  C14 UNL     1      24.358  -1.140  54.479  1.00  0.00     0.085 C 
HETATM   18  N2  UNL     1      23.379   3.919  49.879  1.00  0.00    -0.313 N 
HETATM   19  C15 UNL     1      22.018   4.158  50.344  1.00  0.00     0.218 C 
HETATM   20  N3  UNL     1      21.619   3.585  51.491  1.00  0.00    -0.247 NA
HETATM   21  H17 UNL     1      23.466   3.682  48.877  1.00  0.00     0.181 HD
ENDROOT
TORSDOF 0
ENDMDL
MODEL 4
REMARK VINA RESULT:      -7.8      2.454      4.405
REMARK  0 active torsions:
REMARK  status: ('A' for Active; 'I' for Inactive)
ROOT
HETATM    1 CL1  UNL     1      21.066   1.411  48.547  1.00  0.00    -0.176 Cl
HETATM    2  C1  UNL     1      20.909   1.026  50.235  1.00  0.00     0.000 A 
HETATM    3  C2  UNL     1      21.994   1.724  50.104  1.00  0.00     0.135 A 
HETATM    4  C3  UNL     1      23.199   2.490  50.030  1.00  0.00     0.026 C 
HETATM    5  C4  UNL     1      24.270   3.090  50.523  1.00  0.00     0.048 C 
HETATM    6  C5  UNL     1      24.928   3.326  51.828  1.00  0.00     0.172 C 
HETATM    7  N1  UNL     1      26.086   2.466  51.941  1.00  0.00    -0.223 NA
HETATM    8  C6  UNL     1      25.862   1.245  52.662  1.00  0.00     0.140 C 
HETATM    9  C7  UNL     1      24.476   0.764  52.642  1.00  0.00     0.191 C 
HETATM   10  O1  UNL     1      24.225  -0.449  53.378  1.00  0.00    -0.354 OA
HETATM   11  C8  UNL     1      22.862  -0.722  53.647  1.00  0.00     0.047 C 
HETATM   12  C9  UNL     1      22.139  -0.602  52.512  1.00  0.00     0.039 C 
HETATM   13  C10 UNL     1      20.902   0.228  52.551  1.00  0.00    -0.055 C 
HETATM   14  C11 UNL     1      20.596   0.792  53.706  1.00  0.00    -0.019 C 
HETATM   15  C12 UNL     1      20.912   0.052  54.968  1.00  0.00     0.034 C 
HETATM   16  C13 UNL     1      21.878  -1.094  54.686  1.00  0.00     0.068 C 
HETATM   17  C14 UNL     1      20.161   0.317  51.268  1.00  0.00     0.085 C 
HETATM   18  N2  UNL     1      26.742   2.343  50.723  1.00  0.00    -0.313 N 
HETATM   19  C15 UNL     1      26.415   3.330  49.702  1.00  0.00     0.218 C 
HETATM   20  N3  UNL     1      25.123   3.622  49.479  1.00  0.00    -0.247 NA
HETATM   21  H17 UNL     1      27.441   1.635  50.443  1.00  0.00     0.181 HD
ENDROOT
TORSDOF 0
ENDMDL
MODEL 5
REMARK VINA RESULT:      -7.8      1.834      2.274
REMARK  0 active torsions:
REMARK  status: ('A' for Active; 'I' for Inactive)
ROOT
HETATM    1 CL1  UNL     1      22.367  -1.726  55.252  1.00  0.00    -0.176 Cl
HETATM    2  C1  UNL     1      21.390  -0.960  54.034  1.00  0.00     0.000 A 
HETATM    3  C2  UNL     1      22.615  -0.587  53.828  1.00  0.00     0.135 A 
HETATM    4  C3  UNL     1      23.943  -0.139  53.546  1.00  0.00     0.026 C 
HETATM    5  C4  UNL     1      24.865   0.526  52.869  1.00  0.00     0.048 C 
HETATM    6  C5  UNL     1      24.976   1.407  51.684  1.00  0.00     0.172 C 
HETATM    7  N1  UNL     1      25.157   2.774  52.122  1.00  0.00    -0.223 NA
HETATM    8  C6  UNL     1      23.955   3.557  52.164  1.00  0.00     0.140 C 
HETATM    9  C7  UNL     1      22.723   2.783  52.361  1.00  0.00     0.191 C 
HETATM   10  O1  UNL     1      21.503   3.548  52.385  1.00  0.00    -0.354 OA
HETATM   11  C8  UNL     1      20.313   2.794  52.228  1.00  0.00     0.047 C 
HETATM   12  C9  UNL     1      20.325   1.741  53.075  1.00  0.00     0.039 C 
HETATM   13  C10 UNL     1      20.017   0.392  52.521  1.00  0.00    -0.055 C 
HETATM   14  C11 UNL     1      19.749   0.321  51.229  1.00  0.00    -0.019 C 
HETATM   15  C12 UNL     1      19.018   1.459  50.589  1.00  0.00     0.034 C 
HETATM   16  C13 UNL     1      19.031   2.682  51.501  1.00  0.00     0.068 C 
HETATM   17  C14 UNL     1      20.051  -0.717  53.508  1.00  0.00     0.085 C 
HETATM   18  N2  UNL     1      25.966   2.839  53.247  1.00  0.00    -0.313 N 
HETATM   19  C15 UNL     1      26.760   1.656  53.553  1.00  0.00     0.218 C 
HETATM   20  N3  UNL     1      26.165   0.452  53.507  1.00  0.00    -0.247 NA
HETATM   21  H17 UNL     1      26.083   3.628  53.906  1.00  0.00     0.181 HD
ENDROOT
TORSDOF 0
ENDMDL
MODEL 6
REMARK VINA RESULT:      -7.5      3.610      6.204
REMARK  0 active torsions:
REMARK  status: ('A' for Active; 'I' for Inactive)
ROOT
HETATM    1 CL1  UNL     1      25.580   4.752  49.908  1.00  0.00    -0.176 Cl
HETATM    2  C1  UNL     1      25.895   3.231  50.690  1.00  0.00     0.000 A 
HETATM    3  C2  UNL     1      24.732   3.133  50.123  1.00  0.00     0.135 A 
HETATM    4  C3  UNL     1      23.447   2.959  49.522  1.00  0.00     0.026 C 
HETATM    5  C4  UNL     1      22.352   2.287  49.208  1.00  0.00     0.048 C 
HETATM    6  C5  UNL     1      21.762   0.942  49.399  1.00  0.00     0.172 C 
HETATM    7  N1  UNL     1      20.718   1.017  50.396  1.00  0.00    -0.223 NA
HETATM    8  C6  UNL     1      21.125   0.650  51.723  1.00  0.00     0.140 C 
HETATM    9  C7  UNL     1      22.552   0.847  52.005  1.00  0.00     0.191 C 
HETATM   10  O1  UNL     1      22.986   0.465  53.325  1.00  0.00    -0.354 OA
HETATM   11  C8  UNL     1      24.386   0.328  53.485  1.00  0.00     0.047 C 
HETATM   12  C9  UNL     1      25.012   1.418  52.988  1.00  0.00     0.039 C 
HETATM   13  C10 UNL     1      26.148   1.207  52.047  1.00  0.00    -0.055 C 
HETATM   14  C11 UNL     1      26.468  -0.043  51.764  1.00  0.00    -0.019 C 
HETATM   15  C12 UNL     1      26.324  -1.077  52.836  1.00  0.00     0.034 C 
HETATM   16  C13 UNL     1      25.475  -0.540  53.984  1.00  0.00     0.068 C 
HETATM   17  C14 UNL     1      26.786   2.449  51.541  1.00  0.00     0.085 C 
HETATM   18  N2  UNL     1      19.999   2.198  50.285  1.00  0.00    -0.313 N 
HETATM   19  C15 UNL     1      20.143   2.937  49.036  1.00  0.00     0.218 C 
HETATM   20  N3  UNL     1      21.376   3.122  48.537  1.00  0.00    -0.247 NA
HETATM   21  H17 UNL     1      19.364   2.629  50.979  1.00  0.00     0.181 HD
ENDROOT
TORSDOF 0
ENDMDL
MODEL 7
REMARK VINA RESULT:      -7.4      5.870      7.412
REMARK  0 active torsions:
REMARK  status: ('A' for Active; 'I' for Inactive)
ROOT
HETATM    1 CL1  UNL     1      26.574   2.889  49.740  1.00  0.00    -0.176 Cl
HETATM    2  C1  UNL     1      25.529   4.194  49.262  1.00  0.00     0.000 A 
HETATM    3  C2  UNL     1      26.744   4.564  48.996  1.00  0.00     0.135 A 
HETATM    4  C3  UNL     1      28.057   5.031  48.678  1.00  0.00     0.026 C 
HETATM    5  C4  UNL     1      28.940   5.898  48.211  1.00  0.00     0.048 C 
HETATM    6  C5  UNL     1      28.978   7.238  47.580  1.00  0.00     0.172 C 
HETATM    7  N1  UNL     1      29.423   8.210  48.554  1.00  0.00    -0.223 NA
HETATM    8  C6  UNL     1      28.368   8.928  49.213  1.00  0.00     0.140 C 
HETATM    9  C7  UNL     1      27.089   8.213  49.286  1.00  0.00     0.191 C 
HETATM   10  O1  UNL     1      26.011   8.925  49.924  1.00  0.00    -0.354 OA
HETATM   11  C8  UNL     1      24.717   8.397  49.693  1.00  0.00     0.047 C 
HETATM   12  C9  UNL     1      24.718   7.066  49.925  1.00  0.00     0.039 C 
HETATM   13  C10 UNL     1      24.132   6.172  48.887  1.00  0.00    -0.055 C 
HETATM   14  C11 UNL     1      23.646   6.750  47.803  1.00  0.00    -0.019 C 
HETATM   15  C12 UNL     1      22.990   8.087  47.941  1.00  0.00     0.034 C 
HETATM   16  C13 UNL     1      23.329   8.711  49.291  1.00  0.00     0.068 C 
HETATM   17  C14 UNL     1      24.170   4.723  49.210  1.00  0.00     0.085 C 
HETATM   18  N2  UNL     1      30.408   7.684  49.378  1.00  0.00    -0.313 N 
HETATM   19  C15 UNL     1      31.063   6.466  48.918  1.00  0.00     0.218 C 
HETATM   20  N3  UNL     1      30.303   5.465  48.445  1.00  0.00    -0.247 NA
HETATM   21  H17 UNL     1      30.744   8.047  50.286  1.00  0.00     0.181 HD
ENDROOT
TORSDOF 0
ENDMDL
MODEL 8
REMARK VINA RESULT:      -7.3      7.134      8.711
REMARK  0 active torsions:
REMARK  status: ('A' for Active; 'I' for Inactive)
ROOT
HETATM    1 CL1  UNL     1      26.891   3.828  49.292  1.00  0.00    -0.176 Cl
HETATM    2  C1  UNL     1      26.405   5.412  48.765  1.00  0.00     0.000 A 
HETATM    3  C2  UNL     1      27.687   5.328  48.583  1.00  0.00     0.135 A 
HETATM    4  C3  UNL     1      29.098   5.300  48.356  1.00  0.00     0.026 C 
HETATM    5  C4  UNL     1      30.258   5.796  47.956  1.00  0.00     0.048 C 
HETATM    6  C5  UNL     1      30.805   7.030  47.348  1.00  0.00     0.172 C 
HETATM    7  N1  UNL     1      31.500   7.793  48.360  1.00  0.00    -0.223 NA
HETATM    8  C6  UNL     1      30.726   8.843  48.960  1.00  0.00     0.140 C 
HETATM    9  C7  UNL     1      29.275   8.625  48.942  1.00  0.00     0.191 C 
HETATM   10  O1  UNL     1      28.478   9.677  49.519  1.00  0.00    -0.354 OA
HETATM   11  C8  UNL     1      27.099   9.637  49.199  1.00  0.00     0.047 C 
HETATM   12  C9  UNL     1      26.616   8.392  49.414  1.00  0.00     0.039 C 
HETATM   13  C10 UNL     1      25.821   7.751  48.329  1.00  0.00    -0.055 C 
HETATM   14  C11 UNL     1      25.640   8.452  47.224  1.00  0.00    -0.019 C 
HETATM   15  C12 UNL     1      25.490   9.936  47.337  1.00  0.00     0.034 C 
HETATM   16  C13 UNL     1      25.939  10.415  48.714  1.00  0.00     0.068 C 
HETATM   17  C14 UNL     1      25.325   6.385  48.634  1.00  0.00     0.085 C 
HETATM   18  N2  UNL     1      32.182   6.962  49.238  1.00  0.00    -0.313 N 
HETATM   19  C15 UNL     1      32.395   5.587  48.805  1.00  0.00     0.218 C 
HETATM   20  N3  UNL     1      31.363   4.913  48.271  1.00  0.00    -0.247 NA
HETATM   21  H17 UNL     1      32.565   7.193  50.170  1.00  0.00     0.181 HD
ENDROOT
TORSDOF 0
ENDMDL
MODEL 9
REMARK VINA RESULT:      -7.1      8.392     10.041
REMARK  0 active torsions:
REMARK  status: ('A' for Active; 'I' for Inactive)
ROOT
HETATM    1 CL1  UNL     1      27.492   4.723  48.613  1.00  0.00    -0.176 Cl
HETATM    2  C1  UNL     1      27.683   6.418  48.276  1.00  0.00     0.000 A 
HETATM    3  C2  UNL     1      28.836   5.859  48.075  1.00  0.00     0.135 A 
HETATM    4  C3  UNL     1      30.132   5.305  47.836  1.00  0.00     0.026 C 
HETATM    5  C4  UNL     1      31.408   5.346  47.487  1.00  0.00     0.048 C 
HETATM    6  C5  UNL     1      32.416   6.325  47.020  1.00  0.00     0.172 C 
HETATM    7  N1  UNL     1      33.314   6.640  48.109  1.00  0.00    -0.223 NA
HETATM    8  C6  UNL     1      32.989   7.837  48.831  1.00  0.00     0.140 C 
HETATM    9  C7  UNL     1      31.570   8.209  48.799  1.00  0.00     0.191 C 
HETATM   10  O1  UNL     1      31.225   9.419  49.499  1.00  0.00    -0.354 OA
HETATM   11  C8  UNL     1      29.953   9.958  49.187  1.00  0.00     0.047 C 
HETATM   12  C9  UNL     1      29.015   8.988  49.261  1.00  0.00     0.039 C 
HETATM   13  C10 UNL     1      28.075   8.831  48.115  1.00  0.00    -0.055 C 
HETATM   14  C11 UNL     1      28.225   9.663  47.100  1.00  0.00    -0.019 C 
HETATM   15  C12 UNL     1      28.661  11.065  47.384  1.00  0.00     0.034 C 
HETATM   16  C13 UNL     1      29.208  11.177  48.803  1.00  0.00     0.068 C 
HETATM   17  C14 UNL     1      27.074   7.745  48.265  1.00  0.00     0.085 C 
HETATM   18  N2  UNL     1      33.584   5.518  48.880  1.00  0.00    -0.313 N 
HETATM   19  C15 UNL     1      33.259   4.225  48.290  1.00  0.00     0.218 C 
HETATM   20  N3  UNL     1      32.067   4.072  47.690  1.00  0.00    -0.247 NA
HETATM   21  H17 UNL     1      33.991   5.477  49.830  1.00  0.00     0.181 HD
ENDROOT
TORSDOF 0
ENDMDL
