MODEL 1
REMARK VINA RESULT:      -7.7      0.000      0.000
REMARK  6 active torsions:
REMARK  status: ('A' for Active; 'I' for Inactive)
REMARK    1  A    between atoms: C3_3  and  C4_4 
REMARK    2  A    between atoms: C3_3  and  C15_22 
REMARK    3  A    between atoms: C5_5  and  N1_6 
REMARK    4  A    between atoms: N1_6  and  C6_7 
REMARK    5  A    between atoms: C9_12  and  O1_13 
REMARK    6  A    between atoms: C15_22  and  C16_23 
ROOT
HETATM    1  C1  UNL     1      30.306   8.080  47.267  1.00  0.00     0.017 C 
HETATM    2  C2  UNL     1      29.385   7.503  47.611  1.00  0.00    -0.082 C 
HETATM    3  C3  UNL     1      28.311   6.803  48.018  1.00  0.00    -0.007 C 
ENDROOT
BRANCH   3   4
HETATM    4  C4  UNL     1      27.424   5.818  48.470  1.00  0.00     0.039 C 
HETATM    5  C5  UNL     1      27.344   4.619  48.920  1.00  0.00     0.147 C 
BRANCH   5   6
HETATM    6  N1  UNL     1      26.406   3.721  49.357  1.00  0.00    -0.346 N 
HETATM    7  H4  UNL     1      25.654   3.715  48.609  1.00  0.00     0.163 HD
BRANCH   6   8
HETATM    8  C6  UNL     1      26.191   2.846  50.497  1.00  0.00     0.264 A 
HETATM    9  N2  UNL     1      24.921   2.638  50.559  1.00  0.00    -0.130 NA
HETATM   10  N3  UNL     1      24.385   1.797  51.584  1.00  0.00    -0.272 N 
HETATM   11  C7  UNL     1      25.360   1.231  52.494  1.00  0.00     0.089 A 
HETATM   12  H5  UNL     1      23.356   1.560  51.709  1.00  0.00     0.189 HD
HETATM   13  C8  UNL     1      24.980   0.378  53.540  1.00  0.00     0.073 A 
HETATM   14  C13 UNL     1      26.712   1.496  52.375  1.00  0.00     0.143 A 
HETATM   15  C9  UNL     1      25.855  -0.205  54.440  1.00  0.00     0.106 A 
HETATM   16  C11 UNL     1      27.164   0.116  54.246  1.00  0.00     0.141 A 
HETATM   17  C12 UNL     1      27.614   0.956  53.230  1.00  0.00     0.144 A 
HETATM   18  O4  UNL     1      28.278  -0.299  54.982  1.00  0.00    -0.320 OA
HETATM   19  O3  UNL     1      28.984   1.040  53.355  1.00  0.00    -0.320 OA
HETATM   20  C14 UNL     1      29.427  -0.046  54.170  1.00  0.00     0.352 C 
HETATM   21  O2  UNL     1      27.167   2.345  51.333  1.00  0.00    -0.272 OA
BRANCH  15  22
HETATM   22  O1  UNL     1      25.313  -1.050  55.433  1.00  0.00    -0.353 OA
HETATM   23  C10 UNL     1      23.896  -1.236  55.370  1.00  0.00     0.210 C 
ENDBRANCH  15  22
ENDBRANCH   6   8
ENDBRANCH   5   6
ENDBRANCH   3   4
BRANCH   3  24
HETATM   24  C15 UNL     1      27.146   7.650  47.973  1.00  0.00    -0.010 C 
BRANCH  24  25
HETATM   25  C16 UNL     1      27.043   8.360  49.319  1.00  0.00     0.013 C 
HETATM   26  C17 UNL     1      26.276   9.079  49.978  1.00  0.00     0.019 C 
ENDBRANCH  24  25
ENDBRANCH   3  24
TORSDOF 6
ENDMDL
MODEL 2
REMARK VINA RESULT:      -7.3      0.675      1.626
REMARK  6 active torsions:
REMARK  status: ('A' for Active; 'I' for Inactive)
REMARK    1  A    between atoms: C3_3  and  C4_4 
REMARK    2  A    between atoms: C3_3  and  C15_22 
REMARK    3  A    between atoms: C5_5  and  N1_6 
REMARK    4  A    between atoms: N1_6  and  C6_7 
REMARK    5  A    between atoms: C9_12  and  O1_13 
REMARK    6  A    between atoms: C15_22  and  C16_23 
ROOT
HETATM    1  C1  UNL     1      26.352   9.915  48.089  1.00  0.00     0.017 C 
HETATM    2  C2  UNL     1      26.638   8.814  48.166  1.00  0.00    -0.082 C 
HETATM    3  C3  UNL     1      26.961   7.513  48.275  1.00  0.00    -0.007 C 
ENDROOT
BRANCH   3   4
HETATM    4  C4  UNL     1      27.034   6.156  48.613  1.00  0.00     0.039 C 
HETATM    5  C5  UNL     1      26.380   5.173  49.116  1.00  0.00     0.147 C 
BRANCH   5   6
HETATM    6  N1  UNL     1      26.538   3.844  49.404  1.00  0.00    -0.346 N 
HETATM    7  H4  UNL     1      26.987   3.420  48.541  1.00  0.00     0.163 HD
BRANCH   6   8
HETATM    8  C6  UNL     1      26.266   2.933  50.504  1.00  0.00     0.264 A 
HETATM    9  N2  UNL     1      24.992   2.736  50.503  1.00  0.00    -0.130 NA
HETATM   10  N3  UNL     1      24.404   1.867  51.475  1.00  0.00    -0.272 N 
HETATM   11  C7  UNL     1      25.333   1.261  52.407  1.00  0.00     0.089 A 
HETATM   12  H5  UNL     1      23.369   1.636  51.546  1.00  0.00     0.189 HD
HETATM   13  C8  UNL     1      24.900   0.377  53.405  1.00  0.00     0.073 A 
HETATM   14  C13 UNL     1      26.692   1.516  52.356  1.00  0.00     0.143 A 
HETATM   15  C9  UNL     1      25.730  -0.245  54.323  1.00  0.00     0.106 A 
HETATM   16  C11 UNL     1      27.049   0.070  54.197  1.00  0.00     0.141 A 
HETATM   17  C12 UNL     1      27.550   0.938  53.231  1.00  0.00     0.144 A 
HETATM   18  O4  UNL     1      28.126  -0.381  54.967  1.00  0.00    -0.320 OA
HETATM   19  O3  UNL     1      28.915   1.004  53.419  1.00  0.00    -0.320 OA
HETATM   20  C14 UNL     1      29.311  -0.112  54.214  1.00  0.00     0.352 C 
HETATM   21  O2  UNL     1      27.199   2.395  51.364  1.00  0.00    -0.272 OA
BRANCH  15  22
HETATM   22  O1  UNL     1      25.137  -1.116  55.262  1.00  0.00    -0.353 OA
HETATM   23  C10 UNL     1      23.710  -1.192  55.210  1.00  0.00     0.210 C 
ENDBRANCH  15  22
ENDBRANCH   6   8
ENDBRANCH   5   6
ENDBRANCH   3   4
BRANCH   3  24
HETATM   24  C15 UNL     1      28.088   7.230  47.423  1.00  0.00    -0.010 C 
BRANCH  24  25
HETATM   25  C16 UNL     1      29.328   7.816  48.093  1.00  0.00     0.013 C 
HETATM   26  C17 UNL     1      30.403   7.474  48.608  1.00  0.00     0.019 C 
ENDBRANCH  24  25
ENDBRANCH   3  24
TORSDOF 6
ENDMDL
MODEL 3
REMARK VINA RESULT:      -7.2      1.822      2.215
REMARK  6 active torsions:
REMARK  status: ('A' for Active; 'I' for Inactive)
REMARK    1  A    between atoms: C3_3  and  C4_4 
REMARK    2  A    between atoms: C3_3  and  C15_22 
REMARK    3  A    between atoms: C5_5  and  N1_6 
REMARK    4  A    between atoms: N1_6  and  C6_7 
REMARK    5  A    between atoms: C9_12  and  O1_13 
REMARK    6  A    between atoms: C15_22  and  C16_23 
ROOT
HETATM    1  C1  UNL     1      32.523   5.236  46.582  1.00  0.00     0.017 C 
HETATM    2  C2  UNL     1      31.542   5.384  47.142  1.00  0.00    -0.082 C 
HETATM    3  C3  UNL     1      30.382   5.536  47.806  1.00  0.00    -0.007 C 
ENDROOT
BRANCH   3   4
HETATM    4  C4  UNL     1      29.202   5.351  48.537  1.00  0.00     0.039 C 
HETATM    5  C5  UNL     1      28.027   4.836  48.502  1.00  0.00     0.147 C 
BRANCH   5   6
HETATM    6  N1  UNL     1      26.918   4.695  49.293  1.00  0.00    -0.346 N 
HETATM    7  H4  UNL     1      26.391   5.612  49.204  1.00  0.00     0.163 HD
BRANCH   6   8
HETATM    8  C6  UNL     1      26.326   3.690  50.161  1.00  0.00     0.264 A 
HETATM    9  N2  UNL     1      25.054   3.747  49.963  1.00  0.00    -0.130 NA
HETATM   10  N3  UNL     1      24.181   2.864  50.674  1.00  0.00    -0.272 N 
HETATM   11  C7  UNL     1      24.835   1.949  51.587  1.00  0.00     0.089 A 
HETATM   12  H5  UNL     1      23.124   2.830  50.570  1.00  0.00     0.189 HD
HETATM   13  C8  UNL     1      24.107   1.018  52.341  1.00  0.00     0.073 A 
HETATM   14  C13 UNL     1      26.208   1.940  51.756  1.00  0.00     0.143 A 
HETATM   15  C9  UNL     1      24.664   0.109  53.224  1.00  0.00     0.106 A 
HETATM   16  C11 UNL     1      26.021   0.178  53.326  1.00  0.00     0.141 A 
HETATM   17  C12 UNL     1      26.807   1.075  52.609  1.00  0.00     0.144 A 
HETATM   18  O4  UNL     1      26.871  -0.591  54.127  1.00  0.00    -0.320 OA
HETATM   19  O3  UNL     1      28.116   0.844  52.976  1.00  0.00    -0.320 OA
HETATM   20  C14 UNL     1      28.188  -0.440  53.594  1.00  0.00     0.352 C 
HETATM   21  O2  UNL     1      27.007   2.851  51.016  1.00  0.00    -0.272 OA
BRANCH  15  22
HETATM   22  O1  UNL     1      23.792  -0.770  53.902  1.00  0.00    -0.353 OA
HETATM   23  C10 UNL     1      22.437  -0.761  53.443  1.00  0.00     0.210 C 
ENDBRANCH  15  22
ENDBRANCH   6   8
ENDBRANCH   5   6
ENDBRANCH   3   4
BRANCH   3  24
HETATM   24  C15 UNL     1      29.997   6.924  47.779  1.00  0.00    -0.010 C 
BRANCH  24  25
HETATM   25  C16 UNL     1      30.704   7.619  48.939  1.00  0.00     0.013 C 
HETATM   26  C17 UNL     1      31.500   8.541  49.175  1.00  0.00     0.019 C 
ENDBRANCH  24  25
ENDBRANCH   3  24
TORSDOF 6
ENDMDL
MODEL 4
REMARK VINA RESULT:      -7.1      3.410      8.768
REMARK  6 active torsions:
REMARK  status: ('A' for Active; 'I' for Inactive)
REMARK    1  A    between atoms: C3_3  and  C4_4 
REMARK    2  A    between atoms: C3_3  and  C15_22 
REMARK    3  A    between atoms: C5_5  and  N1_6 
REMARK    4  A    between atoms: N1_6  and  C6_7 
REMARK    5  A    between atoms: C9_12  and  O1_13 
REMARK    6  A    between atoms: C15_22  and  C16_23 
ROOT
HETATM    1  C1  UNL     1      26.896  -1.361  52.696  1.00  0.00     0.017 C 
HETATM    2  C2  UNL     1      26.713  -0.293  52.342  1.00  0.00    -0.082 C 
HETATM    3  C3  UNL     1      26.508   0.963  51.906  1.00  0.00    -0.007 C 
ENDROOT
BRANCH   3   4
HETATM    4  C4  UNL     1      26.462   2.154  51.171  1.00  0.00     0.039 C 
HETATM    5  C5  UNL     1      26.283   2.647  50.001  1.00  0.00     0.147 C 
BRANCH   5   6
HETATM    6  N1  UNL     1      26.246   3.860  49.366  1.00  0.00    -0.346 N 
HETATM    7  H4  UNL     1      25.216   4.076  49.231  1.00  0.00     0.163 HD
BRANCH   6   8
HETATM    8  C6  UNL     1      27.185   4.849  48.862  1.00  0.00     0.264 A 
HETATM    9  N2  UNL     1      26.493   5.904  48.601  1.00  0.00    -0.130 NA
HETATM   10  N3  UNL     1      27.140   7.074  48.091  1.00  0.00    -0.272 N 
HETATM   11  C7  UNL     1      28.572   6.960  47.909  1.00  0.00     0.089 A 
HETATM   12  H5  UNL     1      26.655   7.990  47.856  1.00  0.00     0.189 HD
HETATM   13  C8  UNL     1      29.339   8.031  47.429  1.00  0.00     0.073 A 
HETATM   14  C13 UNL     1      29.258   5.796  48.207  1.00  0.00     0.143 A 
HETATM   15  C9  UNL     1      30.710   7.997  47.239  1.00  0.00     0.106 A 
HETATM   16  C11 UNL     1      31.296   6.809  47.556  1.00  0.00     0.141 A 
HETATM   17  C12 UNL     1      30.599   5.705  48.038  1.00  0.00     0.144 A 
HETATM   18  O4  UNL     1      32.647   6.458  47.469  1.00  0.00    -0.320 OA
HETATM   19  O3  UNL     1      31.524   4.703  48.241  1.00  0.00    -0.320 OA
HETATM   20  C14 UNL     1      32.822   5.293  48.279  1.00  0.00     0.352 C 
HETATM   21  O2  UNL     1      28.544   4.676  48.707  1.00  0.00    -0.272 OA
BRANCH  15  22
HETATM   22  O1  UNL     1      31.337   9.166  46.755  1.00  0.00    -0.353 OA
HETATM   23  C10 UNL     1      30.471  10.288  46.562  1.00  0.00     0.210 C 
ENDBRANCH  15  22
ENDBRANCH   6   8
ENDBRANCH   5   6
ENDBRANCH   3   4
BRANCH   3  24
HETATM   24  C15 UNL     1      25.821   1.714  52.925  1.00  0.00    -0.010 C 
BRANCH  24  25
HETATM   25  C16 UNL     1      24.327   1.463  52.753  1.00  0.00     0.013 C 
HETATM   26  C17 UNL     1      23.439   0.652  53.062  1.00  0.00     0.019 C 
ENDBRANCH  24  25
ENDBRANCH   3  24
TORSDOF 6
ENDMDL
MODEL 5
REMARK VINA RESULT:      -7.0      1.748      3.317
REMARK  6 active torsions:
REMARK  status: ('A' for Active; 'I' for Inactive)
REMARK    1  A    between atoms: C3_3  and  C4_4 
REMARK    2  A    between atoms: C3_3  and  C15_22 
REMARK    3  A    between atoms: C5_5  and  N1_6 
REMARK    4  A    between atoms: N1_6  and  C6_7 
REMARK    5  A    between atoms: C9_12  and  O1_13 
REMARK    6  A    between atoms: C15_22  and  C16_23 
ROOT
HETATM    1  C1  UNL     1      25.715   9.076  46.246  1.00  0.00     0.017 C 
HETATM    2  C2  UNL     1      25.676   8.188  46.959  1.00  0.00    -0.082 C 
HETATM    3  C3  UNL     1      25.608   7.134  47.792  1.00  0.00    -0.007 C 
ENDROOT
BRANCH   3   4
HETATM    4  C4  UNL     1      25.246   5.972  48.484  1.00  0.00     0.039 C 
HETATM    5  C5  UNL     1      24.255   5.238  48.838  1.00  0.00     0.147 C 
BRANCH   5   6
HETATM    6  N1  UNL     1      23.995   4.082  49.525  1.00  0.00    -0.346 N 
HETATM    7  H4  UNL     1      23.040   3.764  49.188  1.00  0.00     0.163 HD
BRANCH   6   8
HETATM    8  C6  UNL     1      24.640   3.246  50.524  1.00  0.00     0.264 A 
HETATM    9  N2  UNL     1      25.868   3.632  50.579  1.00  0.00    -0.130 NA
HETATM   10  N3  UNL     1      26.774   2.999  51.488  1.00  0.00    -0.272 N 
HETATM   11  C7  UNL     1      26.203   1.943  52.298  1.00  0.00     0.089 A 
HETATM   12  H5  UNL     1      27.799   3.254  51.611  1.00  0.00     0.189 HD
HETATM   13  C8  UNL     1      26.969   1.243  53.241  1.00  0.00     0.073 A 
HETATM   14  C13 UNL     1      24.874   1.574  52.188  1.00  0.00     0.143 A 
HETATM   15  C9  UNL     1      26.489   0.230  54.053  1.00  0.00     0.106 A 
HETATM   16  C11 UNL     1      25.172  -0.064  53.872  1.00  0.00     0.141 A 
HETATM   17  C12 UNL     1      24.351   0.587  52.955  1.00  0.00     0.144 A 
HETATM   18  O4  UNL     1      24.401  -1.030  54.525  1.00  0.00    -0.320 OA
HETATM   19  O3  UNL     1      23.099   0.019  53.061  1.00  0.00    -0.320 OA
HETATM   20  C14 UNL     1      23.032  -0.686  54.300  1.00  0.00     0.352 C 
HETATM   21  O2  UNL     1      24.039   2.247  51.259  1.00  0.00    -0.272 OA
BRANCH  15  22
HETATM   22  O1  UNL     1      27.390  -0.369  54.960  1.00  0.00    -0.353 OA
HETATM   23  C10 UNL     1      28.756   0.028  54.817  1.00  0.00     0.210 C 
ENDBRANCH  15  22
ENDBRANCH   6   8
ENDBRANCH   5   6
ENDBRANCH   3   4
BRANCH   3  24
HETATM   24  C15 UNL     1      26.735   7.165  48.689  1.00  0.00    -0.010 C 
BRANCH  24  25
HETATM   25  C16 UNL     1      27.755   6.151  48.180  1.00  0.00     0.013 C 
HETATM   26  C17 UNL     1      28.962   5.870  48.254  1.00  0.00     0.019 C 
ENDBRANCH  24  25
ENDBRANCH   3  24
TORSDOF 6
ENDMDL
MODEL 6
REMARK VINA RESULT:      -6.9      2.561      3.413
REMARK  6 active torsions:
REMARK  status: ('A' for Active; 'I' for Inactive)
REMARK    1  A    between atoms: C3_3  and  C4_4 
REMARK    2  A    between atoms: C3_3  and  C15_22 
REMARK    3  A    between atoms: C5_5  and  N1_6 
REMARK    4  A    between atoms: N1_6  and  C6_7 
REMARK    5  A    between atoms: C9_12  and  O1_13 
REMARK    6  A    between atoms: C15_22  and  C16_23 
ROOT
HETATM    1  C1  UNL     1      25.885   8.532  46.324  1.00  0.00     0.017 C 
HETATM    2  C2  UNL     1      25.668   7.987  47.302  1.00  0.00    -0.082 C 
HETATM    3  C3  UNL     1      25.389   7.346  48.451  1.00  0.00    -0.007 C 
ENDROOT
BRANCH   3   4
HETATM    4  C4  UNL     1      24.773   6.699  49.530  1.00  0.00     0.039 C 
HETATM    5  C5  UNL     1      24.544   6.768  50.790  1.00  0.00     0.147 C 
BRANCH   5   6
HETATM    6  N1  UNL     1      23.906   6.072  51.782  1.00  0.00    -0.346 N 
HETATM    7  H4  UNL     1      23.637   6.798  52.507  1.00  0.00     0.163 HD
BRANCH   6   8
HETATM    8  C6  UNL     1      23.535   4.697  52.076  1.00  0.00     0.264 A 
HETATM    9  N2  UNL     1      22.255   4.634  51.950  1.00  0.00    -0.130 NA
HETATM   10  N3  UNL     1      21.577   3.393  52.170  1.00  0.00    -0.272 N 
HETATM   11  C7  UNL     1      22.429   2.276  52.524  1.00  0.00     0.089 A 
HETATM   12  H5  UNL     1      20.529   3.241  52.080  1.00  0.00     0.189 HD
HETATM   13  C8  UNL     1      21.905   0.997  52.756  1.00  0.00     0.073 A 
HETATM   14  C13 UNL     1      23.800   2.411  52.645  1.00  0.00     0.143 A 
HETATM   15  C9  UNL     1      22.657  -0.116  53.089  1.00  0.00     0.106 A 
HETATM   16  C11 UNL     1      23.996   0.115  53.188  1.00  0.00     0.141 A 
HETATM   17  C12 UNL     1      24.586   1.357  52.973  1.00  0.00     0.144 A 
HETATM   18  O4  UNL     1      25.011  -0.791  53.512  1.00  0.00    -0.320 OA
HETATM   19  O3  UNL     1      25.942   1.197  53.163  1.00  0.00    -0.320 OA
HETATM   20  C14 UNL     1      26.242  -0.197  53.092  1.00  0.00     0.352 C 
HETATM   21  O2  UNL     1      24.398   3.678  52.416  1.00  0.00    -0.272 OA
BRANCH  15  22
HETATM   22  O1  UNL     1      21.977  -1.338  53.281  1.00  0.00    -0.353 OA
HETATM   23  C10 UNL     1      21.766  -1.712  54.645  1.00  0.00     0.210 C 
ENDBRANCH  15  22
ENDBRANCH   6   8
ENDBRANCH   5   6
ENDBRANCH   3   4
BRANCH   3  24
HETATM   24  C15 UNL     1      26.609   7.143  49.190  1.00  0.00    -0.010 C 
BRANCH  24  25
HETATM   25  C16 UNL     1      27.308   5.924  48.597  1.00  0.00     0.013 C 
HETATM   26  C17 UNL     1      28.430   5.524  48.250  1.00  0.00     0.019 C 
ENDBRANCH  24  25
ENDBRANCH   3  24
TORSDOF 6
ENDMDL
MODEL 7
REMARK VINA RESULT:      -6.8      3.457      8.872
REMARK  6 active torsions:
REMARK  status: ('A' for Active; 'I' for Inactive)
REMARK    1  A    between atoms: C3_3  and  C4_4 
REMARK    2  A    between atoms: C3_3  and  C15_22 
REMARK    3  A    between atoms: C5_5  and  N1_6 
REMARK    4  A    between atoms: N1_6  and  C6_7 
REMARK    5  A    between atoms: C9_12  and  O1_13 
REMARK    6  A    between atoms: C15_22  and  C16_23 
ROOT
HETATM    1  C1  UNL     1      21.876  -1.624  54.620  1.00  0.00     0.017 C 
HETATM    2  C2  UNL     1      22.359  -0.834  53.956  1.00  0.00    -0.082 C 
HETATM    3  C3  UNL     1      22.949   0.090  53.177  1.00  0.00    -0.007 C 
ENDROOT
BRANCH   3   4
HETATM    4  C4  UNL     1      23.850   0.874  52.446  1.00  0.00     0.039 C 
HETATM    5  C5  UNL     1      25.094   1.114  52.245  1.00  0.00     0.147 C 
BRANCH   5   6
HETATM    6  N1  UNL     1      25.900   1.916  51.481  1.00  0.00    -0.346 N 
HETATM    7  H4  UNL     1      26.805   1.374  51.363  1.00  0.00     0.163 HD
BRANCH   6   8
HETATM    8  C6  UNL     1      25.840   3.221  50.843  1.00  0.00     0.264 A 
HETATM    9  N2  UNL     1      26.892   3.310  50.104  1.00  0.00    -0.130 NA
HETATM   10  N3  UNL     1      27.121   4.491  49.330  1.00  0.00    -0.272 N 
HETATM   11  C7  UNL     1      26.107   5.518  49.450  1.00  0.00     0.089 A 
HETATM   12  H5  UNL     1      27.952   4.651  48.686  1.00  0.00     0.189 HD
HETATM   13  C8  UNL     1      26.193   6.723  48.739  1.00  0.00     0.073 A 
HETATM   14  C13 UNL     1      24.999   5.360  50.264  1.00  0.00     0.143 A 
HETATM   15  C9  UNL     1      25.259   7.743  48.798  1.00  0.00     0.106 A 
HETATM   16  C11 UNL     1      24.207   7.499  49.627  1.00  0.00     0.141 A 
HETATM   17  C12 UNL     1      24.055   6.327  50.363  1.00  0.00     0.144 A 
HETATM   18  O4  UNL     1      23.113   8.324  49.907  1.00  0.00    -0.320 OA
HETATM   19  O3  UNL     1      22.880   6.448  51.075  1.00  0.00    -0.320 OA
HETATM   20  C14 UNL     1      22.106   7.491  50.485  1.00  0.00     0.352 C 
HETATM   21  O2  UNL     1      24.845   4.160  51.005  1.00  0.00    -0.272 OA
BRANCH  15  22
HETATM   22  O1  UNL     1      25.489   8.892  48.011  1.00  0.00    -0.353 OA
HETATM   23  C10 UNL     1      26.159   9.965  48.678  1.00  0.00     0.210 C 
ENDBRANCH  15  22
ENDBRANCH   6   8
ENDBRANCH   5   6
ENDBRANCH   3   4
BRANCH   3  24
HETATM   24  C15 UNL     1      21.954   1.018  52.703  1.00  0.00    -0.010 C 
BRANCH  24  25
HETATM   25  C16 UNL     1      21.348   0.432  51.432  1.00  0.00     0.013 C 
HETATM   26  C17 UNL     1      20.993   0.759  50.288  1.00  0.00     0.019 C 
ENDBRANCH  24  25
ENDBRANCH   3  24
TORSDOF 6
ENDMDL
MODEL 8
REMARK VINA RESULT:      -6.6      2.251      3.923
REMARK  6 active torsions:
REMARK  status: ('A' for Active; 'I' for Inactive)
REMARK    1  A    between atoms: C3_3  and  C4_4 
REMARK    2  A    between atoms: C3_3  and  C15_22 
REMARK    3  A    between atoms: C5_5  and  N1_6 
REMARK    4  A    between atoms: N1_6  and  C6_7 
REMARK    5  A    between atoms: C9_12  and  O1_13 
REMARK    6  A    between atoms: C15_22  and  C16_23 
ROOT
HETATM    1  C1  UNL     1      22.206   9.494  48.811  1.00  0.00     0.017 C 
HETATM    2  C2  UNL     1      22.625   8.435  48.778  1.00  0.00    -0.082 C 
HETATM    3  C3  UNL     1      23.113   7.181  48.761  1.00  0.00    -0.007 C 
ENDROOT
BRANCH   3   4
HETATM    4  C4  UNL     1      23.475   5.862  49.057  1.00  0.00     0.039 C 
HETATM    5  C5  UNL     1      23.235   4.866  49.829  1.00  0.00     0.147 C 
BRANCH   5   6
HETATM    6  N1  UNL     1      23.646   3.577  50.041  1.00  0.00    -0.346 N 
HETATM    7  H4  UNL     1      23.098   2.989  49.347  1.00  0.00     0.163 HD
BRANCH   6   8
HETATM    8  C6  UNL     1      24.567   2.861  50.909  1.00  0.00     0.264 A 
HETATM    9  N2  UNL     1      25.731   3.373  50.702  1.00  0.00    -0.130 NA
HETATM   10  N3  UNL     1      26.864   2.881  51.422  1.00  0.00    -0.272 N 
HETATM   11  C7  UNL     1      26.587   1.812  52.359  1.00  0.00     0.089 A 
HETATM   12  H5  UNL     1      27.859   3.246  51.326  1.00  0.00     0.189 HD
HETATM   13  C8  UNL     1      27.600   1.241  53.143  1.00  0.00     0.073 A 
HETATM   14  C13 UNL     1      25.312   1.304  52.534  1.00  0.00     0.143 A 
HETATM   15  C9  UNL     1      27.407   0.225  54.063  1.00  0.00     0.106 A 
HETATM   16  C11 UNL     1      26.121  -0.212  54.163  1.00  0.00     0.141 A 
HETATM   17  C12 UNL     1      25.066   0.306  53.417  1.00  0.00     0.144 A 
HETATM   18  O4  UNL     1      25.608  -1.220  54.986  1.00  0.00    -0.320 OA
HETATM   19  O3  UNL     1      23.932  -0.382  53.791  1.00  0.00    -0.320 OA
HETATM   20  C14 UNL     1      24.192  -1.030  55.036  1.00  0.00     0.352 C 
HETATM   21  O2  UNL     1      24.239   1.842  51.777  1.00  0.00    -0.272 OA
BRANCH  15  22
HETATM   22  O1  UNL     1      28.532  -0.235  54.782  1.00  0.00    -0.353 OA
HETATM   23  C10 UNL     1      29.665  -0.587  53.984  1.00  0.00     0.210 C 
ENDBRANCH  15  22
ENDBRANCH   6   8
ENDBRANCH   5   6
ENDBRANCH   3   4
BRANCH   3  24
HETATM   24  C15 UNL     1      23.818   6.963  47.524  1.00  0.00    -0.010 C 
BRANCH  24  25
HETATM   25  C16 UNL     1      25.275   7.354  47.751  1.00  0.00     0.013 C 
HETATM   26  C17 UNL     1      26.195   8.005  47.231  1.00  0.00     0.019 C 
ENDBRANCH  24  25
ENDBRANCH   3  24
TORSDOF 6
ENDMDL
MODEL 9
REMARK VINA RESULT:      -6.6      3.298      9.090
REMARK  6 active torsions:
REMARK  status: ('A' for Active; 'I' for Inactive)
REMARK    1  A    between atoms: C3_3  and  C4_4 
REMARK    2  A    between atoms: C3_3  and  C15_22 
REMARK    3  A    between atoms: C5_5  and  N1_6 
REMARK    4  A    between atoms: N1_6  and  C6_7 
REMARK    5  A    between atoms: C9_12  and  O1_13 
REMARK    6  A    between atoms: C15_22  and  C16_23 
ROOT
HETATM    1  C1  UNL     1      29.446  -1.318  53.791  1.00  0.00     0.017 C 
HETATM    2  C2  UNL     1      28.602  -0.765  53.261  1.00  0.00    -0.082 C 
HETATM    3  C3  UNL     1      27.619  -0.095  52.633  1.00  0.00    -0.007 C 
ENDROOT
BRANCH   3   4
HETATM    4  C4  UNL     1      26.845   0.838  51.932  1.00  0.00     0.039 C 
HETATM    5  C5  UNL     1      26.738   2.080  51.626  1.00  0.00     0.147 C 
BRANCH   5   6
HETATM    6  N1  UNL     1      25.930   2.919  50.906  1.00  0.00    -0.346 N 
HETATM    7  H4  UNL     1      24.963   2.484  50.950  1.00  0.00     0.163 HD
BRANCH   6   8
HETATM    8  C6  UNL     1      26.048   4.155  50.150  1.00  0.00     0.264 A 
HETATM    9  N2  UNL     1      27.147   4.067  49.483  1.00  0.00    -0.130 NA
HETATM   10  N3  UNL     1      27.547   5.137  48.623  1.00  0.00    -0.272 N 
HETATM   11  C7  UNL     1      26.643   6.268  48.579  1.00  0.00     0.089 A 
HETATM   12  H5  UNL     1      28.428   5.151  48.028  1.00  0.00     0.189 HD
HETATM   13  C8  UNL     1      26.900   7.384  47.770  1.00  0.00     0.073 A 
HETATM   14  C13 UNL     1      25.477   6.302  49.323  1.00  0.00     0.143 A 
HETATM   15  C9  UNL     1      26.078   8.493  47.671  1.00  0.00     0.106 A 
HETATM   16  C11 UNL     1      24.957   8.438  48.443  1.00  0.00     0.141 A 
HETATM   17  C12 UNL     1      24.637   7.364  49.269  1.00  0.00     0.144 A 
HETATM   18  O4  UNL     1      23.943   9.392  48.570  1.00  0.00    -0.320 OA
HETATM   19  O3  UNL     1      23.441   7.671  49.882  1.00  0.00    -0.320 OA
HETATM   20  C14 UNL     1      22.819   8.724  49.148  1.00  0.00     0.352 C 
HETATM   21  O2  UNL     1      25.151   5.201  50.157  1.00  0.00    -0.272 OA
BRANCH  15  22
HETATM   22  O1  UNL     1      26.476   9.532  46.802  1.00  0.00    -0.353 OA
HETATM   23  C10 UNL     1      25.645   9.721  45.654  1.00  0.00     0.210 C 
ENDBRANCH  15  22
ENDBRANCH   6   8
ENDBRANCH   5   6
ENDBRANCH   3   4
BRANCH   3  24
HETATM   24  C15 UNL     1      26.402  -0.864  52.697  1.00  0.00    -0.010 C 
BRANCH  24  25
HETATM   25  C16 UNL     1      25.748  -0.577  54.044  1.00  0.00     0.013 C 
HETATM   26  C17 UNL     1      24.773  -0.908  54.738  1.00  0.00     0.019 C 
ENDBRANCH  24  25
ENDBRANCH   3  24
TORSDOF 6
ENDMDL
