MODEL 1
REMARK VINA RESULT:      -8.2      0.000      0.000
REMARK  6 active torsions:
REMARK  status: ('A' for Active; 'I' for Inactive)
REMARK    1  A    between atoms: C2_2  and  O2_15 
REMARK    2  A    between atoms: C3_3  and  C4_4 
REMARK    3  A    between atoms: C4_4  and  C5_5 
REMARK    4  A    between atoms: C10_11  and  C11_12 
REMARK       I    between atoms: C11_12  and  N2_13 
REMARK    5  A    between atoms: O2_15  and  C12_16 
REMARK    6  A    between atoms: C12_16  and  C14_18 
ROOT
HETATM    1  C1  UNL     1      21.814  -0.274  54.371  1.00  0.00     0.076 C 
HETATM    2  C2  UNL     1      22.607   0.190  53.217  1.00  0.00     0.039 C 
HETATM    3  C3  UNL     1      23.917   0.167  53.080  1.00  0.00     0.007 C 
ENDROOT
BRANCH   2   4
HETATM    4  O2  UNL     1      21.724   0.668  52.275  1.00  0.00    -0.346 OA
BRANCH   4   5
HETATM    5  C12 UNL     1      21.413   2.010  52.090  1.00  0.00     0.161 C 
HETATM    6  C13 UNL     1      19.939   2.233  51.809  1.00  0.00     0.045 C 
BRANCH   5   7
HETATM    7  C14 UNL     1      22.196   2.567  50.935  1.00  0.00     0.017 A 
HETATM    8  C15 UNL     1      23.020   3.682  51.128  1.00  0.00     0.044 A 
HETATM    9 CL1  UNL     1      23.093   4.378  52.750  1.00  0.00    -0.084 Cl
HETATM   10  C16 UNL     1      23.778   4.270  50.131  1.00  0.00     0.028 A 
HETATM   11  C17 UNL     1      23.680   3.682  48.889  1.00  0.00     0.046 A 
HETATM   12  C18 UNL     1      22.895   2.588  48.620  1.00  0.00     0.138 A 
HETATM   13  F1  UNL     1      22.854   2.075  47.386  1.00  0.00    -0.204 F 
HETATM   14  C19 UNL     1      22.166   2.053  49.660  1.00  0.00     0.083 A 
HETATM   15 CL2  UNL     1      21.161   0.666  49.340  1.00  0.00    -0.080 Cl
ENDBRANCH   5   7
ENDBRANCH   4   5
ENDBRANCH   2   4
BRANCH   3  16
HETATM   16  C4  UNL     1      24.891  -0.340  54.074  1.00  0.00     0.063 C 
BRANCH  16  17
HETATM   17  C5  UNL     1      26.084   0.599  54.186  1.00  0.00     0.065 A 
HETATM   18  C6  UNL     1      25.714   2.044  53.823  1.00  0.00     0.042 C 
HETATM   19  N1  UNL     1      26.707   0.625  55.456  1.00  0.00    -0.293 NA
HETATM   20  C7  UNL     1      27.823   0.220  55.041  1.00  0.00     0.097 A 
HETATM   21  C8  UNL     1      27.359   0.133  53.692  1.00  0.00     0.034 A 
HETATM   22  C9  UNL     1      28.060   0.499  52.481  1.00  0.00     0.034 A 
HETATM   23  C10 UNL     1      27.618  -0.957  52.754  1.00  0.00     0.095 A 
BRANCH  23  24
HETATM   24  C11 UNL     1      28.696  -1.904  53.142  1.00  0.00     0.220 C 
HETATM   25  N2  UNL     1      28.535  -3.336  53.157  1.00  0.00    -0.370 N 
HETATM   26  H14 UNL     1      28.239  -4.009  53.919  1.00  0.00     0.159 HD
HETATM   27  H15 UNL     1      28.658  -4.104  52.448  1.00  0.00     0.159 HD
HETATM   28  O1  UNL     1      29.897  -2.046  53.531  1.00  0.00    -0.273 OA
ENDBRANCH  23  24
ENDBRANCH  16  17
ENDBRANCH   3  16
TORSDOF 6
ENDMDL
MODEL 2
REMARK VINA RESULT:      -7.9      2.198      3.603
REMARK  6 active torsions:
REMARK  status: ('A' for Active; 'I' for Inactive)
REMARK    1  A    between atoms: C2_2  and  O2_15 
REMARK    2  A    between atoms: C3_3  and  C4_4 
REMARK    3  A    between atoms: C4_4  and  C5_5 
REMARK    4  A    between atoms: C10_11  and  C11_12 
REMARK       I    between atoms: C11_12  and  N2_13 
REMARK    5  A    between atoms: O2_15  and  C12_16 
REMARK    6  A    between atoms: C12_16  and  C14_18 
ROOT
HETATM    1  C1  UNL     1      26.470   2.904  49.548  1.00  0.00     0.076 C 
HETATM    2  C2  UNL     1      25.762   2.866  50.842  1.00  0.00     0.039 C 
HETATM    3  C3  UNL     1      26.023   2.098  51.880  1.00  0.00     0.007 C 
ENDROOT
BRANCH   2   4
HETATM    4  O2  UNL     1      24.748   3.797  50.785  1.00  0.00    -0.346 OA
BRANCH   4   5
HETATM    5  C12 UNL     1      23.712   3.783  49.858  1.00  0.00     0.161 C 
HETATM    6  C13 UNL     1      23.002   5.120  49.760  1.00  0.00     0.045 C 
BRANCH   5   7
HETATM    7  C14 UNL     1      22.696   2.743  50.237  1.00  0.00     0.017 A 
HETATM    8  C15 UNL     1      22.198   1.872  49.262  1.00  0.00     0.044 A 
HETATM    9 CL1  UNL     1      22.809   2.049  47.613  1.00  0.00    -0.084 Cl
HETATM   10  C16 UNL     1      21.261   0.884  49.507  1.00  0.00     0.028 A 
HETATM   11  C17 UNL     1      20.823   0.795  50.811  1.00  0.00     0.046 A 
HETATM   12  C18 UNL     1      21.262   1.612  51.823  1.00  0.00     0.138 A 
HETATM   13  F1  UNL     1      20.788   1.462  53.063  1.00  0.00    -0.204 F 
HETATM   14  C19 UNL     1      22.197   2.575  51.507  1.00  0.00     0.083 A 
HETATM   15 CL2  UNL     1      22.766   3.624  52.777  1.00  0.00    -0.080 Cl
ENDBRANCH   5   7
ENDBRANCH   4   5
ENDBRANCH   2   4
BRANCH   3  16
HETATM   16  C4  UNL     1      27.104   1.089  51.971  1.00  0.00     0.063 C 
BRANCH  16  17
HETATM   17  C5  UNL     1      27.843   1.210  53.296  1.00  0.00     0.065 A 
HETATM   18  C6  UNL     1      28.398   2.626  53.517  1.00  0.00     0.042 C 
HETATM   19  N1  UNL     1      27.081   0.868  54.438  1.00  0.00    -0.293 NA
HETATM   20  C7  UNL     1      27.829  -0.080  54.791  1.00  0.00     0.097 A 
HETATM   21  C8  UNL     1      28.713   0.125  53.686  1.00  0.00     0.034 A 
HETATM   22  C9  UNL     1      30.158   0.063  53.674  1.00  0.00     0.034 A 
HETATM   23  C10 UNL     1      29.296  -0.911  52.838  1.00  0.00     0.095 A 
BRANCH  23  24
HETATM   24  C11 UNL     1      29.197  -2.302  53.352  1.00  0.00     0.220 C 
HETATM   25  N2  UNL     1      28.120  -3.201  53.026  1.00  0.00    -0.370 N 
HETATM   26  H14 UNL     1      27.195  -3.402  53.499  1.00  0.00     0.159 HD
HETATM   27  H15 UNL     1      27.940  -3.895  52.255  1.00  0.00     0.159 HD
HETATM   28  O1  UNL     1      29.722  -3.209  54.071  1.00  0.00    -0.273 OA
ENDBRANCH  23  24
ENDBRANCH  16  17
ENDBRANCH   3  16
TORSDOF 6
ENDMDL
MODEL 3
REMARK VINA RESULT:      -7.9      4.043      7.168
REMARK  6 active torsions:
REMARK  status: ('A' for Active; 'I' for Inactive)
REMARK    1  A    between atoms: C2_2  and  O2_15 
REMARK    2  A    between atoms: C3_3  and  C4_4 
REMARK    3  A    between atoms: C4_4  and  C5_5 
REMARK    4  A    between atoms: C10_11  and  C11_12 
REMARK       I    between atoms: C11_12  and  N2_13 
REMARK    5  A    between atoms: O2_15  and  C12_16 
REMARK    6  A    between atoms: C12_16  and  C14_18 
ROOT
HETATM    1  C1  UNL     1      23.164   0.001  53.120  1.00  0.00     0.076 C 
HETATM    2  C2  UNL     1      24.108   1.119  52.936  1.00  0.00     0.039 C 
HETATM    3  C3  UNL     1      23.829   2.359  52.590  1.00  0.00     0.007 C 
ENDROOT
BRANCH   2   4
HETATM    4  O2  UNL     1      25.373   0.639  53.195  1.00  0.00    -0.346 OA
BRANCH   4   5
HETATM    5  C12 UNL     1      26.548   1.207  52.717  1.00  0.00     0.161 C 
HETATM    6  C13 UNL     1      26.529   1.401  51.212  1.00  0.00     0.045 C 
BRANCH   5   7
HETATM    7  C14 UNL     1      27.720   0.331  53.058  1.00  0.00     0.017 A 
HETATM    8  C15 UNL     1      28.901   0.907  53.539  1.00  0.00     0.044 A 
HETATM    9 CL1  UNL     1      28.941   2.665  53.722  1.00  0.00    -0.084 Cl
HETATM   10  C16 UNL     1      30.034   0.190  53.879  1.00  0.00     0.028 A 
HETATM   11  C17 UNL     1      29.941  -1.175  53.715  1.00  0.00     0.046 A 
HETATM   12  C18 UNL     1      28.819  -1.815  53.249  1.00  0.00     0.138 A 
HETATM   13  F1  UNL     1      28.808  -3.145  53.118  1.00  0.00    -0.204 F 
HETATM   14  C19 UNL     1      27.726  -1.038  52.929  1.00  0.00     0.083 A 
HETATM   15 CL2  UNL     1      26.293  -1.831  52.334  1.00  0.00    -0.080 Cl
ENDBRANCH   5   7
ENDBRANCH   4   5
ENDBRANCH   2   4
BRANCH   3  16
HETATM   16  C4  UNL     1      22.482   2.905  52.304  1.00  0.00     0.063 C 
BRANCH  16  17
HETATM   17  C5  UNL     1      22.326   3.208  50.821  1.00  0.00     0.065 A 
HETATM   18  C6  UNL     1      22.128   1.931  49.991  1.00  0.00     0.042 C 
HETATM   19  N1  UNL     1      21.270   4.093  50.500  1.00  0.00    -0.293 NA
HETATM   20  C7  UNL     1      22.012   4.973  49.992  1.00  0.00     0.097 A 
HETATM   21  C8  UNL     1      23.193   4.208  50.241  1.00  0.00     0.034 A 
HETATM   22  C9  UNL     1      24.342   4.032  49.380  1.00  0.00     0.034 A 
HETATM   23  C10 UNL     1      24.460   4.713  50.763  1.00  0.00     0.095 A 
BRANCH  23  24
HETATM   24  C11 UNL     1      24.624   6.191  50.751  1.00  0.00     0.220 C 
HETATM   25  N2  UNL     1      24.335   7.036  51.881  1.00  0.00    -0.370 N 
HETATM   26  H14 UNL     1      23.458   7.551  52.177  1.00  0.00     0.159 HD
HETATM   27  H15 UNL     1      24.884   7.379  52.712  1.00  0.00     0.159 HD
HETATM   28  O1  UNL     1      24.959   7.217  50.083  1.00  0.00    -0.273 OA
ENDBRANCH  23  24
ENDBRANCH  16  17
ENDBRANCH   3  16
TORSDOF 6
ENDMDL
MODEL 4
REMARK VINA RESULT:      -7.8      1.735      2.355
REMARK  6 active torsions:
REMARK  status: ('A' for Active; 'I' for Inactive)
REMARK    1  A    between atoms: C2_2  and  O2_15 
REMARK    2  A    between atoms: C3_3  and  C4_4 
REMARK    3  A    between atoms: C4_4  and  C5_5 
REMARK    4  A    between atoms: C10_11  and  C11_12 
REMARK       I    between atoms: C11_12  and  N2_13 
REMARK    5  A    between atoms: O2_15  and  C12_16 
REMARK    6  A    between atoms: C12_16  and  C14_18 
ROOT
HETATM    1  C1  UNL     1      22.377  -1.579  53.715  1.00  0.00     0.076 C 
HETATM    2  C2  UNL     1      22.951  -0.313  53.222  1.00  0.00     0.039 C 
HETATM    3  C3  UNL     1      24.207   0.080  53.284  1.00  0.00     0.007 C 
ENDROOT
BRANCH   2   4
HETATM    4  O2  UNL     1      21.924   0.417  52.666  1.00  0.00    -0.346 OA
BRANCH   4   5
HETATM    5  C12 UNL     1      21.877   1.806  52.616  1.00  0.00     0.161 C 
HETATM    6  C13 UNL     1      20.458   2.341  52.621  1.00  0.00     0.045 C 
BRANCH   5   7
HETATM    7  C14 UNL     1      22.555   2.299  51.369  1.00  0.00     0.017 A 
HETATM    8  C15 UNL     1      23.552   3.276  51.461  1.00  0.00     0.044 A 
HETATM    9 CL1  UNL     1      23.963   3.880  53.071  1.00  0.00    -0.084 Cl
HETATM   10  C16 UNL     1      24.234   3.797  50.376  1.00  0.00     0.028 A 
HETATM   11  C17 UNL     1      23.870   3.286  49.149  1.00  0.00     0.046 A 
HETATM   12  C18 UNL     1      22.902   2.328  48.975  1.00  0.00     0.138 A 
HETATM   13  F1  UNL     1      22.606   1.883  47.751  1.00  0.00    -0.204 F 
HETATM   14  C19 UNL     1      22.263   1.854  50.101  1.00  0.00     0.083 A 
HETATM   15 CL2  UNL     1      21.030   0.638  49.903  1.00  0.00    -0.080 Cl
ENDBRANCH   5   7
ENDBRANCH   4   5
ENDBRANCH   2   4
BRANCH   3  16
HETATM   16  C4  UNL     1      25.332  -0.681  53.875  1.00  0.00     0.063 C 
BRANCH  16  17
HETATM   17  C5  UNL     1      26.455  -0.855  52.862  1.00  0.00     0.065 A 
HETATM   18  C6  UNL     1      26.568  -2.306  52.372  1.00  0.00     0.042 C 
HETATM   19  N1  UNL     1      26.362  -0.025  51.719  1.00  0.00    -0.293 NA
HETATM   20  C7  UNL     1      27.448   0.574  51.928  1.00  0.00     0.097 A 
HETATM   21  C8  UNL     1      27.705  -0.177  53.117  1.00  0.00     0.034 A 
HETATM   22  C9  UNL     1      28.964  -0.723  53.574  1.00  0.00     0.034 A 
HETATM   23  C10 UNL     1      28.202   0.350  54.385  1.00  0.00     0.095 A 
BRANCH  23  24
HETATM   24  C11 UNL     1      28.766   1.725  54.341  1.00  0.00     0.220 C 
HETATM   25  N2  UNL     1      29.913   2.143  55.104  1.00  0.00    -0.370 N 
HETATM   26  H14 UNL     1      30.007   2.582  56.063  1.00  0.00     0.159 HD
HETATM   27  H15 UNL     1      30.954   2.138  54.944  1.00  0.00     0.159 HD
HETATM   28  O1  UNL     1      28.678   2.894  53.853  1.00  0.00    -0.273 OA
ENDBRANCH  23  24
ENDBRANCH  16  17
ENDBRANCH   3  16
TORSDOF 6
ENDMDL
MODEL 5
REMARK VINA RESULT:      -7.6      4.225      7.527
REMARK  6 active torsions:
REMARK  status: ('A' for Active; 'I' for Inactive)
REMARK    1  A    between atoms: C2_2  and  O2_15 
REMARK    2  A    between atoms: C3_3  and  C4_4 
REMARK    3  A    between atoms: C4_4  and  C5_5 
REMARK    4  A    between atoms: C10_11  and  C11_12 
REMARK       I    between atoms: C11_12  and  N2_13 
REMARK    5  A    between atoms: O2_15  and  C12_16 
REMARK    6  A    between atoms: C12_16  and  C14_18 
ROOT
HETATM    1  C1  UNL     1      26.771   2.910  49.631  1.00  0.00     0.076 C 
HETATM    2  C2  UNL     1      25.900   2.578  50.775  1.00  0.00     0.039 C 
HETATM    3  C3  UNL     1      24.589   2.683  50.845  1.00  0.00     0.007 C 
ENDROOT
BRANCH   2   4
HETATM    4  O2  UNL     1      26.710   2.126  51.793  1.00  0.00    -0.346 OA
BRANCH   4   5
HETATM    5  C12 UNL     1      26.386   1.089  52.661  1.00  0.00     0.161 C 
HETATM    6  C13 UNL     1      25.775   1.586  53.958  1.00  0.00     0.045 C 
BRANCH   5   7
HETATM    7  C14 UNL     1      27.617   0.297  53.000  1.00  0.00     0.017 A 
HETATM    8  C15 UNL     1      28.767   0.958  53.447  1.00  0.00     0.044 A 
HETATM    9 CL1  UNL     1      28.698   2.718  53.591  1.00  0.00    -0.084 Cl
HETATM   10  C16 UNL     1      29.949   0.322  53.781  1.00  0.00     0.028 A 
HETATM   11  C17 UNL     1      29.940  -1.050  53.649  1.00  0.00     0.046 A 
HETATM   12  C18 UNL     1      28.853  -1.770  53.217  1.00  0.00     0.138 A 
HETATM   13  F1  UNL     1      28.925  -3.101  53.115  1.00  0.00    -0.204 F 
HETATM   14  C19 UNL     1      27.708  -1.071  52.900  1.00  0.00     0.083 A 
HETATM   15 CL2  UNL     1      26.318  -1.966  52.348  1.00  0.00    -0.080 Cl
ENDBRANCH   5   7
ENDBRANCH   4   5
ENDBRANCH   2   4
BRANCH   3  16
HETATM   16  C4  UNL     1      23.692   3.165  49.769  1.00  0.00     0.063 C 
BRANCH  16  17
HETATM   17  C5  UNL     1      22.971   4.435  50.197  1.00  0.00     0.065 A 
HETATM   18  C6  UNL     1      21.472   4.384  49.868  1.00  0.00     0.042 C 
HETATM   19  N1  UNL     1      23.095   4.758  51.570  1.00  0.00    -0.293 NA
HETATM   20  C7  UNL     1      23.666   5.861  51.373  1.00  0.00     0.097 A 
HETATM   21  C8  UNL     1      23.626   5.699  49.953  1.00  0.00     0.034 A 
HETATM   22  C9  UNL     1      23.339   6.698  48.948  1.00  0.00     0.034 A 
HETATM   23  C10 UNL     1      24.709   5.986  49.017  1.00  0.00     0.095 A 
BRANCH  23  24
HETATM   24  C11 UNL     1      25.837   6.791  49.555  1.00  0.00     0.220 C 
HETATM   25  N2  UNL     1      27.224   6.470  49.336  1.00  0.00    -0.370 N 
HETATM   26  H14 UNL     1      27.916   5.892  49.892  1.00  0.00     0.159 HD
HETATM   27  H15 UNL     1      27.932   6.703  48.592  1.00  0.00     0.159 HD
HETATM   28  O1  UNL     1      26.190   7.803  50.235  1.00  0.00    -0.273 OA
ENDBRANCH  23  24
ENDBRANCH  16  17
ENDBRANCH   3  16
TORSDOF 6
ENDMDL
MODEL 6
REMARK VINA RESULT:      -7.5      2.401      3.599
REMARK  6 active torsions:
REMARK  status: ('A' for Active; 'I' for Inactive)
REMARK    1  A    between atoms: C2_2  and  O2_15 
REMARK    2  A    between atoms: C3_3  and  C4_4 
REMARK    3  A    between atoms: C4_4  and  C5_5 
REMARK    4  A    between atoms: C10_11  and  C11_12 
REMARK       I    between atoms: C11_12  and  N2_13 
REMARK    5  A    between atoms: O2_15  and  C12_16 
REMARK    6  A    between atoms: C12_16  and  C14_18 
ROOT
HETATM    1  C1  UNL     1      24.406   4.943  51.109  1.00  0.00     0.076 C 
HETATM    2  C2  UNL     1      23.386   4.332  51.981  1.00  0.00     0.039 C 
HETATM    3  C3  UNL     1      23.564   3.411  52.905  1.00  0.00     0.007 C 
ENDROOT
BRANCH   2   4
HETATM    4  O2  UNL     1      22.173   4.900  51.659  1.00  0.00    -0.346 OA
BRANCH   4   5
HETATM    5  C12 UNL     1      21.584   4.850  50.401  1.00  0.00     0.161 C 
HETATM    6  C13 UNL     1      20.212   5.497  50.374  1.00  0.00     0.045 C 
BRANCH   5   7
HETATM    7  C14 UNL     1      21.434   3.422  49.958  1.00  0.00     0.017 A 
HETATM    8  C15 UNL     1      22.025   3.000  48.763  1.00  0.00     0.044 A 
HETATM    9 CL1  UNL     1      22.932   4.195  47.828  1.00  0.00    -0.084 Cl
HETATM   10  C16 UNL     1      21.943   1.711  48.267  1.00  0.00     0.028 A 
HETATM   11  C17 UNL     1      21.224   0.825  49.040  1.00  0.00     0.046 A 
HETATM   12  C18 UNL     1      20.615   1.162  50.224  1.00  0.00     0.138 A 
HETATM   13  F1  UNL     1      19.934   0.244  50.916  1.00  0.00    -0.204 F 
HETATM   14  C19 UNL     1      20.737   2.465  50.657  1.00  0.00     0.083 A 
HETATM   15 CL2  UNL     1      19.970   2.914  52.156  1.00  0.00    -0.080 Cl
ENDBRANCH   5   7
ENDBRANCH   4   5
ENDBRANCH   2   4
BRANCH   3  16
HETATM   16  C4  UNL     1      24.854   2.781  53.274  1.00  0.00     0.063 C 
BRANCH  16  17
HETATM   17  C5  UNL     1      24.946   1.371  52.706  1.00  0.00     0.065 A 
HETATM   18  C6  UNL     1      23.562   0.798  52.366  1.00  0.00     0.042 C 
HETATM   19  N1  UNL     1      25.756   1.244  51.553  1.00  0.00    -0.293 NA
HETATM   20  C7  UNL     1      26.572   0.443  52.078  1.00  0.00     0.097 A 
HETATM   21  C8  UNL     1      25.873   0.453  53.325  1.00  0.00     0.034 A 
HETATM   22  C9  UNL     1      25.605  -0.662  54.207  1.00  0.00     0.034 A 
HETATM   23  C10 UNL     1      26.472   0.537  54.654  1.00  0.00     0.095 A 
BRANCH  23  24
HETATM   24  C11 UNL     1      27.937   0.293  54.722  1.00  0.00     0.220 C 
HETATM   25  N2  UNL     1      28.917   1.339  54.870  1.00  0.00    -0.370 N 
HETATM   26  H14 UNL     1      29.463   1.906  54.162  1.00  0.00     0.159 HD
HETATM   27  H15 UNL     1      29.360   1.831  55.689  1.00  0.00     0.159 HD
HETATM   28  O1  UNL     1      28.873  -0.565  54.706  1.00  0.00    -0.273 OA
ENDBRANCH  23  24
ENDBRANCH  16  17
ENDBRANCH   3  16
TORSDOF 6
ENDMDL
MODEL 7
REMARK VINA RESULT:      -7.4      3.345      4.645
REMARK  6 active torsions:
REMARK  status: ('A' for Active; 'I' for Inactive)
REMARK    1  A    between atoms: C2_2  and  O2_15 
REMARK    2  A    between atoms: C3_3  and  C4_4 
REMARK    3  A    between atoms: C4_4  and  C5_5 
REMARK    4  A    between atoms: C10_11  and  C11_12 
REMARK       I    between atoms: C11_12  and  N2_13 
REMARK    5  A    between atoms: O2_15  and  C12_16 
REMARK    6  A    between atoms: C12_16  and  C14_18 
ROOT
HETATM    1  C1  UNL     1      22.416   4.717  52.035  1.00  0.00     0.076 C 
HETATM    2  C2  UNL     1      23.848   4.430  51.828  1.00  0.00     0.039 C 
HETATM    3  C3  UNL     1      24.560   3.461  52.366  1.00  0.00     0.007 C 
ENDROOT
BRANCH   2   4
HETATM    4  O2  UNL     1      24.337   5.374  50.952  1.00  0.00    -0.346 OA
BRANCH   4   5
HETATM    5  C12 UNL     1      24.228   5.300  49.568  1.00  0.00     0.161 C 
HETATM    6  C13 UNL     1      24.016   3.880  49.076  1.00  0.00     0.045 C 
BRANCH   5   7
HETATM    7  C14 UNL     1      25.475   5.834  48.923  1.00  0.00     0.017 A 
HETATM    8  C15 UNL     1      25.442   7.067  48.263  1.00  0.00     0.044 A 
HETATM    9 CL1  UNL     1      23.905   7.939  48.229  1.00  0.00    -0.084 Cl
HETATM   10  C16 UNL     1      26.532   7.644  47.637  1.00  0.00     0.028 A 
HETATM   11  C17 UNL     1      27.702   6.918  47.698  1.00  0.00     0.046 A 
HETATM   12  C18 UNL     1      27.815   5.702  48.326  1.00  0.00     0.138 A 
HETATM   13  F1  UNL     1      28.986   5.058  48.341  1.00  0.00    -0.204 F 
HETATM   14  C19 UNL     1      26.688   5.186  48.929  1.00  0.00     0.083 A 
HETATM   15 CL2  UNL     1      26.809   3.643  49.729  1.00  0.00    -0.080 Cl
ENDBRANCH   5   7
ENDBRANCH   4   5
ENDBRANCH   2   4
BRANCH   3  16
HETATM   16  C4  UNL     1      24.065   2.433  53.311  1.00  0.00     0.063 C 
BRANCH  16  17
HETATM   17  C5  UNL     1      24.330   1.034  52.772  1.00  0.00     0.065 A 
HETATM   18  C6  UNL     1      23.027   0.277  52.473  1.00  0.00     0.042 C 
HETATM   19  N1  UNL     1      25.128   0.985  51.605  1.00  0.00    -0.293 NA
HETATM   20  C7  UNL     1      26.051   0.311  52.130  1.00  0.00     0.097 A 
HETATM   21  C8  UNL     1      25.380   0.259  53.391  1.00  0.00     0.034 A 
HETATM   22  C9  UNL     1      25.275  -0.859  54.302  1.00  0.00     0.034 A 
HETATM   23  C10 UNL     1      25.987   0.453  54.705  1.00  0.00     0.095 A 
BRANCH  23  24
HETATM   24  C11 UNL     1      27.472   0.403  54.748  1.00  0.00     0.220 C 
HETATM   25  N2  UNL     1      28.316   1.564  54.616  1.00  0.00    -0.370 N 
HETATM   26  H14 UNL     1      28.768   2.021  53.776  1.00  0.00     0.159 HD
HETATM   27  H15 UNL     1      28.715   2.272  55.286  1.00  0.00     0.159 HD
HETATM   28  O1  UNL     1      28.508  -0.322  54.867  1.00  0.00    -0.273 OA
ENDBRANCH  23  24
ENDBRANCH  16  17
ENDBRANCH   3  16
TORSDOF 6
ENDMDL
MODEL 8
REMARK VINA RESULT:      -7.3      4.103      7.968
REMARK  6 active torsions:
REMARK  status: ('A' for Active; 'I' for Inactive)
REMARK    1  A    between atoms: C2_2  and  O2_15 
REMARK    2  A    between atoms: C3_3  and  C4_4 
REMARK    3  A    between atoms: C4_4  and  C5_5 
REMARK    4  A    between atoms: C10_11  and  C11_12 
REMARK       I    between atoms: C11_12  and  N2_13 
REMARK    5  A    between atoms: O2_15  and  C12_16 
REMARK    6  A    between atoms: C12_16  and  C14_18 
ROOT
HETATM    1  C1  UNL     1      23.880   2.279  51.199  1.00  0.00     0.076 C 
HETATM    2  C2  UNL     1      23.801   1.071  52.041  1.00  0.00     0.039 C 
HETATM    3  C3  UNL     1      22.798   0.224  52.140  1.00  0.00     0.007 C 
ENDROOT
BRANCH   2   4
HETATM    4  O2  UNL     1      24.989   0.970  52.731  1.00  0.00    -0.346 OA
BRANCH   4   5
HETATM    5  C12 UNL     1      25.556  -0.225  53.159  1.00  0.00     0.161 C 
HETATM    6  C13 UNL     1      24.957  -0.718  54.463  1.00  0.00     0.045 C 
BRANCH   5   7
HETATM    7  C14 UNL     1      27.035  -0.050  53.363  1.00  0.00     0.017 A 
HETATM    8  C15 UNL     1      27.904  -1.110  53.085  1.00  0.00     0.044 A 
HETATM    9 CL1  UNL     1      27.196  -2.619  52.498  1.00  0.00    -0.084 Cl
HETATM   10  C16 UNL     1      29.277  -1.052  53.242  1.00  0.00     0.028 A 
HETATM   11  C17 UNL     1      29.769   0.151  53.702  1.00  0.00     0.046 A 
HETATM   12  C18 UNL     1      28.982   1.237  53.997  1.00  0.00     0.138 A 
HETATM   13  F1  UNL     1      29.536   2.369  54.440  1.00  0.00    -0.204 F 
HETATM   14  C19 UNL     1      27.621   1.108  53.818  1.00  0.00     0.083 A 
HETATM   15 CL2  UNL     1      26.604   2.474  54.188  1.00  0.00    -0.080 Cl
ENDBRANCH   5   7
ENDBRANCH   4   5
ENDBRANCH   2   4
BRANCH   3  16
HETATM   16  C4  UNL     1      21.509   0.305  51.413  1.00  0.00     0.063 C 
BRANCH  16  17
HETATM   17  C5  UNL     1      20.403   0.802  52.332  1.00  0.00     0.065 A 
HETATM   18  C6  UNL     1      20.434   0.102  53.699  1.00  0.00     0.042 C 
HETATM   19  N1  UNL     1      20.403   2.197  52.568  1.00  0.00    -0.293 NA
HETATM   20  C7  UNL     1      19.264   2.394  52.073  1.00  0.00     0.097 A 
HETATM   21  C8  UNL     1      19.092   1.009  51.761  1.00  0.00     0.034 A 
HETATM   22  C9  UNL     1      17.898   0.204  51.896  1.00  0.00     0.034 A 
HETATM   23  C10 UNL     1      18.554   0.461  50.519  1.00  0.00     0.095 A 
BRANCH  23  24
HETATM   24  C11 UNL     1      17.853   1.427  49.632  1.00  0.00     0.220 C 
HETATM   25  N2  UNL     1      18.489   2.113  48.537  1.00  0.00    -0.370 N 
HETATM   26  H14 UNL     1      18.982   3.049  48.475  1.00  0.00     0.159 HD
HETATM   27  H15 UNL     1      18.647   1.900  47.518  1.00  0.00     0.159 HD
HETATM   28  O1  UNL     1      16.765   2.021  49.358  1.00  0.00    -0.273 OA
ENDBRANCH  23  24
ENDBRANCH  16  17
ENDBRANCH   3  16
TORSDOF 6
ENDMDL
MODEL 9
REMARK VINA RESULT:      -7.3      2.199      3.389
REMARK  6 active torsions:
REMARK  status: ('A' for Active; 'I' for Inactive)
REMARK    1  A    between atoms: C2_2  and  O2_15 
REMARK    2  A    between atoms: C3_3  and  C4_4 
REMARK    3  A    between atoms: C4_4  and  C5_5 
REMARK    4  A    between atoms: C10_11  and  C11_12 
REMARK       I    between atoms: C11_12  and  N2_13 
REMARK    5  A    between atoms: O2_15  and  C12_16 
REMARK    6  A    between atoms: C12_16  and  C14_18 
ROOT
HETATM    1  C1  UNL     1      24.328   5.005  51.195  1.00  0.00     0.076 C 
HETATM    2  C2  UNL     1      23.324   4.333  52.041  1.00  0.00     0.039 C 
HETATM    3  C3  UNL     1      23.526   3.376  52.924  1.00  0.00     0.007 C 
ENDROOT
BRANCH   2   4
HETATM    4  O2  UNL     1      22.098   4.888  51.747  1.00  0.00    -0.346 OA
BRANCH   4   5
HETATM    5  C12 UNL     1      21.517   4.898  50.485  1.00  0.00     0.161 C 
HETATM    6  C13 UNL     1      20.096   5.429  50.503  1.00  0.00     0.045 C 
BRANCH   5   7
HETATM    7  C14 UNL     1      21.486   3.506  49.919  1.00  0.00     0.017 A 
HETATM    8  C15 UNL     1      20.764   2.506  50.578  1.00  0.00     0.044 A 
HETATM    9 CL1  UNL     1      19.913   2.949  52.062  1.00  0.00    -0.084 Cl
HETATM   10  C16 UNL     1      20.675   1.196  50.142  1.00  0.00     0.028 A 
HETATM   11  C17 UNL     1      21.358   0.912  48.980  1.00  0.00     0.046 A 
HETATM   12  C18 UNL     1      22.089   1.838  48.276  1.00  0.00     0.138 A 
HETATM   13  F1  UNL     1      22.725   1.483  47.155  1.00  0.00    -0.204 F 
HETATM   14  C19 UNL     1      22.134   3.124  48.769  1.00  0.00     0.083 A 
HETATM   15 CL2  UNL     1      23.058   4.314  47.892  1.00  0.00    -0.080 Cl
ENDBRANCH   5   7
ENDBRANCH   4   5
ENDBRANCH   2   4
BRANCH   3  16
HETATM   16  C4  UNL     1      24.830   2.759  53.262  1.00  0.00     0.063 C 
BRANCH  16  17
HETATM   17  C5  UNL     1      24.928   1.356  52.682  1.00  0.00     0.065 A 
HETATM   18  C6  UNL     1      23.547   0.780  52.333  1.00  0.00     0.042 C 
HETATM   19  N1  UNL     1      25.741   1.241  51.529  1.00  0.00    -0.293 NA
HETATM   20  C7  UNL     1      26.559   0.439  52.048  1.00  0.00     0.097 A 
HETATM   21  C8  UNL     1      25.857   0.435  53.294  1.00  0.00     0.034 A 
HETATM   22  C9  UNL     1      25.591  -0.689  54.165  1.00  0.00     0.034 A 
HETATM   23  C10 UNL     1      26.453   0.509  54.625  1.00  0.00     0.095 A 
BRANCH  23  24
HETATM   24  C11 UNL     1      27.919   0.269  54.695  1.00  0.00     0.220 C 
HETATM   25  N2  UNL     1      28.894   1.318  54.855  1.00  0.00    -0.370 N 
HETATM   26  H14 UNL     1      29.440   1.893  54.153  1.00  0.00     0.159 HD
HETATM   27  H15 UNL     1      29.334   1.803  55.679  1.00  0.00     0.159 HD
HETATM   28  O1  UNL     1      28.858  -0.585  54.672  1.00  0.00    -0.273 OA
ENDBRANCH  23  24
ENDBRANCH  16  17
ENDBRANCH   3  16
TORSDOF 6
ENDMDL
