MODEL 1
REMARK VINA RESULT:      -8.8      0.000      0.000
REMARK  4 active torsions:
REMARK  status: ('A' for Active; 'I' for Inactive)
REMARK    1  A    between atoms: N1_1  and  O1_2 
REMARK    2  A    between atoms: O1_2  and  C1_3 
REMARK    3  A    between atoms: C9_12  and  N3_13 
REMARK    4  A    between atoms: N3_13  and  C10_14 
ROOT
HETATM    1  C1  UNL     1      20.404  -0.477  53.561  1.00  0.00     0.098 A 
HETATM    2  C2  UNL     1      21.239  -0.993  54.553  1.00  0.00     0.042 A 
HETATM    3  C3  UNL     1      22.628  -0.848  54.499  1.00  0.00     0.041 A 
HETATM    4  C4  UNL     1      23.081  -0.156  53.384  1.00  0.00     0.086 A 
HETATM    5  C5  UNL     1      22.349   0.379  52.375  1.00  0.00    -0.004 A 
HETATM    6  C6  UNL     1      20.966   0.197  52.491  1.00  0.00     0.051 A 
HETATM    7  C7  UNL     1      22.561   1.121  51.141  1.00  0.00     0.161 C 
HETATM    8  N2  UNL     1      23.883   1.578  50.878  1.00  0.00    -0.379 N 
HETATM    9  C8  UNL     1      25.065   1.514  51.692  1.00  0.00     0.129 A 
HETATM   10  C9  UNL     1      25.992   2.357  51.147  1.00  0.00     0.160 A 
HETATM   11  N4  UNL     1      27.181   2.447  51.783  1.00  0.00    -0.222 NA
HETATM   12  C16 UNL     1      27.442   1.733  52.907  1.00  0.00     0.238 A 
HETATM   13  N5  UNL     1      26.521   0.915  53.419  1.00  0.00    -0.215 NA
HETATM   14  C17 UNL     1      25.326   0.789  52.829  1.00  0.00     0.202 A 
HETATM   15  O2  UNL     1      24.467  -0.092  53.467  1.00  0.00    -0.289 OA
HETATM   16  H8  UNL     1      24.004   2.030  49.942  1.00  0.00     0.160 HD
ENDROOT
BRANCH  10  17
HETATM   17  N3  UNL     1      25.863   3.148  49.976  1.00  0.00    -0.339 N 
HETATM   18  H9  UNL     1      25.370   2.513  49.295  1.00  0.00     0.167 HD
BRANCH  17  19
HETATM   19  C10 UNL     1      26.227   4.471  49.587  1.00  0.00     0.035 A 
HETATM   20  C11 UNL     1      27.342   4.678  48.807  1.00  0.00     0.029 A 
HETATM   21  C12 UNL     1      27.624   5.979  48.456  1.00  0.00     0.004 A 
HETATM   22  C13 UNL     1      26.827   7.036  48.865  1.00  0.00     0.019 A 
HETATM   23  C14 UNL     1      25.697   6.805  49.660  1.00  0.00     0.013 A 
HETATM   24 BR1  UNL     1      24.611   8.293  50.205  1.00  0.00    -0.051 Br
HETATM   25  C15 UNL     1      25.407   5.508  50.015  1.00  0.00     0.048 A 
ENDBRANCH  17  19
ENDBRANCH  10  17
BRANCH   1  26
HETATM   26  O1  UNL     1      19.078  -0.709  53.771  1.00  0.00    -0.245 OA
BRANCH  26  27
HETATM   27  N1  UNL     1      18.409  -1.869  53.848  1.00  0.00    -0.305 N 
HETATM   28  H1  UNL     1      18.565  -2.476  54.649  1.00  0.00     0.184 HD
HETATM   29  H2  UNL     1      17.431  -1.883  53.553  1.00  0.00     0.184 HD
ENDBRANCH  26  27
ENDBRANCH   1  26
TORSDOF 4
ENDMDL
MODEL 2
REMARK VINA RESULT:      -8.4      3.061      4.598
REMARK  4 active torsions:
REMARK  status: ('A' for Active; 'I' for Inactive)
REMARK    1  A    between atoms: N1_1  and  O1_2 
REMARK    2  A    between atoms: O1_2  and  C1_3 
REMARK    3  A    between atoms: C9_12  and  N3_13 
REMARK    4  A    between atoms: N3_13  and  C10_14 
ROOT
HETATM    1  C1  UNL     1      26.367  -0.634  53.191  1.00  0.00     0.098 A 
HETATM    2  C2  UNL     1      25.031  -0.637  53.592  1.00  0.00     0.042 A 
HETATM    3  C3  UNL     1      24.165   0.418  53.286  1.00  0.00     0.041 A 
HETATM    4  C4  UNL     1      24.757   1.444  52.563  1.00  0.00     0.086 A 
HETATM    5  C5  UNL     1      26.041   1.533  52.132  1.00  0.00    -0.004 A 
HETATM    6  C6  UNL     1      26.852   0.444  52.472  1.00  0.00     0.051 A 
HETATM    7  C7  UNL     1      26.885   2.456  51.388  1.00  0.00     0.161 C 
HETATM    8  N2  UNL     1      26.248   3.576  50.785  1.00  0.00    -0.379 N 
HETATM    9  C8  UNL     1      24.854   3.914  50.699  1.00  0.00     0.129 A 
HETATM   10  C9  UNL     1      24.722   4.900  49.762  1.00  0.00     0.160 A 
HETATM   11  N4  UNL     1      23.470   5.350  49.525  1.00  0.00    -0.222 NA
HETATM   12  C16 UNL     1      22.396   4.849  50.187  1.00  0.00     0.238 A 
HETATM   13  N5  UNL     1      22.552   3.888  51.099  1.00  0.00    -0.215 NA
HETATM   14  C17 UNL     1      23.770   3.405  51.372  1.00  0.00     0.202 A 
HETATM   15  O2  UNL     1      23.785   2.411  52.337  1.00  0.00    -0.289 OA
HETATM   16  H8  UNL     1      26.905   4.255  50.335  1.00  0.00     0.160 HD
ENDROOT
BRANCH  10  17
HETATM   17  N3  UNL     1      25.749   5.524  49.008  1.00  0.00    -0.339 N 
HETATM   18  H9  UNL     1      25.874   4.888  48.177  1.00  0.00     0.167 HD
BRANCH  17  19
HETATM   19  C10 UNL     1      26.549   6.697  49.139  1.00  0.00     0.035 A 
HETATM   20  C11 UNL     1      26.162   7.705  49.992  1.00  0.00     0.029 A 
HETATM   21  C12 UNL     1      26.991   8.800  50.080  1.00  0.00     0.004 A 
HETATM   22  C13 UNL     1      28.162   8.892  49.345  1.00  0.00     0.019 A 
HETATM   23  C14 UNL     1      28.539   7.856  48.480  1.00  0.00     0.013 A 
HETATM   24 BR1  UNL     1      30.172   8.014  47.480  1.00  0.00    -0.051 Br
HETATM   25  C15 UNL     1      27.717   6.757  48.386  1.00  0.00     0.048 A 
ENDBRANCH  17  19
ENDBRANCH  10  17
BRANCH   1  26
HETATM   26  O1  UNL     1      27.066  -1.739  53.572  1.00  0.00    -0.245 OA
BRANCH  26  27
HETATM   27  N1  UNL     1      27.608  -2.713  52.826  1.00  0.00    -0.305 N 
HETATM   28  H1  UNL     1      27.276  -2.849  51.874  1.00  0.00     0.184 HD
HETATM   29  H2  UNL     1      28.615  -2.873  52.897  1.00  0.00     0.184 HD
ENDBRANCH  26  27
ENDBRANCH   1  26
TORSDOF 4
ENDMDL
MODEL 3
REMARK VINA RESULT:      -8.3      4.508      8.810
REMARK  4 active torsions:
REMARK  status: ('A' for Active; 'I' for Inactive)
REMARK    1  A    between atoms: N1_1  and  O1_2 
REMARK    2  A    between atoms: O1_2  and  C1_3 
REMARK    3  A    between atoms: C9_12  and  N3_13 
REMARK    4  A    between atoms: N3_13  and  C10_14 
ROOT
HETATM    1  C1  UNL     1      26.337  -0.049  54.208  1.00  0.00     0.098 A 
HETATM    2  C2  UNL     1      26.459   0.884  53.178  1.00  0.00     0.042 A 
HETATM    3  C3  UNL     1      25.376   1.231  52.364  1.00  0.00     0.041 A 
HETATM    4  C4  UNL     1      24.198   0.567  52.677  1.00  0.00     0.086 A 
HETATM    5  C5  UNL     1      23.987  -0.350  53.655  1.00  0.00    -0.004 A 
HETATM    6  C6  UNL     1      25.112  -0.650  54.432  1.00  0.00     0.051 A 
HETATM    7  C7  UNL     1      22.899  -1.164  54.177  1.00  0.00     0.161 C 
HETATM    8  N2  UNL     1      21.598  -0.918  53.658  1.00  0.00    -0.379 N 
HETATM    9  C8  UNL     1      21.139   0.093  52.746  1.00  0.00     0.129 A 
HETATM   10  C9  UNL     1      19.774   0.116  52.802  1.00  0.00     0.160 A 
HETATM   11  N4  UNL     1      19.148   1.019  52.016  1.00  0.00    -0.222 NA
HETATM   12  C16 UNL     1      19.841   1.862  51.209  1.00  0.00     0.238 A 
HETATM   13  N5  UNL     1      21.174   1.820  51.171  1.00  0.00    -0.215 NA
HETATM   14  C17 UNL     1      21.844   0.944  51.930  1.00  0.00     0.202 A 
HETATM   15  O2  UNL     1      23.222   1.010  51.792  1.00  0.00    -0.289 OA
HETATM   16  H8  UNL     1      20.865  -1.584  53.999  1.00  0.00     0.160 HD
ENDROOT
BRANCH  10  17
HETATM   17  N3  UNL     1      18.923  -0.710  53.582  1.00  0.00    -0.339 N 
HETATM   18  H9  UNL     1      19.192  -0.481  54.575  1.00  0.00     0.167 HD
BRANCH  17  19
HETATM   19  C10 UNL     1      17.904  -1.671  53.319  1.00  0.00     0.035 A 
HETATM   20  C11 UNL     1      18.019  -2.952  53.810  1.00  0.00     0.029 A 
HETATM   21  C12 UNL     1      16.990  -3.821  53.531  1.00  0.00     0.004 A 
HETATM   22  C13 UNL     1      15.886  -3.435  52.789  1.00  0.00     0.019 A 
HETATM   23  C14 UNL     1      15.787  -2.127  52.295  1.00  0.00     0.013 A 
HETATM   24 BR1  UNL     1      14.240  -1.622  51.274  1.00  0.00    -0.051 Br
HETATM   25  C15 UNL     1      16.810  -1.250  52.570  1.00  0.00     0.048 A 
ENDBRANCH  17  19
ENDBRANCH  10  17
BRANCH   1  26
HETATM   26  O1  UNL     1      27.489  -0.267  54.901  1.00  0.00    -0.245 OA
BRANCH  26  27
HETATM   27  N1  UNL     1      28.592   0.492  54.999  1.00  0.00    -0.305 N 
HETATM   28  H1  UNL     1      29.402   0.123  55.490  1.00  0.00     0.184 HD
HETATM   29  H2  UNL     1      28.868   1.050  54.188  1.00  0.00     0.184 HD
ENDBRANCH  26  27
ENDBRANCH   1  26
TORSDOF 4
ENDMDL
MODEL 4
REMARK VINA RESULT:      -8.1      4.274      7.304
REMARK  4 active torsions:
REMARK  status: ('A' for Active; 'I' for Inactive)
REMARK    1  A    between atoms: N1_1  and  O1_2 
REMARK    2  A    between atoms: O1_2  and  C1_3 
REMARK    3  A    between atoms: C9_12  and  N3_13 
REMARK    4  A    between atoms: N3_13  and  C10_14 
ROOT
HETATM    1  C1  UNL     1      27.275  -0.863  53.178  1.00  0.00     0.098 A 
HETATM    2  C2  UNL     1      27.910   0.261  52.649  1.00  0.00     0.042 A 
HETATM    3  C3  UNL     1      27.190   1.352  52.152  1.00  0.00     0.041 A 
HETATM    4  C4  UNL     1      25.812   1.205  52.235  1.00  0.00     0.086 A 
HETATM    5  C5  UNL     1      25.110   0.155  52.730  1.00  0.00    -0.004 A 
HETATM    6  C6  UNL     1      25.892  -0.902  53.211  1.00  0.00     0.051 A 
HETATM    7  C7  UNL     1      23.723  -0.239  52.928  1.00  0.00     0.161 C 
HETATM    8  N2  UNL     1      22.726   0.742  52.668  1.00  0.00    -0.379 N 
HETATM    9  C8  UNL     1      22.859   2.131  52.325  1.00  0.00     0.129 A 
HETATM   10  C9  UNL     1      21.638   2.720  52.489  1.00  0.00     0.160 A 
HETATM   11  N4  UNL     1      21.559   4.043  52.225  1.00  0.00    -0.222 NA
HETATM   12  C16 UNL     1      22.641   4.751  51.814  1.00  0.00     0.238 A 
HETATM   13  N5  UNL     1      23.824   4.153  51.659  1.00  0.00    -0.215 NA
HETATM   14  C17 UNL     1      23.957   2.844  51.909  1.00  0.00     0.202 A 
HETATM   15  O2  UNL     1      25.238   2.355  51.708  1.00  0.00    -0.289 OA
HETATM   16  H8  UNL     1      21.744   0.388  52.741  1.00  0.00     0.160 HD
ENDROOT
BRANCH  10  17
HETATM   17  N3  UNL     1      20.425   2.105  52.896  1.00  0.00    -0.339 N 
HETATM   18  H9  UNL     1      20.274   2.466  53.874  1.00  0.00     0.167 HD
BRANCH  17  19
HETATM   19  C10 UNL     1      19.487   1.202  52.313  1.00  0.00     0.035 A 
HETATM   20  C11 UNL     1      18.966   1.459  51.065  1.00  0.00     0.029 A 
HETATM   21  C12 UNL     1      18.079   0.537  50.559  1.00  0.00     0.004 A 
HETATM   22  C13 UNL     1      17.720  -0.599  51.266  1.00  0.00     0.019 A 
HETATM   23  C14 UNL     1      18.260  -0.842  52.537  1.00  0.00     0.013 A 
HETATM   24 BR1  UNL     1      17.745  -2.429  53.489  1.00  0.00    -0.051 Br
HETATM   25  C15 UNL     1      19.149   0.073  53.051  1.00  0.00     0.048 A 
ENDBRANCH  17  19
ENDBRANCH  10  17
BRANCH   1  26
HETATM   26  O1  UNL     1      28.126  -1.830  53.617  1.00  0.00    -0.245 OA
BRANCH  26  27
HETATM   27  N1  UNL     1      28.375  -3.050  53.117  1.00  0.00    -0.305 N 
HETATM   28  H1  UNL     1      28.384  -3.176  52.107  1.00  0.00     0.184 HD
HETATM   29  H2  UNL     1      29.087  -3.623  53.572  1.00  0.00     0.184 HD
ENDBRANCH  26  27
ENDBRANCH   1  26
TORSDOF 4
ENDMDL
MODEL 5
REMARK VINA RESULT:      -8.0      3.782      5.186
REMARK  4 active torsions:
REMARK  status: ('A' for Active; 'I' for Inactive)
REMARK    1  A    between atoms: N1_1  and  O1_2 
REMARK    2  A    between atoms: O1_2  and  C1_3 
REMARK    3  A    between atoms: C9_12  and  N3_13 
REMARK    4  A    between atoms: N3_13  and  C10_14 
ROOT
HETATM    1  C1  UNL     1      17.836  -1.722  53.086  1.00  0.00     0.098 A 
HETATM    2  C2  UNL     1      17.438  -0.834  52.086  1.00  0.00     0.042 A 
HETATM    3  C3  UNL     1      18.286   0.170  51.610  1.00  0.00     0.041 A 
HETATM    4  C4  UNL     1      19.533   0.194  52.220  1.00  0.00     0.086 A 
HETATM    5  C5  UNL     1      20.005  -0.624  53.194  1.00  0.00    -0.004 A 
HETATM    6  C6  UNL     1      19.105  -1.606  53.624  1.00  0.00     0.051 A 
HETATM    7  C7  UNL     1      21.218  -0.810  53.976  1.00  0.00     0.161 C 
HETATM    8  N2  UNL     1      22.352  -0.032  53.609  1.00  0.00    -0.379 N 
HETATM    9  C8  UNL     1      22.542   0.866  52.503  1.00  0.00     0.129 A 
HETATM   10  C9  UNL     1      23.880   1.120  52.398  1.00  0.00     0.160 A 
HETATM   11  N4  UNL     1      24.267   1.943  51.399  1.00  0.00    -0.222 NA
HETATM   12  C16 UNL     1      23.369   2.493  50.542  1.00  0.00     0.238 A 
HETATM   13  N5  UNL     1      22.066   2.230  50.666  1.00  0.00    -0.215 NA
HETATM   14  C17 UNL     1      21.630   1.420  51.638  1.00  0.00     0.202 A 
HETATM   15  O2  UNL     1      20.256   1.234  51.649  1.00  0.00    -0.289 OA
HETATM   16  H8  UNL     1      23.172  -0.136  54.251  1.00  0.00     0.160 HD
ENDROOT
BRANCH  10  17
HETATM   17  N3  UNL     1      24.924   0.631  53.226  1.00  0.00    -0.339 N 
HETATM   18  H9  UNL     1      24.440  -0.055  53.863  1.00  0.00     0.167 HD
BRANCH  17  19
HETATM   19  C10 UNL     1      26.326   0.860  53.352  1.00  0.00     0.035 A 
HETATM   20  C11 UNL     1      26.807   2.142  53.483  1.00  0.00     0.029 A 
HETATM   21  C12 UNL     1      28.169   2.286  53.616  1.00  0.00     0.004 A 
HETATM   22  C13 UNL     1      29.024   1.195  53.619  1.00  0.00     0.019 A 
HETATM   23  C14 UNL     1      28.515  -0.103  53.483  1.00  0.00     0.013 A 
HETATM   24 BR1  UNL     1      29.726  -1.594  53.496  1.00  0.00    -0.051 Br
HETATM   25  C15 UNL     1      27.154  -0.257  53.350  1.00  0.00     0.048 A 
ENDBRANCH  17  19
ENDBRANCH  10  17
BRANCH   1  26
HETATM   26  O1  UNL     1      16.887  -2.637  53.429  1.00  0.00    -0.245 OA
BRANCH  26  27
HETATM   27  N1  UNL     1      15.590  -2.698  53.093  1.00  0.00    -0.305 N 
HETATM   28  H1  UNL     1      15.327  -3.146  52.219  1.00  0.00     0.184 HD
HETATM   29  H2  UNL     1      14.908  -2.889  53.831  1.00  0.00     0.184 HD
ENDBRANCH  26  27
ENDBRANCH   1  26
TORSDOF 4
ENDMDL
MODEL 6
REMARK VINA RESULT:      -7.8      2.709      4.598
REMARK  4 active torsions:
REMARK  status: ('A' for Active; 'I' for Inactive)
REMARK    1  A    between atoms: N1_1  and  O1_2 
REMARK    2  A    between atoms: O1_2  and  C1_3 
REMARK    3  A    between atoms: C9_12  and  N3_13 
REMARK    4  A    between atoms: N3_13  and  C10_14 
ROOT
HETATM    1  C1  UNL     1      25.042  -0.414  53.555  1.00  0.00     0.098 A 
HETATM    2  C2  UNL     1      23.751  -0.907  53.368  1.00  0.00     0.042 A 
HETATM    3  C3  UNL     1      22.675  -0.067  53.064  1.00  0.00     0.041 A 
HETATM    4  C4  UNL     1      23.016   1.276  52.972  1.00  0.00     0.086 A 
HETATM    5  C5  UNL     1      24.237   1.844  53.137  1.00  0.00    -0.004 A 
HETATM    6  C6  UNL     1      25.267   0.946  53.439  1.00  0.00     0.051 A 
HETATM    7  C7  UNL     1      24.844   3.166  53.097  1.00  0.00     0.161 C 
HETATM    8  N2  UNL     1      24.029   4.241  52.644  1.00  0.00    -0.379 N 
HETATM    9  C8  UNL     1      22.695   4.233  52.111  1.00  0.00     0.129 A 
HETATM   10  C9  UNL     1      22.470   5.449  51.531  1.00  0.00     0.160 A 
HETATM   11  N4  UNL     1      21.262   5.635  50.957  1.00  0.00    -0.222 NA
HETATM   12  C16 UNL     1      20.316   4.662  50.957  1.00  0.00     0.238 A 
HETATM   13  N5  UNL     1      20.559   3.482  51.531  1.00  0.00    -0.215 NA
HETATM   14  C17 UNL     1      21.741   3.245  52.114  1.00  0.00     0.202 A 
HETATM   15  O2  UNL     1      21.857   1.980  52.669  1.00  0.00    -0.289 OA
HETATM   16  H8  UNL     1      24.481   5.183  52.714  1.00  0.00     0.160 HD
ENDROOT
BRANCH  10  17
HETATM   17  N3  UNL     1      23.355   6.557  51.469  1.00  0.00    -0.339 N 
HETATM   18  H9  UNL     1      23.268   7.003  52.420  1.00  0.00     0.167 HD
BRANCH  17  19
HETATM   19  C10 UNL     1      24.228   7.119  50.492  1.00  0.00     0.035 A 
HETATM   20  C11 UNL     1      24.015   8.397  50.029  1.00  0.00     0.029 A 
HETATM   21  C12 UNL     1      24.907   8.880  49.099  1.00  0.00     0.004 A 
HETATM   22  C13 UNL     1      25.973   8.121  48.644  1.00  0.00     0.019 A 
HETATM   23  C14 UNL     1      26.173   6.821  49.127  1.00  0.00     0.013 A 
HETATM   24 BR1  UNL     1      27.664   5.797  48.479  1.00  0.00    -0.051 Br
HETATM   25  C15 UNL     1      25.287   6.330  50.057  1.00  0.00     0.048 A 
ENDBRANCH  17  19
ENDBRANCH  10  17
BRANCH   1  26
HETATM   26  O1  UNL     1      25.968  -1.370  53.843  1.00  0.00    -0.245 OA
BRANCH  26  27
HETATM   27  N1  UNL     1      27.297  -1.364  53.658  1.00  0.00    -0.305 N 
HETATM   28  H1  UNL     1      27.895  -1.794  54.360  1.00  0.00     0.184 HD
HETATM   29  H2  UNL     1      27.654  -1.525  52.714  1.00  0.00     0.184 HD
ENDBRANCH  26  27
ENDBRANCH   1  26
TORSDOF 4
ENDMDL
MODEL 7
REMARK VINA RESULT:      -7.8      2.854      5.390
REMARK  4 active torsions:
REMARK  status: ('A' for Active; 'I' for Inactive)
REMARK    1  A    between atoms: N1_1  and  O1_2 
REMARK    2  A    between atoms: O1_2  and  C1_3 
REMARK    3  A    between atoms: C9_12  and  N3_13 
REMARK    4  A    between atoms: N3_13  and  C10_14 
ROOT
HETATM    1  C1  UNL     1      28.159  -0.287  53.442  1.00  0.00     0.098 A 
HETATM    2  C2  UNL     1      27.378  -1.386  53.082  1.00  0.00     0.042 A 
HETATM    3  C3  UNL     1      26.004  -1.270  52.845  1.00  0.00     0.041 A 
HETATM    4  C4  UNL     1      25.510   0.018  53.002  1.00  0.00     0.086 A 
HETATM    5  C5  UNL     1      26.190   1.140  53.347  1.00  0.00    -0.004 A 
HETATM    6  C6  UNL     1      27.559   0.953  53.570  1.00  0.00     0.051 A 
HETATM    7  C7  UNL     1      25.928   2.554  53.572  1.00  0.00     0.161 C 
HETATM    8  N2  UNL     1      24.628   3.033  53.246  1.00  0.00    -0.379 N 
HETATM    9  C8  UNL     1      23.522   2.361  52.624  1.00  0.00     0.129 A 
HETATM   10  C9  UNL     1      22.619   3.311  52.239  1.00  0.00     0.160 A 
HETATM   11  N4  UNL     1      21.503   2.875  51.617  1.00  0.00    -0.222 NA
HETATM   12  C16 UNL     1      21.287   1.555  51.386  1.00  0.00     0.238 A 
HETATM   13  N5  UNL     1      22.183   0.645  51.772  1.00  0.00    -0.215 NA
HETATM   14  C17 UNL     1      23.307   1.024  52.392  1.00  0.00     0.202 A 
HETATM   15  O2  UNL     1      24.147  -0.024  52.736  1.00  0.00    -0.289 OA
HETATM   16  H8  UNL     1      24.461   4.033  53.505  1.00  0.00     0.160 HD
ENDROOT
BRANCH  10  17
HETATM   17  N3  UNL     1      22.706   4.716  52.427  1.00  0.00    -0.339 N 
HETATM   18  H9  UNL     1      22.656   4.834  53.472  1.00  0.00     0.167 HD
BRANCH  17  19
HETATM   19  C10 UNL     1      22.829   5.858  51.582  1.00  0.00     0.035 A 
HETATM   20  C11 UNL     1      21.703   6.476  51.088  1.00  0.00     0.029 A 
HETATM   21  C12 UNL     1      21.897   7.582  50.293  1.00  0.00     0.004 A 
HETATM   22  C13 UNL     1      23.165   8.058  49.997  1.00  0.00     0.019 A 
HETATM   23  C14 UNL     1      24.300   7.414  50.508  1.00  0.00     0.013 A 
HETATM   24 BR1  UNL     1      26.042   8.101  50.083  1.00  0.00    -0.051 Br
HETATM   25  C15 UNL     1      24.115   6.307  51.305  1.00  0.00     0.048 A 
ENDBRANCH  17  19
ENDBRANCH  10  17
BRANCH   1  26
HETATM   26  O1  UNL     1      29.475  -0.578  53.634  1.00  0.00    -0.245 OA
BRANCH  26  27
HETATM   27  N1  UNL     1      30.561   0.190  53.457  1.00  0.00    -0.305 N 
HETATM   28  H1  UNL     1      31.129   0.435  54.265  1.00  0.00     0.184 HD
HETATM   29  H2  UNL     1      31.138   0.029  52.630  1.00  0.00     0.184 HD
ENDBRANCH  26  27
ENDBRANCH   1  26
TORSDOF 4
ENDMDL
MODEL 8
REMARK VINA RESULT:      -7.8      3.307      7.599
REMARK  4 active torsions:
REMARK  status: ('A' for Active; 'I' for Inactive)
REMARK    1  A    between atoms: N1_1  and  O1_2 
REMARK    2  A    between atoms: O1_2  and  C1_3 
REMARK    3  A    between atoms: C9_12  and  N3_13 
REMARK    4  A    between atoms: N3_13  and  C10_14 
ROOT
HETATM    1  C1  UNL     1      25.550   6.012  48.806  1.00  0.00     0.098 A 
HETATM    2  C2  UNL     1      26.762   5.384  48.517  1.00  0.00     0.042 A 
HETATM    3  C3  UNL     1      27.199   4.261  49.226  1.00  0.00     0.041 A 
HETATM    4  C4  UNL     1      26.327   3.847  50.223  1.00  0.00     0.086 A 
HETATM    5  C5  UNL     1      25.136   4.392  50.574  1.00  0.00    -0.004 A 
HETATM    6  C6  UNL     1      24.758   5.513  49.825  1.00  0.00     0.051 A 
HETATM    7  C7  UNL     1      24.069   4.166  51.538  1.00  0.00     0.161 C 
HETATM    8  N2  UNL     1      24.138   2.977  52.316  1.00  0.00    -0.379 N 
HETATM    9  C8  UNL     1      25.057   1.875  52.245  1.00  0.00     0.129 A 
HETATM   10  C9  UNL     1      24.530   0.845  52.970  1.00  0.00     0.160 A 
HETATM   11  N4  UNL     1      25.249  -0.298  53.016  1.00  0.00    -0.222 NA
HETATM   12  C16 UNL     1      26.439  -0.416  52.374  1.00  0.00     0.238 A 
HETATM   13  N5  UNL     1      26.934   0.605  51.673  1.00  0.00    -0.215 NA
HETATM   14  C17 UNL     1      26.262   1.760  51.594  1.00  0.00     0.202 A 
HETATM   15  O2  UNL     1      26.891   2.733  50.834  1.00  0.00    -0.289 OA
HETATM   16  H8  UNL     1      23.398   2.900  53.052  1.00  0.00     0.160 HD
ENDROOT
BRANCH  10  17
HETATM   17  N3  UNL     1      23.312   0.831  53.699  1.00  0.00    -0.339 N 
HETATM   18  H9  UNL     1      23.458   1.559  54.447  1.00  0.00     0.167 HD
BRANCH  17  19
HETATM   19  C10 UNL     1      22.083   0.112  53.630  1.00  0.00     0.035 A 
HETATM   20  C11 UNL     1      21.893  -1.007  54.408  1.00  0.00     0.029 A 
HETATM   21  C12 UNL     1      20.676  -1.641  54.301  1.00  0.00     0.004 A 
HETATM   22  C13 UNL     1      19.683  -1.181  53.451  1.00  0.00     0.019 A 
HETATM   23  C14 UNL     1      19.895  -0.040  52.666  1.00  0.00     0.013 A 
HETATM   24 BR1  UNL     1      18.496   0.574  51.502  1.00  0.00    -0.051 Br
HETATM   25  C15 UNL     1      21.109   0.601  52.766  1.00  0.00     0.048 A 
ENDBRANCH  17  19
ENDBRANCH  10  17
BRANCH   1  26
HETATM   26  O1  UNL     1      25.279   7.090  48.019  1.00  0.00    -0.245 OA
BRANCH  26  27
HETATM   27  N1  UNL     1      24.255   7.955  48.068  1.00  0.00    -0.305 N 
HETATM   28  H1  UNL     1      23.423   7.766  47.514  1.00  0.00     0.184 HD
HETATM   29  H2  UNL     1      24.017   8.372  48.970  1.00  0.00     0.184 HD
ENDBRANCH  26  27
ENDBRANCH   1  26
TORSDOF 4
ENDMDL
MODEL 9
REMARK VINA RESULT:      -7.7      3.054      4.636
REMARK  4 active torsions:
REMARK  status: ('A' for Active; 'I' for Inactive)
REMARK    1  A    between atoms: N1_1  and  O1_2 
REMARK    2  A    between atoms: O1_2  and  C1_3 
REMARK    3  A    between atoms: C9_12  and  N3_13 
REMARK    4  A    between atoms: N3_13  and  C10_14 
ROOT
HETATM    1  C1  UNL     1      25.188  -0.482  54.166  1.00  0.00     0.098 A 
HETATM    2  C2  UNL     1      26.554  -0.304  53.941  1.00  0.00     0.042 A 
HETATM    3  C3  UNL     1      27.033   0.501  52.904  1.00  0.00     0.041 A 
HETATM    4  C4  UNL     1      26.036   1.090  52.138  1.00  0.00     0.086 A 
HETATM    5  C5  UNL     1      24.692   0.975  52.281  1.00  0.00    -0.004 A 
HETATM    6  C6  UNL     1      24.281   0.155  53.338  1.00  0.00     0.051 A 
HETATM    7  C7  UNL     1      23.477   1.462  51.645  1.00  0.00     0.161 C 
HETATM    8  N2  UNL     1      23.626   2.455  50.636  1.00  0.00    -0.379 N 
HETATM    9  C8  UNL     1      24.799   3.152  50.188  1.00  0.00     0.129 A 
HETATM   10  C9  UNL     1      24.389   4.218  49.437  1.00  0.00     0.160 A 
HETATM   11  N4  UNL     1      25.357   5.013  48.930  1.00  0.00    -0.222 NA
HETATM   12  C16 UNL     1      26.672   4.764  49.153  1.00  0.00     0.238 A 
HETATM   13  N5  UNL     1      27.047   3.716  49.889  1.00  0.00    -0.215 NA
HETATM   14  C17 UNL     1      26.129   2.896  50.416  1.00  0.00     0.202 A 
HETATM   15  O2  UNL     1      26.659   1.851  51.157  1.00  0.00    -0.289 OA
HETATM   16  H8  UNL     1      22.735   2.711  50.149  1.00  0.00     0.160 HD
ENDROOT
BRANCH  10  17
HETATM   17  N3  UNL     1      23.059   4.589  49.111  1.00  0.00    -0.339 N 
HETATM   18  H9  UNL     1      22.723   3.804  48.493  1.00  0.00     0.167 HD
BRANCH  17  19
HETATM   19  C10 UNL     1      22.194   5.681  49.415  1.00  0.00     0.035 A 
HETATM   20  C11 UNL     1      22.460   6.491  50.495  1.00  0.00     0.029 A 
HETATM   21  C12 UNL     1      21.593   7.536  50.719  1.00  0.00     0.004 A 
HETATM   22  C13 UNL     1      20.499   7.767  49.901  1.00  0.00     0.019 A 
HETATM   23  C14 UNL     1      20.244   6.930  48.807  1.00  0.00     0.013 A 
HETATM   24 BR1  UNL     1      18.721   7.282  47.689  1.00  0.00    -0.051 Br
HETATM   25  C15 UNL     1      21.106   5.884  48.574  1.00  0.00     0.048 A 
ENDBRANCH  17  19
ENDBRANCH  10  17
BRANCH   1  26
HETATM   26  O1  UNL     1      24.898  -1.297  55.218  1.00  0.00    -0.245 OA
BRANCH  26  27
HETATM   27  N1  UNL     1      25.303  -1.231  56.495  1.00  0.00    -0.305 N 
HETATM   28  H1  UNL     1      25.463  -2.095  57.007  1.00  0.00     0.184 HD
HETATM   29  H2  UNL     1      25.985  -0.513  56.749  1.00  0.00     0.184 HD
ENDBRANCH  26  27
ENDBRANCH   1  26
TORSDOF 4
ENDMDL
