MODEL 1
REMARK VINA RESULT:      -8.1      0.000      0.000
REMARK  6 active torsions:
REMARK  status: ('A' for Active; 'I' for Inactive)
REMARK    1  A    between atoms: N1_6  and  C5_7 
REMARK    2  A    between atoms: C8_12  and  C9_13 
REMARK    3  A    between atoms: C10_14  and  C11_15 
REMARK    4  A    between atoms: C11_15  and  C12_16 
REMARK    5  A    between atoms: C12_16  and  O1_17 
REMARK    6  A    between atoms: O1_17  and  C13_18 
ROOT
HETATM    1  C5  UNL     1      24.328  -0.455  54.107  1.00  0.00     0.143 A 
HETATM    2  N2  UNL     1      23.892  -1.222  55.117  1.00  0.00    -0.223 NA
HETATM    3  C6  UNL     1      22.589  -1.418  55.376  1.00  0.00     0.234 A 
HETATM    4  N3  UNL     1      21.681  -0.818  54.586  1.00  0.00    -0.253 NA
HETATM    5  C7  UNL     1      22.132  -0.052  53.579  1.00  0.00     0.133 A 
HETATM    6  C8  UNL     1      23.447   0.188  53.264  1.00  0.00     0.027 A 
ENDROOT
BRANCH   6   7
HETATM    7  C9  UNL     1      23.888   1.051  52.189  1.00  0.00     0.013 C 
HETATM    8  C10 UNL     1      24.117   2.343  52.080  1.00  0.00    -0.024 C 
BRANCH   8   9
HETATM    9  C11 UNL     1      24.124   3.655  52.741  1.00  0.00     0.054 C 
BRANCH   9  10
HETATM   10  C12 UNL     1      23.626   4.769  51.837  1.00  0.00     0.180 C 
BRANCH  10  11
HETATM   11  O1  UNL     1      23.970   4.514  50.487  1.00  0.00    -0.344 OA
BRANCH  11  12
HETATM   12  C13 UNL     1      25.109   5.112  49.973  1.00  0.00     0.109 C 
HETATM   13  C14 UNL     1      25.952   4.234  49.507  1.00  0.00     0.044 C 
HETATM   14  C15 UNL     1      27.240   4.403  48.892  1.00  0.00     0.003 C 
HETATM   15  C16 UNL     1      27.889   5.464  48.504  1.00  0.00     0.001 C 
HETATM   16  C17 UNL     1      27.565   6.863  48.542  1.00  0.00     0.007 C 
HETATM   17  C18 UNL     1      26.566   7.492  49.102  1.00  0.00     0.052 C 
HETATM   18  S1  UNL     1      25.199   6.890  50.041  1.00  0.00    -0.077 SA
ENDBRANCH  11  12
ENDBRANCH  10  11
ENDBRANCH   9  10
ENDBRANCH   8   9
ENDBRANCH   6   7
BRANCH   1  19
HETATM   19  N1  UNL     1      25.717  -0.314  53.859  1.00  0.00    -0.336 N 
HETATM   20  C4  UNL     1      26.185  -1.432  53.078  1.00  0.00     0.093 A 
HETATM   21  C3  UNL     1      27.473  -1.556  52.744  1.00  0.00     0.018 A 
HETATM   22  C2  UNL     1      28.467  -0.572  53.146  1.00  0.00     0.018 A 
HETATM   23  C1  UNL     1      27.972   0.416  53.846  1.00  0.00     0.007 A 
HETATM   24 BR1  UNL     1      29.166   1.782  54.444  1.00  0.00    -0.054 Br
HETATM   25  C19 UNL     1      26.598   0.727  54.282  1.00  0.00     0.176 A 
ENDBRANCH   1  19
TORSDOF 6
ENDMDL
MODEL 2
REMARK VINA RESULT:      -7.8      3.574      6.198
REMARK  6 active torsions:
REMARK  status: ('A' for Active; 'I' for Inactive)
REMARK    1  A    between atoms: N1_6  and  C5_7 
REMARK    2  A    between atoms: C8_12  and  C9_13 
REMARK    3  A    between atoms: C10_14  and  C11_15 
REMARK    4  A    between atoms: C11_15  and  C12_16 
REMARK    5  A    between atoms: C12_16  and  O1_17 
REMARK    6  A    between atoms: O1_17  and  C13_18 
ROOT
HETATM    1  C5  UNL     1      27.107   1.720  53.131  1.00  0.00     0.143 A 
HETATM    2  N2  UNL     1      28.124   2.395  53.688  1.00  0.00    -0.223 NA
HETATM    3  C6  UNL     1      29.097   1.797  54.396  1.00  0.00     0.234 A 
HETATM    4  N3  UNL     1      29.048   0.462  54.552  1.00  0.00    -0.253 NA
HETATM    5  C7  UNL     1      28.025  -0.200  53.990  1.00  0.00     0.133 A 
HETATM    6  C8  UNL     1      27.002   0.351  53.258  1.00  0.00     0.027 A 
ENDROOT
BRANCH   6   7
HETATM    7  C9  UNL     1      25.896  -0.399  52.699  1.00  0.00     0.013 C 
HETATM    8  C10 UNL     1      24.692  -0.719  53.125  1.00  0.00    -0.024 C 
BRANCH   8   9
HETATM    9  C11 UNL     1      23.702  -0.633  54.207  1.00  0.00     0.054 C 
BRANCH   9  10
HETATM   10  C12 UNL     1      22.421   0.058  53.775  1.00  0.00     0.180 C 
BRANCH  10  11
HETATM   11  O1  UNL     1      21.876  -0.564  52.626  1.00  0.00    -0.344 OA
BRANCH  11  12
HETATM   12  C13 UNL     1      21.187   0.221  51.716  1.00  0.00     0.109 C 
HETATM   13  C14 UNL     1      21.959   0.644  50.753  1.00  0.00     0.044 C 
HETATM   14  C15 UNL     1      21.671   1.470  49.614  1.00  0.00     0.003 C 
HETATM   15  C16 UNL     1      20.553   1.935  49.132  1.00  0.00     0.001 C 
HETATM   16  C17 UNL     1      19.188   1.797  49.556  1.00  0.00     0.007 C 
HETATM   17  C18 UNL     1      18.679   1.264  50.635  1.00  0.00     0.052 C 
HETATM   18  S1  UNL     1      19.452   0.491  52.020  1.00  0.00    -0.077 SA
ENDBRANCH  11  12
ENDBRANCH  10  11
ENDBRANCH   9  10
ENDBRANCH   8   9
ENDBRANCH   6   7
BRANCH   1  19
HETATM   19  N1  UNL     1      26.128   2.400  52.364  1.00  0.00    -0.336 N 
HETATM   20  C4  UNL     1      26.616   2.595  51.021  1.00  0.00     0.093 A 
HETATM   21  C3  UNL     1      25.893   3.250  50.107  1.00  0.00     0.018 A 
HETATM   22  C2  UNL     1      24.581   3.796  50.416  1.00  0.00     0.018 A 
HETATM   23  C1  UNL     1      24.200   3.578  51.649  1.00  0.00     0.007 A 
HETATM   24 BR1  UNL     1      22.495   4.244  52.195  1.00  0.00    -0.054 Br
HETATM   25  C19 UNL     1      24.842   2.867  52.770  1.00  0.00     0.176 A 
ENDBRANCH   1  19
TORSDOF 6
ENDMDL
MODEL 3
REMARK VINA RESULT:      -7.5      3.813      6.479
REMARK  6 active torsions:
REMARK  status: ('A' for Active; 'I' for Inactive)
REMARK    1  A    between atoms: N1_6  and  C5_7 
REMARK    2  A    between atoms: C8_12  and  C9_13 
REMARK    3  A    between atoms: C10_14  and  C11_15 
REMARK    4  A    between atoms: C11_15  and  C12_16 
REMARK    5  A    between atoms: C12_16  and  O1_17 
REMARK    6  A    between atoms: O1_17  and  C13_18 
ROOT
HETATM    1  C5  UNL     1      21.578   1.494  50.063  1.00  0.00     0.143 A 
HETATM    2  N2  UNL     1      21.529   0.998  48.817  1.00  0.00    -0.223 NA
HETATM    3  C6  UNL     1      22.028   1.647  47.753  1.00  0.00     0.234 A 
HETATM    4  N3  UNL     1      22.602   2.848  47.945  1.00  0.00    -0.253 NA
HETATM    5  C7  UNL     1      22.644   3.332  49.197  1.00  0.00     0.133 A 
HETATM    6  C8  UNL     1      22.152   2.720  50.324  1.00  0.00     0.027 A 
ENDROOT
BRANCH   6   7
HETATM    7  C9  UNL     1      22.187   3.296  51.652  1.00  0.00     0.013 C 
HETATM    8  C10 UNL     1      23.083   3.337  52.614  1.00  0.00    -0.024 C 
BRANCH   8   9
HETATM    9  C11 UNL     1      24.429   2.956  53.065  1.00  0.00     0.054 C 
BRANCH   9  10
HETATM   10  C12 UNL     1      25.360   2.624  51.912  1.00  0.00     0.180 C 
BRANCH  10  11
HETATM   11  O1  UNL     1      25.555   1.226  51.808  1.00  0.00    -0.344 OA
BRANCH  11  12
HETATM   12  C13 UNL     1      26.662   0.667  52.426  1.00  0.00     0.109 C 
HETATM   13  C14 UNL     1      26.699  -0.628  52.281  1.00  0.00     0.044 C 
HETATM   14  C15 UNL     1      27.651  -1.598  52.749  1.00  0.00     0.003 C 
HETATM   15  C16 UNL     1      28.807  -1.474  53.336  1.00  0.00     0.001 C 
HETATM   16  C17 UNL     1      29.568  -0.324  53.737  1.00  0.00     0.007 C 
HETATM   17  C18 UNL     1      29.257   0.945  53.744  1.00  0.00     0.052 C 
HETATM   18  S1  UNL     1      27.776   1.777  53.263  1.00  0.00    -0.077 SA
ENDBRANCH  11  12
ENDBRANCH  10  11
ENDBRANCH   9  10
ENDBRANCH   8   9
ENDBRANCH   6   7
BRANCH   1  19
HETATM   19  N1  UNL     1      21.067   0.747  51.154  1.00  0.00    -0.336 N 
HETATM   20  C4  UNL     1      19.628   0.684  51.066  1.00  0.00     0.093 A 
HETATM   21  C3  UNL     1      18.900   0.068  52.002  1.00  0.00     0.018 A 
HETATM   22  C2  UNL     1      19.517  -0.573  53.153  1.00  0.00     0.018 A 
HETATM   23  C1  UNL     1      20.823  -0.481  53.166  1.00  0.00     0.007 A 
HETATM   24 BR1  UNL     1      21.766  -1.277  54.625  1.00  0.00    -0.054 Br
HETATM   25  C19 UNL     1      21.780   0.128  52.224  1.00  0.00     0.176 A 
ENDBRANCH   1  19
TORSDOF 6
ENDMDL
MODEL 4
REMARK VINA RESULT:      -7.4      3.237      4.973
REMARK  6 active torsions:
REMARK  status: ('A' for Active; 'I' for Inactive)
REMARK    1  A    between atoms: N1_6  and  C5_7 
REMARK    2  A    between atoms: C8_12  and  C9_13 
REMARK    3  A    between atoms: C10_14  and  C11_15 
REMARK    4  A    between atoms: C11_15  and  C12_16 
REMARK    5  A    between atoms: C12_16  and  O1_17 
REMARK    6  A    between atoms: O1_17  and  C13_18 
ROOT
HETATM    1  C5  UNL     1      26.277   2.260  51.538  1.00  0.00     0.143 A 
HETATM    2  N2  UNL     1      26.799   2.891  50.475  1.00  0.00    -0.223 NA
HETATM    3  C6  UNL     1      26.113   3.791  49.751  1.00  0.00     0.234 A 
HETATM    4  N3  UNL     1      24.847   4.071  50.107  1.00  0.00    -0.253 NA
HETATM    5  C7  UNL     1      24.337   3.431  51.172  1.00  0.00     0.133 A 
HETATM    6  C8  UNL     1      24.984   2.503  51.951  1.00  0.00     0.027 A 
ENDROOT
BRANCH   6   7
HETATM    7  C9  UNL     1      24.382   1.809  53.070  1.00  0.00     0.013 C 
HETATM    8  C10 UNL     1      23.516   0.825  53.186  1.00  0.00    -0.024 C 
BRANCH   8   9
HETATM    9  C11 UNL     1      22.651  -0.145  52.500  1.00  0.00     0.054 C 
BRANCH   9  10
HETATM   10  C12 UNL     1      21.191   0.272  52.497  1.00  0.00     0.180 C 
BRANCH  10  11
HETATM   11  O1  UNL     1      20.686   0.328  51.176  1.00  0.00    -0.344 OA
BRANCH  11  12
HETATM   12  C13 UNL     1      21.055   1.395  50.373  1.00  0.00     0.109 C 
HETATM   13  C14 UNL     1      21.625   1.001  49.269  1.00  0.00     0.044 C 
HETATM   14  C15 UNL     1      22.156   1.753  48.166  1.00  0.00     0.003 C 
HETATM   15  C16 UNL     1      22.117   3.023  47.876  1.00  0.00     0.001 C 
HETATM   16  C17 UNL     1      21.531   4.149  48.547  1.00  0.00     0.007 C 
HETATM   17  C18 UNL     1      20.969   4.244  49.723  1.00  0.00     0.052 C 
HETATM   18  S1  UNL     1      20.694   3.032  50.976  1.00  0.00    -0.077 SA
ENDBRANCH  11  12
ENDBRANCH  10  11
ENDBRANCH   9  10
ENDBRANCH   8   9
ENDBRANCH   6   7
BRANCH   1  19
HETATM   19  N1  UNL     1      27.060   1.346  52.287  1.00  0.00    -0.336 N 
HETATM   20  C4  UNL     1      27.888   2.070  53.220  1.00  0.00     0.093 A 
HETATM   21  C3  UNL     1      28.752   1.437  54.019  1.00  0.00     0.018 A 
HETATM   22  C2  UNL     1      28.901  -0.010  53.993  1.00  0.00     0.018 A 
HETATM   23  C1  UNL     1      28.117  -0.601  53.128  1.00  0.00     0.007 A 
HETATM   24 BR1  UNL     1      28.209  -2.504  52.985  1.00  0.00    -0.054 Br
HETATM   25  C19 UNL     1      27.101  -0.078  52.196  1.00  0.00     0.176 A 
ENDBRANCH   1  19
TORSDOF 6
ENDMDL
MODEL 5
REMARK VINA RESULT:      -7.4      3.516      6.644
REMARK  6 active torsions:
REMARK  status: ('A' for Active; 'I' for Inactive)
REMARK    1  A    between atoms: N1_6  and  C5_7 
REMARK    2  A    between atoms: C8_12  and  C9_13 
REMARK    3  A    between atoms: C10_14  and  C11_15 
REMARK    4  A    between atoms: C11_15  and  C12_16 
REMARK    5  A    between atoms: C12_16  and  O1_17 
REMARK    6  A    between atoms: O1_17  and  C13_18 
ROOT
HETATM    1  C5  UNL     1      26.398   2.308  51.599  1.00  0.00     0.143 A 
HETATM    2  N2  UNL     1      26.806   2.888  50.460  1.00  0.00    -0.223 NA
HETATM    3  C6  UNL     1      26.006   3.661  49.707  1.00  0.00     0.234 A 
HETATM    4  N3  UNL     1      24.741   3.862  50.114  1.00  0.00    -0.253 NA
HETATM    5  C7  UNL     1      24.346   3.276  51.256  1.00  0.00     0.133 A 
HETATM    6  C8  UNL     1      25.112   2.476  52.067  1.00  0.00     0.027 A 
ENDROOT
BRANCH   6   7
HETATM    7  C9  UNL     1      24.634   1.833  53.273  1.00  0.00     0.013 C 
HETATM    8  C10 UNL     1      24.084   0.667  53.539  1.00  0.00    -0.024 C 
BRANCH   8   9
HETATM    9  C11 UNL     1      23.610  -0.622  53.016  1.00  0.00     0.054 C 
BRANCH   9  10
HETATM   10  C12 UNL     1      22.253  -1.016  53.573  1.00  0.00     0.180 C 
BRANCH  10  11
HETATM   11  O1  UNL     1      21.361   0.083  53.550  1.00  0.00    -0.344 OA
BRANCH  11  12
HETATM   12  C13 UNL     1      20.298   0.051  52.662  1.00  0.00     0.109 C 
HETATM   13  C14 UNL     1      19.275  -0.593  53.149  1.00  0.00     0.044 C 
HETATM   14  C15 UNL     1      17.983  -0.868  52.585  1.00  0.00     0.003 C 
HETATM   15  C16 UNL     1      17.403  -0.459  51.492  1.00  0.00     0.001 C 
HETATM   16  C17 UNL     1      17.833   0.419  50.440  1.00  0.00     0.007 C 
HETATM   17  C18 UNL     1      18.997   0.968  50.210  1.00  0.00     0.052 C 
HETATM   18  S1  UNL     1      20.522   0.862  51.092  1.00  0.00    -0.077 SA
ENDBRANCH  11  12
ENDBRANCH  10  11
ENDBRANCH   9  10
ENDBRANCH   8   9
ENDBRANCH   6   7
BRANCH   1  19
HETATM   19  N1  UNL     1      27.297   1.532  52.372  1.00  0.00    -0.336 N 
HETATM   20  C4  UNL     1      28.036   2.392  53.264  1.00  0.00     0.093 A 
HETATM   21  C3  UNL     1      28.980   1.906  54.075  1.00  0.00     0.018 A 
HETATM   22  C2  UNL     1      29.311   0.489  54.104  1.00  0.00     0.018 A 
HETATM   23  C1  UNL     1      28.600  -0.231  53.274  1.00  0.00     0.007 A 
HETATM   24 BR1  UNL     1      28.931  -2.111  53.204  1.00  0.00    -0.054 Br
HETATM   25  C19 UNL     1      27.517   0.122  52.337  1.00  0.00     0.176 A 
ENDBRANCH   1  19
TORSDOF 6
ENDMDL
MODEL 6
REMARK VINA RESULT:      -7.2      4.104      6.727
REMARK  6 active torsions:
REMARK  status: ('A' for Active; 'I' for Inactive)
REMARK    1  A    between atoms: N1_6  and  C5_7 
REMARK    2  A    between atoms: C8_12  and  C9_13 
REMARK    3  A    between atoms: C10_14  and  C11_15 
REMARK    4  A    between atoms: C11_15  and  C12_16 
REMARK    5  A    between atoms: C12_16  and  O1_17 
REMARK    6  A    between atoms: O1_17  and  C13_18 
ROOT
HETATM    1  C5  UNL     1      20.501   0.301  52.521  1.00  0.00     0.143 A 
HETATM    2  N2  UNL     1      20.111  -0.332  53.638  1.00  0.00    -0.223 NA
HETATM    3  C6  UNL     1      20.941  -1.085  54.379  1.00  0.00     0.234 A 
HETATM    4  N3  UNL     1      22.220  -1.208  53.983  1.00  0.00    -0.253 NA
HETATM    5  C7  UNL     1      22.597  -0.570  52.864  1.00  0.00     0.133 A 
HETATM    6  C8  UNL     1      21.799   0.211  52.064  1.00  0.00     0.027 A 
ENDROOT
BRANCH   6   7
HETATM    7  C9  UNL     1      22.239   0.852  50.842  1.00  0.00     0.013 C 
HETATM    8  C10 UNL     1      22.988   1.900  50.571  1.00  0.00    -0.024 C 
BRANCH   8   9
HETATM    9  C11 UNL     1      23.795   3.010  51.097  1.00  0.00     0.054 C 
BRANCH   9  10
HETATM   10  C12 UNL     1      24.549   2.637  52.362  1.00  0.00     0.180 C 
BRANCH  10  11
HETATM   11  O1  UNL     1      25.947   2.731  52.161  1.00  0.00    -0.344 OA
BRANCH  11  12
HETATM   12  C13 UNL     1      26.746   1.684  52.589  1.00  0.00     0.109 C 
HETATM   13  C14 UNL     1      26.255   0.525  52.250  1.00  0.00     0.044 C 
HETATM   14  C15 UNL     1      26.743  -0.806  52.483  1.00  0.00     0.003 C 
HETATM   15  C16 UNL     1      27.863  -1.251  52.978  1.00  0.00     0.001 C 
HETATM   16  C17 UNL     1      29.031  -0.582  53.478  1.00  0.00     0.007 C 
HETATM   17  C18 UNL     1      29.259   0.685  53.701  1.00  0.00     0.052 C 
HETATM   18  S1  UNL     1      28.231   2.102  53.481  1.00  0.00    -0.077 SA
ENDBRANCH  11  12
ENDBRANCH  10  11
ENDBRANCH   9  10
ENDBRANCH   8   9
ENDBRANCH   6   7
BRANCH   1  19
HETATM   19  N1  UNL     1      19.590   1.111  51.798  1.00  0.00    -0.336 N 
HETATM   20  C4  UNL     1      19.747   2.488  52.196  1.00  0.00     0.093 A 
HETATM   21  C3  UNL     1      18.972   3.452  51.687  1.00  0.00     0.018 A 
HETATM   22  C2  UNL     1      17.936   3.164  50.707  1.00  0.00     0.018 A 
HETATM   23  C1  UNL     1      17.854   1.897  50.390  1.00  0.00     0.007 A 
HETATM   24 BR1  UNL     1      16.532   1.374  49.113  1.00  0.00    -0.054 Br
HETATM   25  C19 UNL     1      18.626   0.717  50.822  1.00  0.00     0.176 A 
ENDBRANCH   1  19
TORSDOF 6
ENDMDL
MODEL 7
REMARK VINA RESULT:      -7.2      1.810      2.566
REMARK  6 active torsions:
REMARK  status: ('A' for Active; 'I' for Inactive)
REMARK    1  A    between atoms: N1_6  and  C5_7 
REMARK    2  A    between atoms: C8_12  and  C9_13 
REMARK    3  A    between atoms: C10_14  and  C11_15 
REMARK    4  A    between atoms: C11_15  and  C12_16 
REMARK    5  A    between atoms: C12_16  and  O1_17 
REMARK    6  A    between atoms: O1_17  and  C13_18 
ROOT
HETATM    1  C5  UNL     1      22.108   0.429  52.900  1.00  0.00     0.143 A 
HETATM    2  N2  UNL     1      21.411   0.037  53.978  1.00  0.00    -0.223 NA
HETATM    3  C6  UNL     1      20.096  -0.234  53.939  1.00  0.00     0.234 A 
HETATM    4  N3  UNL     1      19.450  -0.106  52.766  1.00  0.00    -0.253 NA
HETATM    5  C7  UNL     1      20.159   0.287  51.696  1.00  0.00     0.133 A 
HETATM    6  C8  UNL     1      21.501   0.580  51.672  1.00  0.00     0.027 A 
ENDROOT
BRANCH   6   7
HETATM    7  C9  UNL     1      22.220   1.037  50.500  1.00  0.00     0.013 C 
HETATM    8  C10 UNL     1      22.488   2.219  49.988  1.00  0.00    -0.024 C 
BRANCH   8   9
HETATM    9  C11 UNL     1      22.344   3.677  50.105  1.00  0.00     0.054 C 
BRANCH   9  10
HETATM   10  C12 UNL     1      23.449   4.434  49.389  1.00  0.00     0.180 C 
BRANCH  10  11
HETATM   11  O1  UNL     1      24.605   4.525  50.201  1.00  0.00    -0.344 OA
BRANCH  11  12
HETATM   12  C13 UNL     1      25.684   5.255  49.731  1.00  0.00     0.109 C 
HETATM   13  C14 UNL     1      26.598   4.490  49.201  1.00  0.00     0.044 C 
HETATM   14  C15 UNL     1      27.862   4.815  48.600  1.00  0.00     0.003 C 
HETATM   15  C16 UNL     1      28.414   5.953  48.291  1.00  0.00     0.001 C 
HETATM   16  C17 UNL     1      27.971   7.312  48.432  1.00  0.00     0.007 C 
HETATM   17  C18 UNL     1      26.925   7.810  49.037  1.00  0.00     0.052 C 
HETATM   18  S1  UNL     1      25.621   7.025  49.930  1.00  0.00    -0.077 SA
ENDBRANCH  11  12
ENDBRANCH  10  11
ENDBRANCH   9  10
ENDBRANCH   8   9
ENDBRANCH   6   7
BRANCH   1  19
HETATM   19  N1  UNL     1      23.502   0.666  52.993  1.00  0.00    -0.336 N 
HETATM   20  C4  UNL     1      23.744   2.081  53.136  1.00  0.00     0.093 A 
HETATM   21  C3  UNL     1      24.985   2.572  53.205  1.00  0.00     0.018 A 
HETATM   22  C2  UNL     1      26.154   1.708  53.142  1.00  0.00     0.018 A 
HETATM   23  C1  UNL     1      25.861   0.439  53.017  1.00  0.00     0.007 A 
HETATM   24 BR1  UNL     1      27.302  -0.811  52.919  1.00  0.00    -0.054 Br
HETATM   25  C19 UNL     1      24.573  -0.276  52.951  1.00  0.00     0.176 A 
ENDBRANCH   1  19
TORSDOF 6
ENDMDL
MODEL 8
REMARK VINA RESULT:      -7.2      5.310      9.288
REMARK  6 active torsions:
REMARK  status: ('A' for Active; 'I' for Inactive)
REMARK    1  A    between atoms: N1_6  and  C5_7 
REMARK    2  A    between atoms: C8_12  and  C9_13 
REMARK    3  A    between atoms: C10_14  and  C11_15 
REMARK    4  A    between atoms: C11_15  and  C12_16 
REMARK    5  A    between atoms: C12_16  and  O1_17 
REMARK    6  A    between atoms: O1_17  and  C13_18 
ROOT
HETATM    1  C5  UNL     1      30.230   7.788  48.410  1.00  0.00     0.143 A 
HETATM    2  N2  UNL     1      30.447   9.074  48.725  1.00  0.00    -0.223 NA
HETATM    3  C6  UNL     1      29.477   9.891  49.168  1.00  0.00     0.234 A 
HETATM    4  N3  UNL     1      28.234   9.396  49.302  1.00  0.00    -0.253 NA
HETATM    5  C7  UNL     1      28.031   8.108  48.983  1.00  0.00     0.133 A 
HETATM    6  C8  UNL     1      28.977   7.224  48.525  1.00  0.00     0.027 A 
ENDROOT
BRANCH   6   7
HETATM    7  C9  UNL     1      28.706   5.850  48.157  1.00  0.00     0.013 C 
HETATM    8  C10 UNL     1      27.764   4.983  48.465  1.00  0.00    -0.024 C 
BRANCH   8   9
HETATM    9  C11 UNL     1      26.532   4.715  49.219  1.00  0.00     0.054 C 
BRANCH   9  10
HETATM   10  C12 UNL     1      26.467   3.292  49.745  1.00  0.00     0.180 C 
BRANCH  10  11
HETATM   11  O1  UNL     1      26.102   3.277  51.113  1.00  0.00    -0.344 OA
BRANCH  11  12
HETATM   12  C13 UNL     1      25.752   2.066  51.689  1.00  0.00     0.109 C 
HETATM   13  C14 UNL     1      26.766   1.251  51.764  1.00  0.00     0.044 C 
HETATM   14  C15 UNL     1      26.859  -0.087  52.281  1.00  0.00     0.003 C 
HETATM   15  C16 UNL     1      26.012  -0.831  52.933  1.00  0.00     0.001 C 
HETATM   16  C17 UNL     1      24.668  -0.598  53.383  1.00  0.00     0.007 C 
HETATM   17  C18 UNL     1      23.851   0.396  53.153  1.00  0.00     0.052 C 
HETATM   18  S1  UNL     1      24.056   1.865  52.196  1.00  0.00    -0.077 SA
ENDBRANCH  11  12
ENDBRANCH  10  11
ENDBRANCH   9  10
ENDBRANCH   8   9
ENDBRANCH   6   7
BRANCH   1  19
HETATM   19  N1  UNL     1      31.300   6.963  47.981  1.00  0.00    -0.336 N 
HETATM   20  C4  UNL     1      32.068   6.533  49.125  1.00  0.00     0.093 A 
HETATM   21  C3  UNL     1      33.159   5.775  48.984  1.00  0.00     0.018 A 
HETATM   22  C2  UNL     1      33.628   5.342  47.677  1.00  0.00     0.018 A 
HETATM   23  C1  UNL     1      32.882   5.763  46.688  1.00  0.00     0.007 A 
HETATM   24 BR1  UNL     1      33.383   5.270  44.911  1.00  0.00    -0.054 Br
HETATM   25  C19 UNL     1      31.650   6.573  46.654  1.00  0.00     0.176 A 
ENDBRANCH   1  19
TORSDOF 6
ENDMDL
MODEL 9
REMARK VINA RESULT:      -7.0      3.175      4.434
REMARK  6 active torsions:
REMARK  status: ('A' for Active; 'I' for Inactive)
REMARK    1  A    between atoms: N1_6  and  C5_7 
REMARK    2  A    between atoms: C8_12  and  C9_13 
REMARK    3  A    between atoms: C10_14  and  C11_15 
REMARK    4  A    between atoms: C11_15  and  C12_16 
REMARK    5  A    between atoms: C12_16  and  O1_17 
REMARK    6  A    between atoms: O1_17  and  C13_18 
ROOT
HETATM    1  C5  UNL     1      21.455   2.019  50.421  1.00  0.00     0.143 A 
HETATM    2  N2  UNL     1      21.245   1.435  49.231  1.00  0.00    -0.223 NA
HETATM    3  C6  UNL     1      20.650   2.064  48.204  1.00  0.00     0.234 A 
HETATM    4  N3  UNL     1      20.247   3.335  48.377  1.00  0.00    -0.253 NA
HETATM    5  C7  UNL     1      20.463   3.907  49.572  1.00  0.00     0.133 A 
HETATM    6  C8  UNL     1      21.063   3.319  50.659  1.00  0.00     0.027 A 
ENDROOT
BRANCH   6   7
HETATM    7  C9  UNL     1      21.243   3.962  51.944  1.00  0.00     0.013 C 
HETATM    8  C10 UNL     1      22.191   4.704  52.478  1.00  0.00    -0.024 C 
BRANCH   8   9
HETATM    9  C11 UNL     1      23.503   5.341  52.306  1.00  0.00     0.054 C 
BRANCH   9  10
HETATM   10  C12 UNL     1      23.703   5.901  50.908  1.00  0.00     0.180 C 
BRANCH  10  11
HETATM   11  O1  UNL     1      24.551   5.062  50.146  1.00  0.00    -0.344 OA
BRANCH  11  12
HETATM   12  C13 UNL     1      25.739   5.589  49.664  1.00  0.00     0.109 C 
HETATM   13  C14 UNL     1      26.525   4.664  49.188  1.00  0.00     0.044 C 
HETATM   14  C15 UNL     1      27.831   4.756  48.597  1.00  0.00     0.003 C 
HETATM   15  C16 UNL     1      28.561   5.776  48.246  1.00  0.00     0.001 C 
HETATM   16  C17 UNL     1      28.337   7.193  48.315  1.00  0.00     0.007 C 
HETATM   17  C18 UNL     1      27.376   7.879  48.876  1.00  0.00     0.052 C 
HETATM   18  S1  UNL     1      25.954   7.354  49.779  1.00  0.00    -0.077 SA
ENDBRANCH  11  12
ENDBRANCH  10  11
ENDBRANCH   9  10
ENDBRANCH   8   9
ENDBRANCH   6   7
BRANCH   1  19
HETATM   19  N1  UNL     1      22.120   1.318  51.458  1.00  0.00    -0.336 N 
HETATM   20  C4  UNL     1      23.541   1.549  51.363  1.00  0.00     0.093 A 
HETATM   21  C3  UNL     1      24.398   0.964  52.206  1.00  0.00     0.018 A 
HETATM   22  C2  UNL     1      23.946   0.071  53.261  1.00  0.00     0.018 A 
HETATM   23  C1  UNL     1      22.647  -0.088  53.291  1.00  0.00     0.007 A 
HETATM   24 BR1  UNL     1      21.913  -1.239  54.627  1.00  0.00    -0.054 Br
HETATM   25  C19 UNL     1      21.562   0.485  52.473  1.00  0.00     0.176 A 
ENDBRANCH   1  19
TORSDOF 6
ENDMDL
