MODEL 1
REMARK VINA RESULT:      -8.8      0.000      0.000
REMARK  7 active torsions:
REMARK  status: ('A' for Active; 'I' for Inactive)
REMARK    1  A    between atoms: C4_4  and  N1_5 
REMARK       I    between atoms: N1_5  and  C5_6 
REMARK    2  A    between atoms: C5_6  and  C6_8 
REMARK    3  A    between atoms: C6_8  and  C7_9 
REMARK    4  A    between atoms: C7_9  and  C8_10 
REMARK    5  A    between atoms: C8_10  and  C9_11 
REMARK    6  A    between atoms: C11_13  and  N2_14 
REMARK    7  A    between atoms: N2_14  and  C12_15 
ROOT
HETATM    1  C1  UNL     1      21.977  -1.342  54.873  1.00  0.00     0.023 C 
HETATM    2  C2  UNL     1      22.731  -0.673  54.011  1.00  0.00    -0.041 A 
HETATM    3  C3  UNL     1      24.196  -0.635  53.997  1.00  0.00     0.042 A 
HETATM    4  C4  UNL     1      24.597   0.134  52.993  1.00  0.00     0.063 A 
HETATM    5  C11 UNL     1      23.420   0.656  52.274  1.00  0.00     0.076 A 
HETATM    6  C21 UNL     1      22.349   0.171  52.885  1.00  0.00     0.043 A 
ENDROOT
BRANCH   5   7
HETATM    7  N2  UNL     1      23.410   1.524  51.126  1.00  0.00    -0.186 N 
HETATM    8  H16 UNL     1      23.382   1.153  50.168  1.00  0.00     0.184 HD
BRANCH   7   9
HETATM    9  C12 UNL     1      23.439   2.961  51.253  1.00  0.00     0.727 A 
HETATM   10  N3  UNL     1      22.541   3.643  51.976  1.00  0.00    -0.075 NA
HETATM   11  C13 UNL     1      22.633   4.983  52.049  1.00  0.00     0.139 A 
HETATM   12  C14 UNL     1      23.632   5.670  51.394  1.00  0.00     0.053 A 
HETATM   13  C15 UNL     1      24.553   4.966  50.653  1.00  0.00     0.089 A 
HETATM   14  C16 UNL     1      25.641   5.583  49.926  1.00  0.00     0.011 A 
HETATM   15  N5  UNL     1      24.436   3.628  50.600  1.00  0.00    -0.062 NA
HETATM   16  C17 UNL     1      26.495   4.756  49.219  1.00  0.00     0.017 A 
HETATM   17  C20 UNL     1      25.873   6.941  49.898  1.00  0.00     0.130 A 
HETATM   18  C18 UNL     1      27.565   5.297  48.497  1.00  0.00     0.020 A 
HETATM   19  C19 UNL     1      27.747   6.655  48.507  1.00  0.00     0.116 A 
HETATM   20  N4  UNL     1      26.895   7.442  49.207  1.00  0.00    -0.272 NA
ENDBRANCH   7   9
ENDBRANCH   5   7
BRANCH   4  21
HETATM   21  N1  UNL     1      25.974   0.412  52.663  1.00  0.00    -0.325 N 
HETATM   22  C5  UNL     1      26.598   1.521  53.294  1.00  0.00     0.222 C 
HETATM   23  O1  UNL     1      26.214   2.379  54.128  1.00  0.00    -0.273 OA
HETATM   24  H4  UNL     1      26.550  -0.141  51.995  1.00  0.00     0.169 HD
BRANCH  22  25
HETATM   25  C6  UNL     1      28.011   1.841  52.983  1.00  0.00     0.103 C 
BRANCH  25  26
HETATM   26  C7  UNL     1      28.930   1.576  54.129  1.00  0.00     0.009 C 
BRANCH  26  27
HETATM   27  C8  UNL     1      28.826   0.137  54.574  1.00  0.00     0.000 C 
BRANCH  27  28
HETATM   28  C9  UNL     1      29.801  -0.746  53.808  1.00  0.00    -0.005 C 
HETATM   29  C10 UNL     1      29.087  -1.895  53.130  1.00  0.00     0.005 C 
ENDBRANCH  27  28
ENDBRANCH  26  27
ENDBRANCH  25  26
ENDBRANCH  22  25
ENDBRANCH   4  21
TORSDOF 7
ENDMDL
MODEL 2
REMARK VINA RESULT:      -8.5      2.046      5.770
REMARK  7 active torsions:
REMARK  status: ('A' for Active; 'I' for Inactive)
REMARK    1  A    between atoms: C4_4  and  N1_5 
REMARK       I    between atoms: N1_5  and  C5_6 
REMARK    2  A    between atoms: C5_6  and  C6_8 
REMARK    3  A    between atoms: C6_8  and  C7_9 
REMARK    4  A    between atoms: C7_9  and  C8_10 
REMARK    5  A    between atoms: C8_10  and  C9_11 
REMARK    6  A    between atoms: C11_13  and  N2_14 
REMARK    7  A    between atoms: N2_14  and  C12_15 
ROOT
HETATM    1  C1  UNL     1      30.040  -1.382  53.699  1.00  0.00     0.023 C 
HETATM    2  C2  UNL     1      28.970  -0.647  53.428  1.00  0.00    -0.041 A 
HETATM    3  C3  UNL     1      27.618  -1.155  53.173  1.00  0.00     0.042 A 
HETATM    4  C4  UNL     1      26.810  -0.129  52.940  1.00  0.00     0.063 A 
HETATM    5  C11 UNL     1      27.576   1.129  53.026  1.00  0.00     0.076 A 
HETATM    6  C21 UNL     1      28.826   0.799  53.311  1.00  0.00     0.043 A 
ENDROOT
BRANCH   5   7
HETATM    7  N2  UNL     1      27.082   2.468  52.842  1.00  0.00    -0.186 N 
HETATM    8  H16 UNL     1      27.230   3.200  53.548  1.00  0.00     0.184 HD
BRANCH   7   9
HETATM    9  C12 UNL     1      26.351   2.858  51.661  1.00  0.00     0.727 A 
HETATM   10  N3  UNL     1      26.952   3.147  50.499  1.00  0.00    -0.075 NA
HETATM   11  C13 UNL     1      26.203   3.502  49.439  1.00  0.00     0.139 A 
HETATM   12  C14 UNL     1      24.830   3.577  49.525  1.00  0.00     0.053 A 
HETATM   13  C15 UNL     1      24.216   3.280  50.720  1.00  0.00     0.089 A 
HETATM   14  C16 UNL     1      22.784   3.327  50.922  1.00  0.00     0.011 A 
HETATM   15  N5  UNL     1      24.990   2.927  51.760  1.00  0.00    -0.062 NA
HETATM   16  C17 UNL     1      22.299   3.005  52.177  1.00  0.00     0.017 A 
HETATM   17  C20 UNL     1      21.881   3.673  49.940  1.00  0.00     0.130 A 
HETATM   18  C18 UNL     1      20.923   3.033  52.431  1.00  0.00     0.020 A 
HETATM   19  C19 UNL     1      20.073   3.383  51.416  1.00  0.00     0.116 A 
HETATM   20  N4  UNL     1      20.574   3.694  50.196  1.00  0.00    -0.272 NA
ENDBRANCH   7   9
ENDBRANCH   5   7
BRANCH   4  21
HETATM   21  N1  UNL     1      25.401  -0.237  52.648  1.00  0.00    -0.325 N 
HETATM   22  C5  UNL     1      24.521  -0.549  53.719  1.00  0.00     0.222 C 
HETATM   23  O1  UNL     1      24.685  -0.768  54.946  1.00  0.00    -0.273 OA
HETATM   24  H4  UNL     1      24.976  -0.103  51.707  1.00  0.00     0.169 HD
BRANCH  22  25
HETATM   25  C6  UNL     1      23.067  -0.668  53.461  1.00  0.00     0.103 C 
BRANCH  25  26
HETATM   26  C7  UNL     1      22.334  -1.332  54.580  1.00  0.00     0.009 C 
BRANCH  26  27
HETATM   27  C8  UNL     1      20.870  -1.481  54.243  1.00  0.00     0.000 C 
BRANCH  27  28
HETATM   28  C9  UNL     1      20.261  -0.147  53.836  1.00  0.00    -0.005 C 
HETATM   29  C10 UNL     1      19.211  -0.326  52.761  1.00  0.00     0.005 C 
ENDBRANCH  27  28
ENDBRANCH  26  27
ENDBRANCH  25  26
ENDBRANCH  22  25
ENDBRANCH   4  21
TORSDOF 7
ENDMDL
MODEL 3
REMARK VINA RESULT:      -8.1      2.432      6.987
REMARK  7 active torsions:
REMARK  status: ('A' for Active; 'I' for Inactive)
REMARK    1  A    between atoms: C4_4  and  N1_5 
REMARK       I    between atoms: N1_5  and  C5_6 
REMARK    2  A    between atoms: C5_6  and  C6_8 
REMARK    3  A    between atoms: C6_8  and  C7_9 
REMARK    4  A    between atoms: C7_9  and  C8_10 
REMARK    5  A    between atoms: C8_10  and  C9_11 
REMARK    6  A    between atoms: C11_13  and  N2_14 
REMARK    7  A    between atoms: N2_14  and  C12_15 
ROOT
HETATM    1  C1  UNL     1      29.870   2.127  54.739  1.00  0.00     0.023 C 
HETATM    2  C2  UNL     1      28.799   1.672  54.104  1.00  0.00    -0.041 A 
HETATM    3  C3  UNL     1      27.998   2.415  53.127  1.00  0.00     0.042 A 
HETATM    4  C4  UNL     1      27.007   1.639  52.704  1.00  0.00     0.063 A 
HETATM    5  C11 UNL     1      27.088   0.329  53.377  1.00  0.00     0.076 A 
HETATM    6  C21 UNL     1      28.138   0.375  54.183  1.00  0.00     0.043 A 
ENDROOT
BRANCH   5   7
HETATM    7  N2  UNL     1      26.211  -0.799  53.205  1.00  0.00    -0.186 N 
HETATM    8  H16 UNL     1      26.454  -1.584  52.588  1.00  0.00     0.184 HD
BRANCH   7   9
HETATM    9  C12 UNL     1      24.942  -0.891  53.885  1.00  0.00     0.727 A 
HETATM   10  N3  UNL     1      24.829  -1.290  55.159  1.00  0.00    -0.075 NA
HETATM   11  C13 UNL     1      23.611  -1.350  55.726  1.00  0.00     0.139 A 
HETATM   12  C14 UNL     1      22.475  -1.009  55.024  1.00  0.00     0.053 A 
HETATM   13  C15 UNL     1      22.594  -0.599  53.716  1.00  0.00     0.089 A 
HETATM   14  C16 UNL     1      21.472  -0.219  52.887  1.00  0.00     0.011 A 
HETATM   15  N5  UNL     1      23.825  -0.549  53.177  1.00  0.00    -0.062 NA
HETATM   16  C17 UNL     1      21.734   0.174  51.587  1.00  0.00     0.017 A 
HETATM   17  C20 UNL     1      20.162  -0.226  53.317  1.00  0.00     0.130 A 
HETATM   18  C18 UNL     1      20.687   0.552  50.738  1.00  0.00     0.020 A 
HETATM   19  C19 UNL     1      19.406   0.526  51.222  1.00  0.00     0.116 A 
HETATM   20  N4  UNL     1      19.177   0.137  52.499  1.00  0.00    -0.272 NA
ENDBRANCH   7   9
ENDBRANCH   5   7
BRANCH   4  21
HETATM   21  N1  UNL     1      26.009   2.027  51.737  1.00  0.00    -0.325 N 
HETATM   22  C5  UNL     1      24.852   2.702  52.209  1.00  0.00     0.222 C 
HETATM   23  O1  UNL     1      24.461   3.071  53.346  1.00  0.00    -0.273 OA
HETATM   24  H4  UNL     1      26.070   1.849  50.713  1.00  0.00     0.169 HD
BRANCH  22  25
HETATM   25  C6  UNL     1      23.803   3.117  51.250  1.00  0.00     0.103 C 
BRANCH  25  26
HETATM   26  C7  UNL     1      24.289   4.123  50.259  1.00  0.00     0.009 C 
BRANCH  26  27
HETATM   27  C8  UNL     1      23.471   4.061  48.992  1.00  0.00     0.000 C 
BRANCH  27  28
HETATM   28  C9  UNL     1      23.048   2.633  48.679  1.00  0.00    -0.005 C 
HETATM   29  C10 UNL     1      22.184   2.574  47.438  1.00  0.00     0.005 C 
ENDBRANCH  27  28
ENDBRANCH  26  27
ENDBRANCH  25  26
ENDBRANCH  22  25
ENDBRANCH   4  21
TORSDOF 7
ENDMDL
MODEL 4
REMARK VINA RESULT:      -8.1      1.780      6.087
REMARK  7 active torsions:
REMARK  status: ('A' for Active; 'I' for Inactive)
REMARK    1  A    between atoms: C4_4  and  N1_5 
REMARK       I    between atoms: N1_5  and  C5_6 
REMARK    2  A    between atoms: C5_6  and  C6_8 
REMARK    3  A    between atoms: C6_8  and  C7_9 
REMARK    4  A    between atoms: C7_9  and  C8_10 
REMARK    5  A    between atoms: C8_10  and  C9_11 
REMARK    6  A    between atoms: C11_13  and  N2_14 
REMARK    7  A    between atoms: N2_14  and  C12_15 
ROOT
HETATM    1  C1  UNL     1      27.275   5.770  48.332  1.00  0.00     0.023 C 
HETATM    2  C2  UNL     1      26.535   5.131  49.228  1.00  0.00    -0.041 A 
HETATM    3  C3  UNL     1      26.570   3.692  49.505  1.00  0.00     0.042 A 
HETATM    4  C4  UNL     1      25.693   3.416  50.461  1.00  0.00     0.063 A 
HETATM    5  C11 UNL     1      25.018   4.658  50.881  1.00  0.00     0.076 A 
HETATM    6  C21 UNL     1      25.526   5.639  50.150  1.00  0.00     0.043 A 
ENDROOT
BRANCH   5   7
HETATM    7  N2  UNL     1      24.001   4.804  51.890  1.00  0.00    -0.186 N 
HETATM    8  H16 UNL     1      24.169   5.334  52.753  1.00  0.00     0.184 HD
BRANCH   7   9
HETATM    9  C12 UNL     1      22.693   4.213  51.748  1.00  0.00     0.727 A 
HETATM   10  N3  UNL     1      21.698   4.807  51.075  1.00  0.00    -0.075 NA
HETATM   11  C13 UNL     1      20.504   4.194  50.984  1.00  0.00     0.139 A 
HETATM   12  C14 UNL     1      20.282   2.967  51.571  1.00  0.00     0.053 A 
HETATM   13  C15 UNL     1      21.306   2.359  52.261  1.00  0.00     0.089 A 
HETATM   14  C16 UNL     1      21.184   1.075  52.915  1.00  0.00     0.011 A 
HETATM   15  N5  UNL     1      22.487   2.996  52.334  1.00  0.00    -0.062 NA
HETATM   16  C17 UNL     1      22.293   0.580  53.576  1.00  0.00     0.017 A 
HETATM   17  C20 UNL     1      20.030   0.320  52.917  1.00  0.00     0.130 A 
HETATM   18  C18 UNL     1      22.234  -0.658  54.227  1.00  0.00     0.020 A 
HETATM   19  C19 UNL     1      21.060  -1.363  54.194  1.00  0.00     0.116 A 
HETATM   20  N4  UNL     1      19.988  -0.856  53.540  1.00  0.00    -0.272 NA
ENDBRANCH   7   9
ENDBRANCH   5   7
BRANCH   4  21
HETATM   21  N1  UNL     1      25.444   2.101  51.000  1.00  0.00    -0.325 N 
HETATM   22  C5  UNL     1      26.000   1.786  52.269  1.00  0.00     0.222 C 
HETATM   23  O1  UNL     1      26.706   2.420  53.093  1.00  0.00    -0.273 OA
HETATM   24  H4  UNL     1      24.885   1.359  50.529  1.00  0.00     0.169 HD
BRANCH  22  25
HETATM   25  C6  UNL     1      25.769   0.446  52.858  1.00  0.00     0.103 C 
BRANCH  25  26
HETATM   26  C7  UNL     1      26.488  -0.639  52.127  1.00  0.00     0.009 C 
BRANCH  26  27
HETATM   27  C8  UNL     1      27.449  -1.354  53.047  1.00  0.00     0.000 C 
BRANCH  27  28
HETATM   28  C9  UNL     1      28.707  -0.528  53.275  1.00  0.00    -0.005 C 
HETATM   29  C10 UNL     1      28.815  -0.077  54.716  1.00  0.00     0.005 C 
ENDBRANCH  27  28
ENDBRANCH  26  27
ENDBRANCH  25  26
ENDBRANCH  22  25
ENDBRANCH   4  21
TORSDOF 7
ENDMDL
MODEL 5
REMARK VINA RESULT:      -7.9      2.476      6.432
REMARK  7 active torsions:
REMARK  status: ('A' for Active; 'I' for Inactive)
REMARK    1  A    between atoms: C4_4  and  N1_5 
REMARK       I    between atoms: N1_5  and  C5_6 
REMARK    2  A    between atoms: C5_6  and  C6_8 
REMARK    3  A    between atoms: C6_8  and  C7_9 
REMARK    4  A    between atoms: C7_9  and  C8_10 
REMARK    5  A    between atoms: C8_10  and  C9_11 
REMARK    6  A    between atoms: C11_13  and  N2_14 
REMARK    7  A    between atoms: N2_14  and  C12_15 
ROOT
HETATM    1  C1  UNL     1      26.552  -1.198  52.617  1.00  0.00     0.023 C 
HETATM    2  C2  UNL     1      26.281   0.097  52.525  1.00  0.00    -0.041 A 
HETATM    3  C3  UNL     1      26.936   1.052  51.627  1.00  0.00     0.042 A 
HETATM    4  C4  UNL     1      26.405   2.253  51.813  1.00  0.00     0.063 A 
HETATM    5  C11 UNL     1      25.359   2.171  52.850  1.00  0.00     0.076 A 
HETATM    6  C21 UNL     1      25.307   0.909  53.246  1.00  0.00     0.043 A 
ENDROOT
BRANCH   5   7
HETATM    7  N2  UNL     1      24.538   3.242  53.351  1.00  0.00    -0.186 N 
HETATM    8  H16 UNL     1      24.756   3.723  54.232  1.00  0.00     0.184 HD
BRANCH   7   9
HETATM    9  C12 UNL     1      23.364   3.699  52.648  1.00  0.00     0.727 A 
HETATM   10  N3  UNL     1      23.269   4.924  52.113  1.00  0.00    -0.075 NA
HETATM   11  C13 UNL     1      22.142   5.278  51.470  1.00  0.00     0.139 A 
HETATM   12  C14 UNL     1      21.081   4.408  51.351  1.00  0.00     0.053 A 
HETATM   13  C15 UNL     1      21.181   3.150  51.901  1.00  0.00     0.089 A 
HETATM   14  C16 UNL     1      20.130   2.158  51.837  1.00  0.00     0.011 A 
HETATM   15  N5  UNL     1      22.320   2.825  52.536  1.00  0.00    -0.062 NA
HETATM   16  C17 UNL     1      20.363   0.933  52.434  1.00  0.00     0.017 A 
HETATM   17  C20 UNL     1      18.916   2.364  51.216  1.00  0.00     0.130 A 
HETATM   18  C18 UNL     1      19.382  -0.066  52.403  1.00  0.00     0.020 A 
HETATM   19  C19 UNL     1      18.196   0.196  51.771  1.00  0.00     0.116 A 
HETATM   20  N4  UNL     1      17.993   1.405  51.194  1.00  0.00    -0.272 NA
ENDBRANCH   7   9
ENDBRANCH   5   7
BRANCH   4  21
HETATM   21  N1  UNL     1      26.796   3.450  51.107  1.00  0.00    -0.325 N 
HETATM   22  C5  UNL     1      26.017   3.845  49.987  1.00  0.00     0.222 C 
HETATM   23  O1  UNL     1      24.997   3.372  49.423  1.00  0.00    -0.273 OA
HETATM   24  H4  UNL     1      27.609   4.049  51.355  1.00  0.00     0.169 HD
BRANCH  22  25
HETATM   25  C6  UNL     1      26.384   5.067  49.234  1.00  0.00     0.103 C 
BRANCH  25  26
HETATM   26  C7  UNL     1      27.717   4.958  48.569  1.00  0.00     0.009 C 
BRANCH  26  27
HETATM   27  C8  UNL     1      28.173   6.306  48.066  1.00  0.00     0.000 C 
BRANCH  27  28
HETATM   28  C9  UNL     1      27.386   7.433  48.722  1.00  0.00    -0.005 C 
HETATM   29  C10 UNL     1      28.253   8.653  48.942  1.00  0.00     0.005 C 
ENDBRANCH  27  28
ENDBRANCH  26  27
ENDBRANCH  25  26
ENDBRANCH  22  25
ENDBRANCH   4  21
TORSDOF 7
ENDMDL
MODEL 6
REMARK VINA RESULT:      -7.7      1.892      4.735
REMARK  7 active torsions:
REMARK  status: ('A' for Active; 'I' for Inactive)
REMARK    1  A    between atoms: C4_4  and  N1_5 
REMARK       I    between atoms: N1_5  and  C5_6 
REMARK    2  A    between atoms: C5_6  and  C6_8 
REMARK    3  A    between atoms: C6_8  and  C7_9 
REMARK    4  A    between atoms: C7_9  and  C8_10 
REMARK    5  A    between atoms: C8_10  and  C9_11 
REMARK    6  A    between atoms: C11_13  and  N2_14 
REMARK    7  A    between atoms: N2_14  and  C12_15 
ROOT
HETATM    1  C1  UNL     1      29.809   0.076  53.458  1.00  0.00     0.023 C 
HETATM    2  C2  UNL     1      28.522   0.394  53.472  1.00  0.00    -0.041 A 
HETATM    3  C3  UNL     1      27.408  -0.534  53.691  1.00  0.00     0.042 A 
HETATM    4  C4  UNL     1      26.268   0.142  53.636  1.00  0.00     0.063 A 
HETATM    5  C11 UNL     1      26.553   1.566  53.376  1.00  0.00     0.076 A 
HETATM    6  C21 UNL     1      27.869   1.685  53.286  1.00  0.00     0.043 A 
ENDROOT
BRANCH   5   7
HETATM    7  N2  UNL     1      25.603   2.638  53.243  1.00  0.00    -0.186 N 
HETATM    8  H16 UNL     1      25.568   3.416  53.914  1.00  0.00     0.184 HD
BRANCH   7   9
HETATM    9  C12 UNL     1      24.645   2.683  52.165  1.00  0.00     0.727 A 
HETATM   10  N3  UNL     1      23.689   1.759  52.005  1.00  0.00    -0.075 NA
HETATM   11  C13 UNL     1      22.831   1.868  50.975  1.00  0.00     0.139 A 
HETATM   12  C14 UNL     1      22.916   2.911  50.079  1.00  0.00     0.053 A 
HETATM   13  C15 UNL     1      23.900   3.859  50.245  1.00  0.00     0.089 A 
HETATM   14  C16 UNL     1      24.081   4.993  49.366  1.00  0.00     0.011 A 
HETATM   15  N5  UNL     1      24.741   3.723  51.285  1.00  0.00    -0.062 NA
HETATM   16  C17 UNL     1      25.112   5.870  49.650  1.00  0.00     0.017 A 
HETATM   17  C20 UNL     1      23.288   5.248  48.268  1.00  0.00     0.130 A 
HETATM   18  C18 UNL     1      25.335   6.986  48.833  1.00  0.00     0.020 A 
HETATM   19  C19 UNL     1      24.514   7.187  47.756  1.00  0.00     0.116 A 
HETATM   20  N4  UNL     1      23.512   6.313  47.500  1.00  0.00    -0.272 NA
ENDBRANCH   7   9
ENDBRANCH   5   7
BRANCH   4  21
HETATM   21  N1  UNL     1      24.956  -0.435  53.803  1.00  0.00    -0.325 N 
HETATM   22  C5  UNL     1      24.622  -0.968  55.077  1.00  0.00     0.222 C 
HETATM   23  O1  UNL     1      25.236  -1.065  56.170  1.00  0.00    -0.273 OA
HETATM   24  H4  UNL     1      24.230  -0.492  53.059  1.00  0.00     0.169 HD
BRANCH  22  25
HETATM   25  C6  UNL     1      23.285  -1.570  55.291  1.00  0.00     0.103 C 
BRANCH  25  26
HETATM   26  C7  UNL     1      22.283  -1.130  54.277  1.00  0.00     0.009 C 
BRANCH  26  27
HETATM   27  C8  UNL     1      21.377  -0.066  54.849  1.00  0.00     0.000 C 
BRANCH  27  28
HETATM   28  C9  UNL     1      20.645   0.684  53.746  1.00  0.00    -0.005 C 
HETATM   29  C10 UNL     1      19.929  -0.269  52.813  1.00  0.00     0.005 C 
ENDBRANCH  27  28
ENDBRANCH  26  27
ENDBRANCH  25  26
ENDBRANCH  22  25
ENDBRANCH   4  21
TORSDOF 7
ENDMDL
MODEL 7
REMARK VINA RESULT:      -7.7      2.552      6.344
REMARK  7 active torsions:
REMARK  status: ('A' for Active; 'I' for Inactive)
REMARK    1  A    between atoms: C4_4  and  N1_5 
REMARK       I    between atoms: N1_5  and  C5_6 
REMARK    2  A    between atoms: C5_6  and  C6_8 
REMARK    3  A    between atoms: C6_8  and  C7_9 
REMARK    4  A    between atoms: C7_9  and  C8_10 
REMARK    5  A    between atoms: C8_10  and  C9_11 
REMARK    6  A    between atoms: C11_13  and  N2_14 
REMARK    7  A    between atoms: N2_14  and  C12_15 
ROOT
HETATM    1  C1  UNL     1      17.585   3.596  51.524  1.00  0.00     0.023 C 
HETATM    2  C2  UNL     1      18.748   2.962  51.591  1.00  0.00    -0.041 A 
HETATM    3  C3  UNL     1      20.071   3.591  51.642  1.00  0.00     0.042 A 
HETATM    4  C4  UNL     1      20.997   2.643  51.704  1.00  0.00     0.063 A 
HETATM    5  C11 UNL     1      20.345   1.320  51.700  1.00  0.00     0.076 A 
HETATM    6  C21 UNL     1      19.040   1.534  51.634  1.00  0.00     0.043 A 
ENDROOT
BRANCH   5   7
HETATM    7  N2  UNL     1      20.982   0.031  51.756  1.00  0.00    -0.186 N 
HETATM    8  H16 UNL     1      20.928  -0.634  50.975  1.00  0.00     0.184 HD
BRANCH   7   9
HETATM    9  C12 UNL     1      21.731  -0.402  52.911  1.00  0.00     0.727 A 
HETATM   10  N3  UNL     1      21.162  -1.018  53.956  1.00  0.00    -0.075 NA
HETATM   11  C13 UNL     1      21.926  -1.393  54.997  1.00  0.00     0.139 A 
HETATM   12  C14 UNL     1      23.283  -1.157  55.013  1.00  0.00     0.053 A 
HETATM   13  C15 UNL     1      23.865  -0.525  53.938  1.00  0.00     0.089 A 
HETATM   14  C16 UNL     1      25.277  -0.227  53.848  1.00  0.00     0.011 A 
HETATM   15  N5  UNL     1      23.076  -0.163  52.912  1.00  0.00    -0.062 NA
HETATM   16  C17 UNL     1      25.731   0.414  52.710  1.00  0.00     0.017 A 
HETATM   17  C20 UNL     1      26.193  -0.544  54.829  1.00  0.00     0.130 A 
HETATM   18  C18 UNL     1      27.087   0.728  52.568  1.00  0.00     0.020 A 
HETATM   19  C19 UNL     1      27.951   0.387  53.575  1.00  0.00     0.116 A 
HETATM   20  N4  UNL     1      27.481  -0.240  54.680  1.00  0.00    -0.272 NA
ENDBRANCH   7   9
ENDBRANCH   5   7
BRANCH   4  21
HETATM   21  N1  UNL     1      22.419   2.879  51.766  1.00  0.00    -0.325 N 
HETATM   22  C5  UNL     1      23.179   2.677  50.583  1.00  0.00     0.222 C 
HETATM   23  O1  UNL     1      22.891   2.318  49.413  1.00  0.00    -0.273 OA
HETATM   24  H4  UNL     1      22.935   3.187  52.616  1.00  0.00     0.169 HD
BRANCH  22  25
HETATM   25  C6  UNL     1      24.642   2.908  50.604  1.00  0.00     0.103 C 
BRANCH  25  26
HETATM   26  C7  UNL     1      25.002   4.349  50.455  1.00  0.00     0.009 C 
BRANCH  26  27
HETATM   27  C8  UNL     1      25.512   4.629  49.061  1.00  0.00     0.000 C 
BRANCH  27  28
HETATM   28  C9  UNL     1      27.031   4.559  49.007  1.00  0.00    -0.005 C 
HETATM   29  C10 UNL     1      27.624   5.858  48.505  1.00  0.00     0.005 C 
ENDBRANCH  27  28
ENDBRANCH  26  27
ENDBRANCH  25  26
ENDBRANCH  22  25
ENDBRANCH   4  21
TORSDOF 7
ENDMDL
MODEL 8
REMARK VINA RESULT:      -7.7      2.277      5.173
REMARK  7 active torsions:
REMARK  status: ('A' for Active; 'I' for Inactive)
REMARK    1  A    between atoms: C4_4  and  N1_5 
REMARK       I    between atoms: N1_5  and  C5_6 
REMARK    2  A    between atoms: C5_6  and  C6_8 
REMARK    3  A    between atoms: C6_8  and  C7_9 
REMARK    4  A    between atoms: C7_9  and  C8_10 
REMARK    5  A    between atoms: C8_10  and  C9_11 
REMARK    6  A    between atoms: C11_13  and  N2_14 
REMARK    7  A    between atoms: N2_14  and  C12_15 
ROOT
HETATM    1  C1  UNL     1      26.977   0.303  54.654  1.00  0.00     0.023 C 
HETATM    2  C2  UNL     1      25.838   0.303  53.975  1.00  0.00    -0.041 A 
HETATM    3  C3  UNL     1      24.746  -0.663  54.126  1.00  0.00     0.042 A 
HETATM    4  C4  UNL     1      23.772  -0.346  53.282  1.00  0.00     0.063 A 
HETATM    5  C11 UNL     1      24.157   0.854  52.516  1.00  0.00     0.076 A 
HETATM    6  C21 UNL     1      25.361   1.210  52.938  1.00  0.00     0.043 A 
ENDROOT
BRANCH   5   7
HETATM    7  N2  UNL     1      23.390   1.527  51.501  1.00  0.00    -0.186 N 
HETATM    8  H16 UNL     1      22.806   1.010  50.832  1.00  0.00     0.184 HD
BRANCH   7   9
HETATM    9  C12 UNL     1      23.398   2.963  51.364  1.00  0.00     0.727 A 
HETATM   10  N3  UNL     1      22.435   3.746  51.868  1.00  0.00    -0.075 NA
HETATM   11  C13 UNL     1      22.511   5.078  51.700  1.00  0.00     0.139 A 
HETATM   12  C14 UNL     1      23.560   5.656  51.019  1.00  0.00     0.053 A 
HETATM   13  C15 UNL     1      24.549   4.850  50.503  1.00  0.00     0.089 A 
HETATM   14  C16 UNL     1      25.693   5.348  49.772  1.00  0.00     0.011 A 
HETATM   15  N5  UNL     1      24.445   3.522  50.687  1.00  0.00    -0.062 NA
HETATM   16  C17 UNL     1      26.613   4.426  49.307  1.00  0.00     0.017 A 
HETATM   17  C20 UNL     1      25.918   6.683  49.514  1.00  0.00     0.130 A 
HETATM   18  C18 UNL     1      27.740   4.850  48.593  1.00  0.00     0.020 A 
HETATM   19  C19 UNL     1      27.911   6.190  48.368  1.00  0.00     0.116 A 
HETATM   20  N4  UNL     1      26.995   7.072  48.835  1.00  0.00    -0.272 NA
ENDBRANCH   7   9
ENDBRANCH   5   7
BRANCH   4  21
HETATM   21  N1  UNL     1      22.531  -1.070  53.142  1.00  0.00    -0.325 N 
HETATM   22  C5  UNL     1      21.493  -0.798  54.073  1.00  0.00     0.222 C 
HETATM   23  O1  UNL     1      21.387  -0.023  55.058  1.00  0.00    -0.273 OA
HETATM   24  H4  UNL     1      22.336  -1.782  52.408  1.00  0.00     0.169 HD
BRANCH  22  25
HETATM   25  C6  UNL     1      20.204  -1.519  53.965  1.00  0.00     0.103 C 
BRANCH  25  26
HETATM   26  C7  UNL     1      19.101  -0.658  53.445  1.00  0.00     0.009 C 
BRANCH  26  27
HETATM   27  C8  UNL     1      17.920  -1.500  53.027  1.00  0.00     0.000 C 
BRANCH  27  28
HETATM   28  C9  UNL     1      17.123  -0.819  51.923  1.00  0.00    -0.005 C 
HETATM   29  C10 UNL     1      18.021   0.001  51.022  1.00  0.00     0.005 C 
ENDBRANCH  27  28
ENDBRANCH  26  27
ENDBRANCH  25  26
ENDBRANCH  22  25
ENDBRANCH   4  21
TORSDOF 7
ENDMDL
MODEL 9
REMARK VINA RESULT:      -7.6      1.976      7.502
REMARK  7 active torsions:
REMARK  status: ('A' for Active; 'I' for Inactive)
REMARK    1  A    between atoms: C4_4  and  N1_5 
REMARK       I    between atoms: N1_5  and  C5_6 
REMARK    2  A    between atoms: C5_6  and  C6_8 
REMARK    3  A    between atoms: C6_8  and  C7_9 
REMARK    4  A    between atoms: C7_9  and  C8_10 
REMARK    5  A    between atoms: C8_10  and  C9_11 
REMARK    6  A    between atoms: C11_13  and  N2_14 
REMARK    7  A    between atoms: N2_14  and  C12_15 
ROOT
HETATM    1  C1  UNL     1      27.467   7.051  48.391  1.00  0.00     0.023 C 
HETATM    2  C2  UNL     1      26.763   6.016  48.829  1.00  0.00    -0.041 A 
HETATM    3  C3  UNL     1      25.336   6.026  49.167  1.00  0.00     0.042 A 
HETATM    4  C4  UNL     1      24.980   4.813  49.568  1.00  0.00     0.063 A 
HETATM    5  C11 UNL     1      26.152   3.917  49.522  1.00  0.00     0.076 A 
HETATM    6  C21 UNL     1      27.173   4.641  49.089  1.00  0.00     0.043 A 
ENDROOT
BRANCH   5   7
HETATM    7  N2  UNL     1      26.201   2.522  49.872  1.00  0.00    -0.186 N 
HETATM    8  H16 UNL     1      26.096   1.784  49.166  1.00  0.00     0.184 HD
BRANCH   7   9
HETATM    9  C12 UNL     1      26.400   2.082  51.231  1.00  0.00     0.727 A 
HETATM   10  N3  UNL     1      27.493   2.391  51.942  1.00  0.00    -0.075 NA
HETATM   11  C13 UNL     1      27.607   1.944  53.206  1.00  0.00     0.139 A 
HETATM   12  C14 UNL     1      26.623   1.173  53.785  1.00  0.00     0.053 A 
HETATM   13  C15 UNL     1      25.501   0.857  53.053  1.00  0.00     0.089 A 
HETATM   14  C16 UNL     1      24.409   0.056  53.560  1.00  0.00     0.011 A 
HETATM   15  N5  UNL     1      25.415   1.319  51.793  1.00  0.00    -0.062 NA
HETATM   16  C17 UNL     1      23.341  -0.187  52.715  1.00  0.00     0.017 A 
HETATM   17  C20 UNL     1      24.373  -0.477  54.831  1.00  0.00     0.130 A 
HETATM   18  C18 UNL     1      22.256  -0.956  53.151  1.00  0.00     0.020 A 
HETATM   19  C19 UNL     1      22.275  -1.459  54.425  1.00  0.00     0.116 A 
HETATM   20  N4  UNL     1      23.334  -1.206  55.232  1.00  0.00    -0.272 NA
ENDBRANCH   7   9
ENDBRANCH   5   7
BRANCH   4  21
HETATM   21  N1  UNL     1      23.651   4.436  49.985  1.00  0.00    -0.325 N 
HETATM   22  C5  UNL     1      23.253   4.759  51.310  1.00  0.00     0.222 C 
HETATM   23  O1  UNL     1      23.818   5.334  52.274  1.00  0.00    -0.273 OA
HETATM   24  H4  UNL     1      22.956   3.943  49.387  1.00  0.00     0.169 HD
BRANCH  22  25
HETATM   25  C6  UNL     1      21.897   4.390  51.777  1.00  0.00     0.103 C 
BRANCH  25  26
HETATM   26  C7  UNL     1      21.794   2.956  52.181  1.00  0.00     0.009 C 
BRANCH  26  27
HETATM   27  C8  UNL     1      20.588   2.308  51.545  1.00  0.00     0.000 C 
BRANCH  27  28
HETATM   28  C9  UNL     1      20.755   2.198  50.036  1.00  0.00    -0.005 C 
HETATM   29  C10 UNL     1      21.483   0.927  49.654  1.00  0.00     0.005 C 
ENDBRANCH  27  28
ENDBRANCH  26  27
ENDBRANCH  25  26
ENDBRANCH  22  25
ENDBRANCH   4  21
TORSDOF 7
ENDMDL
