MODEL 1
REMARK VINA RESULT:      -7.5      0.000      0.000
REMARK  8 active torsions:
REMARK  status: ('A' for Active; 'I' for Inactive)
REMARK    1  A    between atoms: C2_2  and  C3_3 
REMARK    2  A    between atoms: C3_3  and  C4_5 
REMARK    3  A    between atoms: C4_5  and  N1_6 
REMARK    4  A    between atoms: C5_7  and  C6_8 
REMARK    5  A    between atoms: C6_8  and  N2_9 
REMARK    6  A    between atoms: N2_9  and  C7_10 
REMARK    7  A    between atoms: C9_13  and  C10_14 
REMARK    8  A    between atoms: N4_16  and  S1_17 
ROOT
HETATM    1  C7  UNL     1      24.152   3.876  51.434  1.00  0.00     0.718 A 
HETATM    2  N3  UNL     1      23.366   4.844  51.716  1.00  0.00    -0.100 NA
HETATM    3  C8  UNL     1      22.095   4.264  52.171  1.00  0.00     0.229 A 
HETATM    4  C9  UNL     1      22.295   2.795  52.100  1.00  0.00     0.086 A 
HETATM    5  N5  UNL     1      23.523   2.641  51.660  1.00  0.00    -0.065 NA
ENDROOT
BRANCH   1   6
HETATM    6  N2  UNL     1      25.509   3.950  50.949  1.00  0.00    -0.219 N 
HETATM    7  H9  UNL     1      25.943   4.889  50.729  1.00  0.00     0.178 HD
BRANCH   6   8
HETATM    8  C6  UNL     1      26.252   2.716  50.774  1.00  0.00     0.167 C 
BRANCH   8   9
HETATM    9  C5  UNL     1      27.129   2.367  51.882  1.00  0.00     0.026 C 
HETATM   10  C4  UNL     1      27.232   1.423  52.815  1.00  0.00     0.070 C 
BRANCH  10  11
HETATM   11  C3  UNL     1      28.325   1.463  53.774  1.00  0.00     0.175 C 
HETATM   12  O1  UNL     1      28.650   2.632  54.178  1.00  0.00    -0.291 OA
BRANCH  11  13
HETATM   13  C2  UNL     1      29.023   0.287  54.264  1.00  0.00     0.046 C 
HETATM   14  C1  UNL     1      29.737  -0.584  53.564  1.00  0.00     0.047 C 
ENDBRANCH  11  13
ENDBRANCH  10  11
BRANCH  10  15
HETATM   15  N1  UNL     1      26.110   0.627  52.502  1.00  0.00    -0.396 N 
HETATM   16  H4  UNL     1      25.856  -0.142  53.127  1.00  0.00     0.156 HD
HETATM   17  H5  UNL     1      25.719   1.020  51.602  1.00  0.00     0.156 HD
ENDBRANCH  10  15
ENDBRANCH   8   9
ENDBRANCH   6   8
ENDBRANCH   1   6
BRANCH   4  18
HETATM   18  C10 UNL     1      21.440   1.659  52.409  1.00  0.00     0.020 A 
HETATM   19  C11 UNL     1      20.152   1.465  51.950  1.00  0.00     0.119 A 
HETATM   20  N4  UNL     1      19.660   0.317  52.430  1.00  0.00    -0.297 N 
HETATM   21  C12 UNL     1      20.592  -0.263  53.200  1.00  0.00     0.056 A 
HETATM   22  C13 UNL     1      20.509  -1.438  53.880  1.00  0.00     0.031 A 
HETATM   23  C17 UNL     1      21.700   0.558  53.197  1.00  0.00     0.005 A 
HETATM   24  C14 UNL     1      21.598  -1.841  54.612  1.00  0.00     0.002 A 
HETATM   25  C15 UNL     1      22.720  -1.041  54.627  1.00  0.00     0.001 A 
HETATM   26  C16 UNL     1      22.803   0.170  53.927  1.00  0.00     0.014 A 
BRANCH  20  27
HETATM   27  S1  UNL     1      18.044  -0.279  52.070  1.00  0.00    -0.061 SA
HETATM   28  H13 UNL     1      17.165  -0.048  53.141  1.00  0.00     0.126 HD
ENDBRANCH  20  27
ENDBRANCH   4  18
TORSDOF 8
ENDMDL
MODEL 2
REMARK VINA RESULT:      -7.5      2.964      5.622
REMARK  8 active torsions:
REMARK  status: ('A' for Active; 'I' for Inactive)
REMARK    1  A    between atoms: C2_2  and  C3_3 
REMARK    2  A    between atoms: C3_3  and  C4_5 
REMARK    3  A    between atoms: C4_5  and  N1_6 
REMARK    4  A    between atoms: C5_7  and  C6_8 
REMARK    5  A    between atoms: C6_8  and  N2_9 
REMARK    6  A    between atoms: N2_9  and  C7_10 
REMARK    7  A    between atoms: C9_13  and  C10_14 
REMARK    8  A    between atoms: N4_16  and  S1_17 
ROOT
HETATM    1  C7  UNL     1      24.009   0.575  52.535  1.00  0.00     0.718 A 
HETATM    2  N3  UNL     1      22.782   0.539  52.176  1.00  0.00    -0.100 NA
HETATM    3  C8  UNL     1      22.487   1.799  51.481  1.00  0.00     0.229 A 
HETATM    4  C9  UNL     1      23.762   2.560  51.506  1.00  0.00     0.086 A 
HETATM    5  N5  UNL     1      24.609   1.781  52.139  1.00  0.00    -0.065 NA
ENDROOT
BRANCH   1   6
HETATM    6  N2  UNL     1      24.753  -0.435  53.247  1.00  0.00    -0.219 N 
HETATM    7  H9  UNL     1      24.830  -1.414  52.853  1.00  0.00     0.178 HD
BRANCH   6   8
HETATM    8  C6  UNL     1      25.385  -0.077  54.504  1.00  0.00     0.167 C 
BRANCH   8   9
HETATM    9  C5  UNL     1      26.801   0.246  54.406  1.00  0.00     0.026 C 
HETATM   10  C4  UNL     1      27.571   1.321  54.255  1.00  0.00     0.070 C 
BRANCH  10  11
HETATM   11  C3  UNL     1      29.019   1.179  54.207  1.00  0.00     0.175 C 
HETATM   12  O1  UNL     1      29.669   2.009  54.930  1.00  0.00    -0.291 OA
BRANCH  11  13
HETATM   13  C2  UNL     1      29.714   0.182  53.411  1.00  0.00     0.046 C 
HETATM   14  C1  UNL     1      30.060  -1.047  53.769  1.00  0.00     0.047 C 
ENDBRANCH  11  13
ENDBRANCH  10  11
BRANCH  10  15
HETATM   15  N1  UNL     1      26.592   2.334  54.186  1.00  0.00    -0.396 N 
HETATM   16  H4  UNL     1      26.263   2.768  55.052  1.00  0.00     0.156 HD
HETATM   17  H5  UNL     1      26.374   2.455  53.159  1.00  0.00     0.156 HD
ENDBRANCH  10  15
ENDBRANCH   8   9
ENDBRANCH   6   8
ENDBRANCH   1   6
BRANCH   4  18
HETATM   18  C10 UNL     1      24.151   3.865  50.995  1.00  0.00     0.020 A 
HETATM   19  C11 UNL     1      23.471   5.050  51.197  1.00  0.00     0.119 A 
HETATM   20  N4  UNL     1      24.107   6.056  50.585  1.00  0.00    -0.297 N 
HETATM   21  C12 UNL     1      25.200   5.570  49.979  1.00  0.00     0.056 A 
HETATM   22  C13 UNL     1      26.126   6.246  49.248  1.00  0.00     0.031 A 
HETATM   23  C17 UNL     1      25.240   4.214  50.224  1.00  0.00     0.005 A 
HETATM   24  C14 UNL     1      27.174   5.536  48.716  1.00  0.00     0.002 A 
HETATM   25  C15 UNL     1      27.240   4.179  48.944  1.00  0.00     0.001 A 
HETATM   26  C16 UNL     1      26.285   3.485  49.697  1.00  0.00     0.014 A 
BRANCH  20  27
HETATM   27  S1  UNL     1      23.548   7.724  50.612  1.00  0.00    -0.061 SA
HETATM   28  H13 UNL     1      24.176   8.489  49.615  1.00  0.00     0.126 HD
ENDBRANCH  20  27
ENDBRANCH   4  18
TORSDOF 8
ENDMDL
MODEL 3
REMARK VINA RESULT:      -7.5      3.397      5.065
REMARK  8 active torsions:
REMARK  status: ('A' for Active; 'I' for Inactive)
REMARK    1  A    between atoms: C2_2  and  C3_3 
REMARK    2  A    between atoms: C3_3  and  C4_5 
REMARK    3  A    between atoms: C4_5  and  N1_6 
REMARK    4  A    between atoms: C5_7  and  C6_8 
REMARK    5  A    between atoms: C6_8  and  N2_9 
REMARK    6  A    between atoms: N2_9  and  C7_10 
REMARK    7  A    between atoms: C9_13  and  C10_14 
REMARK    8  A    between atoms: N4_16  and  S1_17 
ROOT
HETATM    1  C7  UNL     1      23.459   5.514  51.667  1.00  0.00     0.718 A 
HETATM    2  N3  UNL     1      22.515   5.251  50.846  1.00  0.00    -0.100 NA
HETATM    3  C8  UNL     1      22.240   3.811  50.933  1.00  0.00     0.229 A 
HETATM    4  C9  UNL     1      23.193   3.299  51.949  1.00  0.00     0.086 A 
HETATM    5  N5  UNL     1      23.875   4.352  52.336  1.00  0.00    -0.065 NA
ENDROOT
BRANCH   1   6
HETATM    6  N2  UNL     1      24.070   6.793  51.934  1.00  0.00    -0.219 N 
HETATM    7  H9  UNL     1      24.392   7.033  52.913  1.00  0.00     0.178 HD
BRANCH   6   8
HETATM    8  C6  UNL     1      24.228   7.730  50.837  1.00  0.00     0.167 C 
BRANCH   8   9
HETATM    9  C5  UNL     1      25.212   7.341  49.838  1.00  0.00     0.026 C 
HETATM   10  C4  UNL     1      26.495   7.562  49.562  1.00  0.00     0.070 C 
BRANCH  10  11
HETATM   11  C3  UNL     1      27.109   6.936  48.400  1.00  0.00     0.175 C 
HETATM   12  O1  UNL     1      27.014   7.602  47.312  1.00  0.00    -0.291 OA
BRANCH  11  13
HETATM   13  C2  UNL     1      27.789   5.654  48.429  1.00  0.00     0.046 C 
HETATM   14  C1  UNL     1      27.326   4.498  48.887  1.00  0.00     0.047 C 
ENDBRANCH  11  13
ENDBRANCH  10  11
BRANCH  10  15
HETATM   15  N1  UNL     1      26.843   8.427  50.621  1.00  0.00    -0.396 N 
HETATM   16  H4  UNL     1      26.141   8.654  51.329  1.00  0.00     0.156 HD
HETATM   17  H5  UNL     1      27.853   8.691  50.458  1.00  0.00     0.156 HD
ENDBRANCH  10  15
ENDBRANCH   8   9
ENDBRANCH   6   8
ENDBRANCH   1   6
BRANCH   4  18
HETATM   18  C10 UNL     1      23.440   1.976  52.502  1.00  0.00     0.020 A 
HETATM   19  C11 UNL     1      22.535   1.210  53.211  1.00  0.00     0.119 A 
HETATM   20  N4  UNL     1      23.094   0.049  53.570  1.00  0.00    -0.297 N 
HETATM   21  C12 UNL     1      24.356   0.020  53.116  1.00  0.00     0.056 A 
HETATM   22  C13 UNL     1      25.277  -0.970  53.258  1.00  0.00     0.031 A 
HETATM   23  C17 UNL     1      24.584   1.207  52.453  1.00  0.00     0.005 A 
HETATM   24  C14 UNL     1      26.520  -0.782  52.705  1.00  0.00     0.002 A 
HETATM   25  C15 UNL     1      26.777   0.395  52.036  1.00  0.00     0.001 A 
HETATM   26  C16 UNL     1      25.827   1.414  51.892  1.00  0.00     0.014 A 
BRANCH  20  27
HETATM   27  S1  UNL     1      22.256  -1.196  54.489  1.00  0.00    -0.061 SA
HETATM   28  H13 UNL     1      23.160  -2.007  55.193  1.00  0.00     0.126 HD
ENDBRANCH  20  27
ENDBRANCH   4  18
TORSDOF 8
ENDMDL
MODEL 4
REMARK VINA RESULT:      -7.4      3.966      6.869
REMARK  8 active torsions:
REMARK  status: ('A' for Active; 'I' for Inactive)
REMARK    1  A    between atoms: C2_2  and  C3_3 
REMARK    2  A    between atoms: C3_3  and  C4_5 
REMARK    3  A    between atoms: C4_5  and  N1_6 
REMARK    4  A    between atoms: C5_7  and  C6_8 
REMARK    5  A    between atoms: C6_8  and  N2_9 
REMARK    6  A    between atoms: N2_9  and  C7_10 
REMARK    7  A    between atoms: C9_13  and  C10_14 
REMARK    8  A    between atoms: N4_16  and  S1_17 
ROOT
HETATM    1  C7  UNL     1      24.072   2.550  50.973  1.00  0.00     0.718 A 
HETATM    2  N3  UNL     1      23.229   2.292  50.046  1.00  0.00    -0.100 NA
HETATM    3  C8  UNL     1      23.391   3.315  49.004  1.00  0.00     0.229 A 
HETATM    4  C9  UNL     1      24.475   4.200  49.499  1.00  0.00     0.086 A 
HETATM    5  N5  UNL     1      24.825   3.691  50.658  1.00  0.00    -0.065 NA
ENDROOT
BRANCH   1   6
HETATM    6  N2  UNL     1      24.286   1.823  52.201  1.00  0.00    -0.219 N 
HETATM    7  H9  UNL     1      23.958   0.822  52.289  1.00  0.00     0.178 HD
BRANCH   6   8
HETATM    8  C6  UNL     1      24.956   2.496  53.299  1.00  0.00     0.167 C 
BRANCH   8   9
HETATM    9  C5  UNL     1      26.228   1.908  53.692  1.00  0.00     0.026 C 
HETATM   10  C4  UNL     1      27.502   1.934  53.307  1.00  0.00     0.070 C 
BRANCH  10  11
HETATM   11  C3  UNL     1      28.496   1.150  54.024  1.00  0.00     0.175 C 
HETATM   12  O1  UNL     1      29.198   1.807  54.868  1.00  0.00    -0.291 OA
BRANCH  11  13
HETATM   13  C2  UNL     1      28.709  -0.273  53.828  1.00  0.00     0.046 C 
HETATM   14  C1  UNL     1      29.837  -0.889  53.500  1.00  0.00     0.047 C 
ENDBRANCH  11  13
ENDBRANCH  10  11
BRANCH  10  15
HETATM   15  N1  UNL     1      27.422   2.817  52.209  1.00  0.00    -0.396 N 
HETATM   16  H4  UNL     1      27.931   2.592  51.352  1.00  0.00     0.156 HD
HETATM   17  H5  UNL     1      26.794   3.608  52.521  1.00  0.00     0.156 HD
ENDBRANCH  10  15
ENDBRANCH   8   9
ENDBRANCH   6   8
ENDBRANCH   1   6
BRANCH   4  18
HETATM   18  C10 UNL     1      25.116   5.387  48.955  1.00  0.00     0.020 A 
HETATM   19  C11 UNL     1      24.487   6.574  48.634  1.00  0.00     0.119 A 
HETATM   20  N4  UNL     1      25.376   7.453  48.157  1.00  0.00    -0.297 N 
HETATM   21  C12 UNL     1      26.588   6.880  48.151  1.00  0.00     0.056 A 
HETATM   22  C13 UNL     1      27.770   7.417  47.746  1.00  0.00     0.031 A 
HETATM   23  C17 UNL     1      26.442   5.599  48.642  1.00  0.00     0.005 A 
HETATM   24  C14 UNL     1      28.897   6.639  47.830  1.00  0.00     0.002 A 
HETATM   25  C15 UNL     1      28.782   5.354  48.317  1.00  0.00     0.001 A 
HETATM   26  C16 UNL     1      27.564   4.803  48.733  1.00  0.00     0.014 A 
BRANCH  20  27
HETATM   27  S1  UNL     1      24.957   9.081  47.638  1.00  0.00    -0.061 SA
HETATM   28  H13 UNL     1      25.799   9.520  46.604  1.00  0.00     0.126 HD
ENDBRANCH  20  27
ENDBRANCH   4  18
TORSDOF 8
ENDMDL
MODEL 5
REMARK VINA RESULT:      -7.4      3.427      4.899
REMARK  8 active torsions:
REMARK  status: ('A' for Active; 'I' for Inactive)
REMARK    1  A    between atoms: C2_2  and  C3_3 
REMARK    2  A    between atoms: C3_3  and  C4_5 
REMARK    3  A    between atoms: C4_5  and  N1_6 
REMARK    4  A    between atoms: C5_7  and  C6_8 
REMARK    5  A    between atoms: C6_8  and  N2_9 
REMARK    6  A    between atoms: N2_9  and  C7_10 
REMARK    7  A    between atoms: C9_13  and  C10_14 
REMARK    8  A    between atoms: N4_16  and  S1_17 
ROOT
HETATM    1  C7  UNL     1      23.387   5.529  51.886  1.00  0.00     0.718 A 
HETATM    2  N3  UNL     1      22.295   5.331  51.250  1.00  0.00    -0.100 NA
HETATM    3  C8  UNL     1      21.960   3.907  51.378  1.00  0.00     0.229 A 
HETATM    4  C9  UNL     1      23.052   3.327  52.200  1.00  0.00     0.086 A 
HETATM    5  N5  UNL     1      23.852   4.336  52.461  1.00  0.00    -0.065 NA
ENDROOT
BRANCH   1   6
HETATM    6  N2  UNL     1      24.107   6.769  52.044  1.00  0.00    -0.219 N 
HETATM    7  H9  UNL     1      24.550   7.011  52.974  1.00  0.00     0.178 HD
BRANCH   6   8
HETATM    8  C6  UNL     1      24.206   7.665  50.906  1.00  0.00     0.167 C 
BRANCH   8   9
HETATM    9  C5  UNL     1      25.181   7.270  49.900  1.00  0.00     0.026 C 
HETATM   10  C4  UNL     1      26.454   7.508  49.597  1.00  0.00     0.070 C 
BRANCH  10  11
HETATM   11  C3  UNL     1      27.061   6.865  48.440  1.00  0.00     0.175 C 
HETATM   12  O1  UNL     1      27.006   7.539  47.355  1.00  0.00    -0.291 OA
BRANCH  11  13
HETATM   13  C2  UNL     1      27.691   5.558  48.472  1.00  0.00     0.046 C 
HETATM   14  C1  UNL     1      27.199   4.430  48.967  1.00  0.00     0.047 C 
ENDBRANCH  11  13
ENDBRANCH  10  11
BRANCH  10  15
HETATM   15  N1  UNL     1      26.803   8.406  50.628  1.00  0.00    -0.396 N 
HETATM   16  H4  UNL     1      27.753   8.386  51.005  1.00  0.00     0.156 HD
HETATM   17  H5  UNL     1      25.933   8.973  50.822  1.00  0.00     0.156 HD
ENDBRANCH  10  15
ENDBRANCH   8   9
ENDBRANCH   6   8
ENDBRANCH   1   6
BRANCH   4  18
HETATM   18  C10 UNL     1      23.322   1.985  52.691  1.00  0.00     0.020 A 
HETATM   19  C11 UNL     1      24.561   1.381  52.762  1.00  0.00     0.119 A 
HETATM   20  N4  UNL     1      24.445   0.145  53.262  1.00  0.00    -0.297 N 
HETATM   21  C12 UNL     1      23.152  -0.092  53.528  1.00  0.00     0.056 A 
HETATM   22  C13 UNL     1      22.592  -1.219  54.044  1.00  0.00     0.031 A 
HETATM   23  C17 UNL     1      22.444   1.039  53.178  1.00  0.00     0.005 A 
HETATM   24  C14 UNL     1      21.233  -1.238  54.234  1.00  0.00     0.002 A 
HETATM   25  C15 UNL     1      20.499  -0.122  53.893  1.00  0.00     0.001 A 
HETATM   26  C16 UNL     1      21.078   1.037  53.361  1.00  0.00     0.014 A 
BRANCH  20  27
HETATM   27  S1  UNL     1      25.806  -0.942  53.506  1.00  0.00    -0.061 SA
HETATM   28  H13 UNL     1      26.988  -0.230  53.765  1.00  0.00     0.126 HD
ENDBRANCH  20  27
ENDBRANCH   4  18
TORSDOF 8
ENDMDL
MODEL 6
REMARK VINA RESULT:      -7.2      2.444      4.028
REMARK  8 active torsions:
REMARK  status: ('A' for Active; 'I' for Inactive)
REMARK    1  A    between atoms: C2_2  and  C3_3 
REMARK    2  A    between atoms: C3_3  and  C4_5 
REMARK    3  A    between atoms: C4_5  and  N1_6 
REMARK    4  A    between atoms: C5_7  and  C6_8 
REMARK    5  A    between atoms: C6_8  and  N2_9 
REMARK    6  A    between atoms: N2_9  and  C7_10 
REMARK    7  A    between atoms: C9_13  and  C10_14 
REMARK    8  A    between atoms: N4_16  and  S1_17 
ROOT
HETATM    1  C7  UNL     1      23.250  -0.862  54.395  1.00  0.00     0.718 A 
HETATM    2  N3  UNL     1      22.519  -1.630  55.110  1.00  0.00    -0.100 NA
HETATM    3  C8  UNL     1      21.152  -1.562  54.578  1.00  0.00     0.229 A 
HETATM    4  C9  UNL     1      21.232  -0.621  53.433  1.00  0.00     0.086 A 
HETATM    5  N5  UNL     1      22.491  -0.251  53.385  1.00  0.00    -0.065 NA
ENDROOT
BRANCH   1   6
HETATM    6  N2  UNL     1      24.662  -0.603  54.534  1.00  0.00    -0.219 N 
HETATM    7  H9  UNL     1      25.156  -0.830  55.441  1.00  0.00     0.178 HD
BRANCH   6   8
HETATM    8  C6  UNL     1      25.378  -0.031  53.408  1.00  0.00     0.167 C 
BRANCH   8   9
HETATM    9  C5  UNL     1      26.766   0.313  53.677  1.00  0.00     0.026 C 
HETATM   10  C4  UNL     1      27.495   1.396  53.937  1.00  0.00     0.070 C 
BRANCH  10  11
HETATM   11  C3  UNL     1      28.929   1.275  54.153  1.00  0.00     0.175 C 
HETATM   12  O1  UNL     1      29.421   2.098  54.999  1.00  0.00    -0.291 OA
BRANCH  11  13
HETATM   13  C2  UNL     1      29.776   0.308  53.478  1.00  0.00     0.046 C 
HETATM   14  C1  UNL     1      29.973  -0.964  53.801  1.00  0.00     0.047 C 
ENDBRANCH  11  13
ENDBRANCH  10  11
BRANCH  10  15
HETATM   15  N1  UNL     1      26.496   2.393  53.906  1.00  0.00    -0.396 N 
HETATM   16  H4  UNL     1      25.937   2.511  53.058  1.00  0.00     0.156 HD
HETATM   17  H5  UNL     1      26.527   2.861  54.853  1.00  0.00     0.156 HD
ENDBRANCH  10  15
ENDBRANCH   8   9
ENDBRANCH   6   8
ENDBRANCH   1   6
BRANCH   4  18
HETATM   18  C10 UNL     1      20.247  -0.123  52.485  1.00  0.00     0.020 A 
HETATM   19  C11 UNL     1      20.482   0.790  51.475  1.00  0.00     0.119 A 
HETATM   20  N4  UNL     1      19.354   1.024  50.794  1.00  0.00    -0.297 N 
HETATM   21  C12 UNL     1      18.368   0.287  51.325  1.00  0.00     0.056 A 
HETATM   22  C13 UNL     1      17.066   0.222  50.940  1.00  0.00     0.031 A 
HETATM   23  C17 UNL     1      18.906  -0.428  52.374  1.00  0.00     0.005 A 
HETATM   24  C14 UNL     1      16.225  -0.610  51.636  1.00  0.00     0.002 A 
HETATM   25  C15 UNL     1      16.735  -1.338  52.690  1.00  0.00     0.001 A 
HETATM   26  C16 UNL     1      18.077  -1.269  53.086  1.00  0.00     0.014 A 
BRANCH  20  27
HETATM   27  S1  UNL     1      19.249   2.132  49.431  1.00  0.00    -0.061 SA
HETATM   28  H13 UNL     1      18.162   1.818  48.600  1.00  0.00     0.126 HD
ENDBRANCH  20  27
ENDBRANCH   4  18
TORSDOF 8
ENDMDL
MODEL 7
REMARK VINA RESULT:      -6.9      3.531      4.950
REMARK  8 active torsions:
REMARK  status: ('A' for Active; 'I' for Inactive)
REMARK    1  A    between atoms: C2_2  and  C3_3 
REMARK    2  A    between atoms: C3_3  and  C4_5 
REMARK    3  A    between atoms: C4_5  and  N1_6 
REMARK    4  A    between atoms: C5_7  and  C6_8 
REMARK    5  A    between atoms: C6_8  and  N2_9 
REMARK    6  A    between atoms: N2_9  and  C7_10 
REMARK    7  A    between atoms: C9_13  and  C10_14 
REMARK    8  A    between atoms: N4_16  and  S1_17 
ROOT
HETATM    1  C7  UNL     1      26.281   2.913  50.982  1.00  0.00     0.718 A 
HETATM    2  N3  UNL     1      26.990   2.030  51.576  1.00  0.00    -0.100 NA
HETATM    3  C8  UNL     1      26.072   1.034  52.144  1.00  0.00     0.229 A 
HETATM    4  C9  UNL     1      24.715   1.504  51.769  1.00  0.00     0.086 A 
HETATM    5  N5  UNL     1      24.915   2.610  51.090  1.00  0.00    -0.065 NA
ENDROOT
BRANCH   1   6
HETATM    6  N2  UNL     1      26.738   4.085  50.275  1.00  0.00    -0.219 N 
HETATM    7  H9  UNL     1      27.769   4.222  50.086  1.00  0.00     0.178 HD
BRANCH   6   8
HETATM    8  C6  UNL     1      25.754   5.058  49.836  1.00  0.00     0.167 C 
BRANCH   8   9
HETATM    9  C5  UNL     1      26.289   6.147  49.032  1.00  0.00     0.026 C 
HETATM   10  C4  UNL     1      26.657   7.416  49.189  1.00  0.00     0.070 C 
BRANCH  10  11
HETATM   11  C3  UNL     1      27.163   8.174  48.054  1.00  0.00     0.175 C 
HETATM   12  O1  UNL     1      26.619   9.318  47.879  1.00  0.00    -0.291 OA
BRANCH  11  13
HETATM   13  C2  UNL     1      28.208   7.704  47.161  1.00  0.00     0.046 C 
HETATM   14  C1  UNL     1      29.365   7.144  47.487  1.00  0.00     0.047 C 
ENDBRANCH  11  13
ENDBRANCH  10  11
BRANCH  10  15
HETATM   15  N1  UNL     1      26.393   7.595  50.563  1.00  0.00    -0.396 N 
HETATM   16  H4  UNL     1      26.929   8.291  51.087  1.00  0.00     0.156 HD
HETATM   17  H5  UNL     1      25.623   6.911  50.800  1.00  0.00     0.156 HD
ENDBRANCH  10  15
ENDBRANCH   8   9
ENDBRANCH   6   8
ENDBRANCH   1   6
BRANCH   4  18
HETATM   18  C10 UNL     1      23.379   0.982  52.013  1.00  0.00     0.020 A 
HETATM   19  C11 UNL     1      22.254   1.246  51.257  1.00  0.00     0.119 A 
HETATM   20  N4  UNL     1      21.196   0.603  51.764  1.00  0.00    -0.297 N 
HETATM   21  C12 UNL     1      21.588  -0.087  52.844  1.00  0.00     0.056 A 
HETATM   22  C13 UNL     1      20.835  -0.876  53.657  1.00  0.00     0.031 A 
HETATM   23  C17 UNL     1      22.938   0.138  53.011  1.00  0.00     0.005 A 
HETATM   24  C14 UNL     1      21.454  -1.493  54.715  1.00  0.00     0.002 A 
HETATM   25  C15 UNL     1      22.803  -1.286  54.907  1.00  0.00     0.001 A 
HETATM   26  C16 UNL     1      23.577  -0.473  54.069  1.00  0.00     0.014 A 
BRANCH  20  27
HETATM   27  S1  UNL     1      19.578   0.692  51.076  1.00  0.00    -0.061 SA
HETATM   28  H13 UNL     1      18.616   0.196  51.971  1.00  0.00     0.126 HD
ENDBRANCH  20  27
ENDBRANCH   4  18
TORSDOF 8
ENDMDL
MODEL 8
REMARK VINA RESULT:      -6.7      4.811      7.967
REMARK  8 active torsions:
REMARK  status: ('A' for Active; 'I' for Inactive)
REMARK    1  A    between atoms: C2_2  and  C3_3 
REMARK    2  A    between atoms: C3_3  and  C4_5 
REMARK    3  A    between atoms: C4_5  and  N1_6 
REMARK    4  A    between atoms: C5_7  and  C6_8 
REMARK    5  A    between atoms: C6_8  and  N2_9 
REMARK    6  A    between atoms: N2_9  and  C7_10 
REMARK    7  A    between atoms: C9_13  and  C10_14 
REMARK    8  A    between atoms: N4_16  and  S1_17 
ROOT
HETATM    1  C7  UNL     1      24.721   3.471  50.724  1.00  0.00     0.718 A 
HETATM    2  N3  UNL     1      23.779   4.218  50.287  1.00  0.00    -0.100 NA
HETATM    3  C8  UNL     1      24.384   5.223  49.403  1.00  0.00     0.229 A 
HETATM    4  C9  UNL     1      25.837   4.917  49.411  1.00  0.00     0.086 A 
HETATM    5  N5  UNL     1      25.960   3.879  50.205  1.00  0.00    -0.065 NA
ENDROOT
BRANCH   1   6
HETATM    6  N2  UNL     1      24.616   2.346  51.621  1.00  0.00    -0.219 N 
HETATM    7  H9  UNL     1      24.310   1.402  51.255  1.00  0.00     0.178 HD
BRANCH   6   8
HETATM    8  C6  UNL     1      24.937   2.543  53.023  1.00  0.00     0.167 C 
BRANCH   8   9
HETATM    9  C5  UNL     1      25.958   1.649  53.548  1.00  0.00     0.026 C 
HETATM   10  C4  UNL     1      27.283   1.532  53.539  1.00  0.00     0.070 C 
BRANCH  10  11
HETATM   11  C3  UNL     1      27.922   0.423  54.231  1.00  0.00     0.175 C 
HETATM   12  O1  UNL     1      27.189  -0.173  55.093  1.00  0.00    -0.291 OA
BRANCH  11  13
HETATM   13  C2  UNL     1      29.288  -0.008  53.992  1.00  0.00     0.046 C 
HETATM   14  C1  UNL     1      29.702  -1.184  53.539  1.00  0.00     0.047 C 
ENDBRANCH  11  13
ENDBRANCH  10  11
BRANCH  10  15
HETATM   15  N1  UNL     1      27.637   2.660  52.768  1.00  0.00    -0.396 N 
HETATM   16  H4  UNL     1      28.616   2.955  52.738  1.00  0.00     0.156 HD
HETATM   17  H5  UNL     1      26.738   3.007  52.336  1.00  0.00     0.156 HD
ENDBRANCH  10  15
ENDBRANCH   8   9
ENDBRANCH   6   8
ENDBRANCH   1   6
BRANCH   4  18
HETATM   18  C10 UNL     1      26.983   5.521  48.751  1.00  0.00     0.020 A 
HETATM   19  C11 UNL     1      28.261   5.000  48.705  1.00  0.00     0.119 A 
HETATM   20  N4  UNL     1      29.068   5.815  48.016  1.00  0.00    -0.297 N 
HETATM   21  C12 UNL     1      28.357   6.872  47.597  1.00  0.00     0.056 A 
HETATM   22  C13 UNL     1      28.784   7.936  46.866  1.00  0.00     0.031 A 
HETATM   23  C17 UNL     1      27.064   6.704  48.046  1.00  0.00     0.005 A 
HETATM   24  C14 UNL     1      27.872   8.912  46.549  1.00  0.00     0.002 A 
HETATM   25  C15 UNL     1      26.571   8.771  46.984  1.00  0.00     0.001 A 
HETATM   26  C16 UNL     1      26.134   7.674  47.737  1.00  0.00     0.014 A 
BRANCH  20  27
HETATM   27  S1  UNL     1      30.776   5.494  47.739  1.00  0.00    -0.061 SA
HETATM   28  H13 UNL     1      31.342   6.448  46.879  1.00  0.00     0.126 HD
ENDBRANCH  20  27
ENDBRANCH   4  18
TORSDOF 8
ENDMDL
MODEL 9
REMARK VINA RESULT:      -6.7      6.501      9.956
REMARK  8 active torsions:
REMARK  status: ('A' for Active; 'I' for Inactive)
REMARK    1  A    between atoms: C2_2  and  C3_3 
REMARK    2  A    between atoms: C3_3  and  C4_5 
REMARK    3  A    between atoms: C4_5  and  N1_6 
REMARK    4  A    between atoms: C5_7  and  C6_8 
REMARK    5  A    between atoms: C6_8  and  N2_9 
REMARK    6  A    between atoms: N2_9  and  C7_10 
REMARK    7  A    between atoms: C9_13  and  C10_14 
REMARK    8  A    between atoms: N4_16  and  S1_17 
ROOT
HETATM    1  C7  UNL     1      27.418   5.480  48.577  1.00  0.00     0.718 A 
HETATM    2  N3  UNL     1      27.312   6.650  48.071  1.00  0.00    -0.100 NA
HETATM    3  C8  UNL     1      28.661   7.095  47.698  1.00  0.00     0.229 A 
HETATM    4  C9  UNL     1      29.555   5.973  48.080  1.00  0.00     0.086 A 
HETATM    5  N5  UNL     1      28.758   5.062  48.588  1.00  0.00    -0.065 NA
ENDROOT
BRANCH   1   6
HETATM    6  N2  UNL     1      26.364   4.637  49.088  1.00  0.00    -0.219 N 
HETATM    7  H9  UNL     1      25.364   4.983  49.093  1.00  0.00     0.178 HD
BRANCH   6   8
HETATM    8  C6  UNL     1      26.709   3.319  49.587  1.00  0.00     0.167 C 
BRANCH   8   9
HETATM    9  C5  UNL     1      25.887   2.849  50.693  1.00  0.00     0.026 C 
HETATM   10  C4  UNL     1      26.036   2.500  51.968  1.00  0.00     0.070 C 
BRANCH  10  11
HETATM   11  C3  UNL     1      24.883   2.070  52.745  1.00  0.00     0.175 C 
HETATM   12  O1  UNL     1      24.143   3.015  53.186  1.00  0.00    -0.291 OA
BRANCH  11  13
HETATM   13  C2  UNL     1      24.559   0.682  53.023  1.00  0.00     0.046 C 
HETATM   14  C1  UNL     1      25.390  -0.350  53.085  1.00  0.00     0.047 C 
ENDBRANCH  11  13
ENDBRANCH  10  11
BRANCH  10  15
HETATM   15  N1  UNL     1      27.424   2.694  52.130  1.00  0.00    -0.396 N 
HETATM   16  H4  UNL     1      27.787   2.947  53.052  1.00  0.00     0.156 HD
HETATM   17  H5  UNL     1      27.852   2.523  51.179  1.00  0.00     0.156 HD
ENDBRANCH  10  15
ENDBRANCH   8   9
ENDBRANCH   6   8
ENDBRANCH   1   6
BRANCH   4  18
HETATM   18  C10 UNL     1      30.992   5.770  47.980  1.00  0.00     0.020 A 
HETATM   19  C11 UNL     1      31.968   6.663  48.377  1.00  0.00     0.119 A 
HETATM   20  N4  UNL     1      33.183   6.154  48.141  1.00  0.00    -0.297 N 
HETATM   21  C12 UNL     1      33.042   4.938  47.593  1.00  0.00     0.056 A 
HETATM   22  C13 UNL     1      34.016   4.076  47.199  1.00  0.00     0.031 A 
HETATM   23  C17 UNL     1      31.690   4.687  47.487  1.00  0.00     0.005 A 
HETATM   24  C14 UNL     1      33.637   2.872  46.659  1.00  0.00     0.002 A 
HETATM   25  C15 UNL     1      32.292   2.593  46.540  1.00  0.00     0.001 A 
HETATM   26  C16 UNL     1      31.290   3.483  46.947  1.00  0.00     0.014 A 
BRANCH  20  27
HETATM   27  S1  UNL     1      34.682   6.997  48.511  1.00  0.00    -0.061 SA
HETATM   28  H13 UNL     1      34.784   8.199  47.793  1.00  0.00     0.126 HD
ENDBRANCH  20  27
ENDBRANCH   4  18
TORSDOF 8
ENDMDL
