MODEL 1
REMARK VINA RESULT:      -9.8      0.000      0.000
REMARK  5 active torsions:
REMARK  status: ('A' for Active; 'I' for Inactive)
REMARK    1  A    between atoms: C2_2  and  C4_4 
REMARK    2  A    between atoms: C5_5  and  C6_6 
REMARK    3  A    between atoms: C6_6  and  N1_7 
REMARK    4  A    between atoms: C16_21  and  N5_22 
REMARK    5  A    between atoms: N5_22  and  C17_23 
ROOT
HETATM    1  C6  UNL     1      21.707   2.520  52.083  1.00  0.00     0.277 C 
HETATM    2  N2  UNL     1      22.862   2.986  52.846  1.00  0.00    -0.359 N 
HETATM    3  C7  UNL     1      24.019   3.416  52.131  1.00  0.00     0.091 C 
HETATM    4  C8  UNL     1      24.403   2.782  51.006  1.00  0.00    -0.034 C 
HETATM    5  C9  UNL     1      23.347   2.010  50.268  1.00  0.00     0.081 C 
HETATM    6  C10 UNL     1      21.971   2.560  50.609  1.00  0.00     0.126 C 
HETATM    7  C11 UNL     1      20.951   1.752  49.844  1.00  0.00     0.052 C 
HETATM    8  O1  UNL     1      21.850   3.910  50.143  1.00  0.00    -0.329 OA
HETATM    9  C12 UNL     1      22.516   4.338  49.001  1.00  0.00     0.252 C 
HETATM   10  N3  UNL     1      23.626   4.374  49.598  1.00  0.00    -0.248 NA
HETATM   11  C13 UNL     1      24.893   4.718  49.158  1.00  0.00     0.139 C 
HETATM   12  C14 UNL     1      25.964   4.019  49.581  1.00  0.00     0.066 C 
HETATM   13  C15 UNL     1      27.184   4.520  49.016  1.00  0.00     0.099 C 
HETATM   14  N4  UNL     1      28.177   4.911  48.573  1.00  0.00    -0.192 NA
HETATM   15  C16 UNL     1      25.818   2.845  50.525  1.00  0.00     0.158 C 
HETATM   16  H12 UNL     1      22.840   3.005  53.877  1.00  0.00     0.161 HD
ENDROOT
BRANCH  15  17
HETATM   17  N5  UNL     1      26.770   3.018  51.593  1.00  0.00    -0.377 N 
HETATM   18  H22 UNL     1      27.004   4.015  51.791  1.00  0.00     0.160 HD
BRANCH  17  19
HETATM   19  C17 UNL     1      27.408   2.038  52.387  1.00  0.00     0.030 A 
HETATM   20  C18 UNL     1      28.343   2.277  53.365  1.00  0.00     0.029 A 
HETATM   21  C19 UNL     1      28.957   1.332  54.159  1.00  0.00     0.004 A 
HETATM   22  C20 UNL     1      28.575   0.026  53.925  1.00  0.00     0.019 A 
HETATM   23  C21 UNL     1      27.646  -0.305  52.964  1.00  0.00     0.013 A 
HETATM   24 BR1  UNL     1      27.126  -2.113  52.648  1.00  0.00    -0.051 Br
HETATM   25  C22 UNL     1      27.088   0.710  52.221  1.00  0.00     0.048 A 
ENDBRANCH  17  19
ENDBRANCH  15  17
BRANCH   1  26
HETATM   26  C5  UNL     1      21.408   1.150  52.571  1.00  0.00     0.036 C 
HETATM   27  C4  UNL     1      22.194   0.309  53.272  1.00  0.00    -0.022 C 
BRANCH  27  28
HETATM   28  C2  UNL     1      22.217  -1.031  53.880  1.00  0.00    -0.000 C 
HETATM   29  C1  UNL     1      23.057  -1.100  55.136  1.00  0.00     0.013 C 
HETATM   30  C3  UNL     1      20.814  -1.526  54.220  1.00  0.00     0.013 C 
ENDBRANCH  27  28
ENDBRANCH   1  26
BRANCH   1  31
HETATM   31  N1  UNL     1      20.535   3.331  52.376  1.00  0.00     0.114 N 
HETATM   32  H10 UNL     1      20.762   4.265  52.749  1.00  0.00     0.316 HD
HETATM   33  H11 UNL     1      19.963   2.819  53.076  1.00  0.00     0.316 HD
ENDBRANCH   1  31
TORSDOF 5
ENDMDL
MODEL 2
REMARK VINA RESULT:      -9.3      2.022      5.539
REMARK  5 active torsions:
REMARK  status: ('A' for Active; 'I' for Inactive)
REMARK    1  A    between atoms: C2_2  and  C4_4 
REMARK    2  A    between atoms: C5_5  and  C6_6 
REMARK    3  A    between atoms: C6_6  and  N1_7 
REMARK    4  A    between atoms: C16_21  and  N5_22 
REMARK    5  A    between atoms: N5_22  and  C17_23 
ROOT
HETATM    1  C6  UNL     1      22.798   4.070  49.965  1.00  0.00     0.277 C 
HETATM    2  N2  UNL     1      23.374   2.744  49.749  1.00  0.00    -0.359 N 
HETATM    3  C7  UNL     1      23.159   1.742  50.741  1.00  0.00     0.091 C 
HETATM    4  C8  UNL     1      23.157   2.063  52.050  1.00  0.00    -0.034 C 
HETATM    5  C9  UNL     1      22.857   3.494  52.396  1.00  0.00     0.081 C 
HETATM    6  C10 UNL     1      22.067   4.144  51.270  1.00  0.00     0.126 C 
HETATM    7  C11 UNL     1      21.794   5.574  51.668  1.00  0.00     0.052 C 
HETATM    8  O1  UNL     1      20.789   3.511  51.134  1.00  0.00    -0.329 OA
HETATM    9  C12 UNL     1      20.132   2.973  52.234  1.00  0.00     0.252 C 
HETATM   10  N3  UNL     1      20.906   1.978  52.275  1.00  0.00    -0.248 NA
HETATM   11  C13 UNL     1      20.952   0.887  53.127  1.00  0.00     0.139 C 
HETATM   12  C14 UNL     1      22.141   0.406  53.539  1.00  0.00     0.066 C 
HETATM   13  C15 UNL     1      21.985  -0.719  54.415  1.00  0.00     0.099 C 
HETATM   14  N4  UNL     1      21.880  -1.628  55.121  1.00  0.00    -0.192 NA
HETATM   15  C16 UNL     1      23.444   1.039  53.101  1.00  0.00     0.158 C 
HETATM   16  H12 UNL     1      23.921   2.539  48.899  1.00  0.00     0.161 HD
ENDROOT
BRANCH  15  17
HETATM   17  N5  UNL     1      24.312  -0.015  52.639  1.00  0.00    -0.377 N 
HETATM   18  H22 UNL     1      23.827  -0.739  52.065  1.00  0.00     0.160 HD
BRANCH  17  19
HETATM   19  C17 UNL     1      25.698  -0.188  52.855  1.00  0.00     0.030 A 
HETATM   20  C18 UNL     1      26.382  -1.377  52.784  1.00  0.00     0.029 A 
HETATM   21  C19 UNL     1      27.737  -1.555  52.972  1.00  0.00     0.004 A 
HETATM   22  C20 UNL     1      28.449  -0.407  53.260  1.00  0.00     0.019 A 
HETATM   23  C21 UNL     1      27.844   0.826  53.352  1.00  0.00     0.013 A 
HETATM   24 BR1  UNL     1      28.837   2.406  53.751  1.00  0.00    -0.051 Br
HETATM   25  C22 UNL     1      26.485   0.902  53.147  1.00  0.00     0.048 A 
ENDBRANCH  17  19
ENDBRANCH  15  17
BRANCH   1  26
HETATM   26  C5  UNL     1      23.926   5.033  49.887  1.00  0.00     0.036 C 
HETATM   27  C4  UNL     1      25.174   4.842  49.417  1.00  0.00    -0.022 C 
BRANCH  27  28
HETATM   28  C2  UNL     1      26.458   5.529  49.204  1.00  0.00    -0.000 C 
HETATM   29  C1  UNL     1      27.546   4.611  48.693  1.00  0.00     0.013 C 
HETATM   30  C3  UNL     1      26.324   6.695  48.229  1.00  0.00     0.013 C 
ENDBRANCH  27  28
ENDBRANCH   1  26
BRANCH   1  31
HETATM   31  N1  UNL     1      21.882   4.415  48.889  1.00  0.00     0.114 N 
HETATM   32  H10 UNL     1      21.643   5.418  48.856  1.00  0.00     0.316 HD
HETATM   33  H11 UNL     1      21.011   3.867  49.028  1.00  0.00     0.316 HD
ENDBRANCH   1  31
TORSDOF 5
ENDMDL
MODEL 3
REMARK VINA RESULT:      -8.6      2.159      3.305
REMARK  5 active torsions:
REMARK  status: ('A' for Active; 'I' for Inactive)
REMARK    1  A    between atoms: C2_2  and  C4_4 
REMARK    2  A    between atoms: C5_5  and  C6_6 
REMARK    3  A    between atoms: C6_6  and  N1_7 
REMARK    4  A    between atoms: C16_21  and  N5_22 
REMARK    5  A    between atoms: N5_22  and  C17_23 
ROOT
HETATM    1  C6  UNL     1      22.012   6.049  50.804  1.00  0.00     0.277 C 
HETATM    2  N2  UNL     1      23.110   5.717  51.709  1.00  0.00    -0.359 N 
HETATM    3  C7  UNL     1      24.412   5.532  51.157  1.00  0.00     0.091 C 
HETATM    4  C8  UNL     1      24.569   4.931  49.961  1.00  0.00    -0.034 C 
HETATM    5  C9  UNL     1      23.389   4.952  49.031  1.00  0.00     0.081 C 
HETATM    6  C10 UNL     1      22.475   6.116  49.382  1.00  0.00     0.126 C 
HETATM    7  C11 UNL     1      21.311   6.091  48.421  1.00  0.00     0.052 C 
HETATM    8  O1  UNL     1      23.153   7.359  49.162  1.00  0.00    -0.329 OA
HETATM    9  C12 UNL     1      24.107   7.491  48.160  1.00  0.00     0.252 C 
HETATM   10  N3  UNL     1      24.966   6.846  48.822  1.00  0.00    -0.248 NA
HETATM   11  C13 UNL     1      26.274   6.497  48.530  1.00  0.00     0.139 C 
HETATM   12  C14 UNL     1      26.740   5.283  48.883  1.00  0.00     0.066 C 
HETATM   13  C15 UNL     1      28.109   5.105  48.495  1.00  0.00     0.099 C 
HETATM   14  N4  UNL     1      29.213   4.944  48.193  1.00  0.00    -0.192 NA
HETATM   15  C16 UNL     1      25.859   4.273  49.587  1.00  0.00     0.158 C 
HETATM   16  H12 UNL     1      22.947   5.621  52.723  1.00  0.00     0.161 HD
ENDROOT
BRANCH  15  17
HETATM   17  N5  UNL     1      26.587   3.772  50.725  1.00  0.00    -0.377 N 
HETATM   18  H22 UNL     1      27.396   4.368  51.003  1.00  0.00     0.160 HD
BRANCH  17  19
HETATM   19  C17 UNL     1      26.351   2.610  51.494  1.00  0.00     0.030 A 
HETATM   20  C18 UNL     1      25.158   1.934  51.587  1.00  0.00     0.029 A 
HETATM   21  C19 UNL     1      24.920   0.788  52.316  1.00  0.00     0.004 A 
HETATM   22  C20 UNL     1      26.007   0.296  53.012  1.00  0.00     0.019 A 
HETATM   23  C21 UNL     1      27.239   0.909  52.977  1.00  0.00     0.013 A 
HETATM   24 BR1  UNL     1      28.733   0.221  53.943  1.00  0.00    -0.051 Br
HETATM   25  C22 UNL     1      27.377   2.049  52.219  1.00  0.00     0.048 A 
ENDBRANCH  17  19
ENDBRANCH  15  17
BRANCH   1  26
HETATM   26  C5  UNL     1      20.968   5.014  51.016  1.00  0.00     0.036 C 
HETATM   27  C4  UNL     1      20.977   3.959  51.854  1.00  0.00    -0.022 C 
BRANCH  27  28
HETATM   28  C2  UNL     1      20.168   2.810  52.292  1.00  0.00    -0.000 C 
HETATM   29  C1  UNL     1      19.112   2.410  51.286  1.00  0.00     0.013 C 
HETATM   30  C3  UNL     1      21.030   1.587  52.588  1.00  0.00     0.013 C 
ENDBRANCH  27  28
ENDBRANCH   1  26
BRANCH   1  31
HETATM   31  N1  UNL     1      21.413   7.324  51.167  1.00  0.00     0.114 N 
HETATM   32  H10 UNL     1      21.760   8.117  50.607  1.00  0.00     0.316 HD
HETATM   33  H11 UNL     1      21.627   7.501  52.168  1.00  0.00     0.316 HD
ENDBRANCH   1  31
TORSDOF 5
ENDMDL
MODEL 4
REMARK VINA RESULT:      -8.5      2.558      5.223
REMARK  5 active torsions:
REMARK  status: ('A' for Active; 'I' for Inactive)
REMARK    1  A    between atoms: C2_2  and  C4_4 
REMARK    2  A    between atoms: C5_5  and  C6_6 
REMARK    3  A    between atoms: C6_6  and  N1_7 
REMARK    4  A    between atoms: C16_21  and  N5_22 
REMARK    5  A    between atoms: N5_22  and  C17_23 
ROOT
HETATM    1  C6  UNL     1      22.889   5.631  51.081  1.00  0.00     0.277 C 
HETATM    2  N2  UNL     1      22.926   4.980  52.388  1.00  0.00    -0.359 N 
HETATM    3  C7  UNL     1      23.741   3.821  52.546  1.00  0.00     0.091 C 
HETATM    4  C8  UNL     1      23.848   2.918  51.551  1.00  0.00    -0.034 C 
HETATM    5  C9  UNL     1      23.548   3.403  50.161  1.00  0.00     0.081 C 
HETATM    6  C10 UNL     1      23.744   4.910  50.085  1.00  0.00     0.126 C 
HETATM    7  C11 UNL     1      23.430   5.342  48.673  1.00  0.00     0.052 C 
HETATM    8  O1  UNL     1      25.119   5.240  50.313  1.00  0.00    -0.329 OA
HETATM    9  C12 UNL     1      26.139   4.378  49.930  1.00  0.00     0.252 C 
HETATM   10  N3  UNL     1      25.905   3.591  50.887  1.00  0.00    -0.248 NA
HETATM   11  C13 UNL     1      26.504   2.401  51.263  1.00  0.00     0.139 C 
HETATM   12  C14 UNL     1      25.749   1.383  51.721  1.00  0.00     0.066 C 
HETATM   13  C15 UNL     1      26.545   0.238  52.056  1.00  0.00     0.099 C 
HETATM   14  N4  UNL     1      27.169  -0.694  52.332  1.00  0.00    -0.192 NA
HETATM   15  C16 UNL     1      24.243   1.502  51.827  1.00  0.00     0.158 C 
HETATM   16  H12 UNL     1      22.376   5.352  53.178  1.00  0.00     0.161 HD
ENDROOT
BRANCH  15  17
HETATM   17  N5  UNL     1      23.858   1.055  53.141  1.00  0.00    -0.377 N 
HETATM   18  H22 UNL     1      24.453   1.436  53.907  1.00  0.00     0.160 HD
BRANCH  17  19
HETATM   19  C17 UNL     1      22.803   0.191  53.515  1.00  0.00     0.030 A 
HETATM   20  C18 UNL     1      22.879  -0.818  54.445  1.00  0.00     0.029 A 
HETATM   21  C19 UNL     1      21.853  -1.653  54.833  1.00  0.00     0.004 A 
HETATM   22  C20 UNL     1      20.642  -1.431  54.207  1.00  0.00     0.019 A 
HETATM   23  C21 UNL     1      20.476  -0.443  53.262  1.00  0.00     0.013 A 
HETATM   24 BR1  UNL     1      18.799  -0.144  52.403  1.00  0.00    -0.051 Br
HETATM   25  C22 UNL     1      21.561   0.340  52.942  1.00  0.00     0.048 A 
ENDBRANCH  17  19
ENDBRANCH  15  17
BRANCH   1  26
HETATM   26  C5  UNL     1      21.461   5.680  50.677  1.00  0.00     0.036 C 
HETATM   27  C4  UNL     1      20.521   4.718  50.767  1.00  0.00    -0.022 C 
BRANCH  27  28
HETATM   28  C2  UNL     1      19.104   4.442  50.482  1.00  0.00    -0.000 C 
HETATM   29  C1  UNL     1      18.889   3.734  49.164  1.00  0.00     0.013 C 
HETATM   30  C3  UNL     1      18.454   3.607  51.582  1.00  0.00     0.013 C 
ENDBRANCH  27  28
ENDBRANCH   1  26
BRANCH   1  31
HETATM   31  N1  UNL     1      23.340   7.010  51.180  1.00  0.00     0.114 N 
HETATM   32  H10 UNL     1      23.438   7.344  52.151  1.00  0.00     0.316 HD
HETATM   33  H11 UNL     1      22.646   7.606  50.688  1.00  0.00     0.316 HD
ENDBRANCH   1  31
TORSDOF 5
ENDMDL
MODEL 5
REMARK VINA RESULT:      -8.4      3.179      7.727
REMARK  5 active torsions:
REMARK  status: ('A' for Active; 'I' for Inactive)
REMARK    1  A    between atoms: C2_2  and  C4_4 
REMARK    2  A    between atoms: C5_5  and  C6_6 
REMARK    3  A    between atoms: C6_6  and  N1_7 
REMARK    4  A    between atoms: C16_21  and  N5_22 
REMARK    5  A    between atoms: N5_22  and  C17_23 
ROOT
HETATM    1  C6  UNL     1      26.397   2.261  52.846  1.00  0.00     0.277 C 
HETATM    2  N2  UNL     1      25.068   2.820  53.083  1.00  0.00    -0.359 N 
HETATM    3  C7  UNL     1      24.004   1.927  53.405  1.00  0.00     0.091 C 
HETATM    4  C8  UNL     1      23.924   0.718  52.817  1.00  0.00    -0.034 C 
HETATM    5  C9  UNL     1      25.198   0.148  52.261  1.00  0.00     0.081 C 
HETATM    6  C10 UNL     1      26.393   0.768  52.969  1.00  0.00     0.126 C 
HETATM    7  C11 UNL     1      27.642   0.163  52.375  1.00  0.00     0.052 C 
HETATM    8  O1  UNL     1      26.388   0.407  54.355  1.00  0.00    -0.329 OA
HETATM    9  C12 UNL     1      25.877  -0.814  54.778  1.00  0.00     0.252 C 
HETATM   10  N3  UNL     1      24.687  -0.432  54.611  1.00  0.00    -0.248 NA
HETATM   11  C13 UNL     1      23.480  -1.080  54.810  1.00  0.00     0.139 C 
HETATM   12  C14 UNL     1      22.469  -0.903  53.937  1.00  0.00     0.066 C 
HETATM   13  C15 UNL     1      21.306  -1.657  54.308  1.00  0.00     0.099 C 
HETATM   14  N4  UNL     1      20.359  -2.255  54.592  1.00  0.00    -0.192 NA
HETATM   15  C16 UNL     1      22.623  -0.014  52.721  1.00  0.00     0.158 C 
HETATM   16  H12 UNL     1      24.905   3.837  53.021  1.00  0.00     0.161 HD
ENDROOT
BRANCH  15  17
HETATM   17  N5  UNL     1      21.483   0.866  52.674  1.00  0.00    -0.377 N 
HETATM   18  H22 UNL     1      21.494   1.610  53.404  1.00  0.00     0.160 HD
BRANCH  17  19
HETATM   19  C17 UNL     1      20.383   0.852  51.786  1.00  0.00     0.030 A 
HETATM   20  C18 UNL     1      20.347   1.427  50.539  1.00  0.00     0.029 A 
HETATM   21  C19 UNL     1      19.288   1.403  49.656  1.00  0.00     0.004 A 
HETATM   22  C20 UNL     1      18.166   0.729  50.097  1.00  0.00     0.019 A 
HETATM   23  C21 UNL     1      18.114   0.124  51.333  1.00  0.00     0.013 A 
HETATM   24 BR1  UNL     1      16.559  -0.804  51.934  1.00  0.00    -0.051 Br
HETATM   25  C22 UNL     1      19.223   0.203  52.144  1.00  0.00     0.048 A 
ENDBRANCH  17  19
ENDBRANCH  15  17
BRANCH   1  26
HETATM   26  C5  UNL     1      26.809   2.721  51.495  1.00  0.00     0.036 C 
HETATM   27  C4  UNL     1      26.102   3.417  50.583  1.00  0.00    -0.022 C 
BRANCH  27  28
HETATM   28  C2  UNL     1      26.192   4.001  49.235  1.00  0.00    -0.000 C 
HETATM   29  C1  UNL     1      25.214   5.132  49.011  1.00  0.00     0.013 C 
HETATM   30  C3  UNL     1      27.595   4.519  48.933  1.00  0.00     0.013 C 
ENDBRANCH  27  28
ENDBRANCH   1  26
BRANCH   1  31
HETATM   31  N1  UNL     1      27.362   2.810  53.785  1.00  0.00     0.114 N 
HETATM   32  H10 UNL     1      27.401   3.841  53.781  1.00  0.00     0.316 HD
HETATM   33  H11 UNL     1      28.298   2.439  53.530  1.00  0.00     0.316 HD
ENDBRANCH   1  31
TORSDOF 5
ENDMDL
MODEL 6
REMARK VINA RESULT:      -8.3      6.507     10.409
REMARK  5 active torsions:
REMARK  status: ('A' for Active; 'I' for Inactive)
REMARK    1  A    between atoms: C2_2  and  C4_4 
REMARK    2  A    between atoms: C5_5  and  C6_6 
REMARK    3  A    between atoms: C6_6  and  N1_7 
REMARK    4  A    between atoms: C16_21  and  N5_22 
REMARK    5  A    between atoms: N5_22  and  C17_23 
ROOT
HETATM    1  C6  UNL     1      33.772   5.134  46.588  1.00  0.00     0.277 C 
HETATM    2  N2  UNL     1      32.481   5.315  45.927  1.00  0.00    -0.359 N 
HETATM    3  C7  UNL     1      31.620   6.351  46.393  1.00  0.00     0.091 C 
HETATM    4  C8  UNL     1      31.535   6.632  47.708  1.00  0.00    -0.034 C 
HETATM    5  C9  UNL     1      32.702   6.227  48.564  1.00  0.00     0.081 C 
HETATM    6  C10 UNL     1      33.955   6.110  47.709  1.00  0.00     0.126 C 
HETATM    7  C11 UNL     1      35.091   5.703  48.615  1.00  0.00     0.052 C 
HETATM    8  O1  UNL     1      34.306   7.391  47.171  1.00  0.00    -0.329 OA
HETATM    9  C12 UNL     1      34.037   8.562  47.868  1.00  0.00     0.252 C 
HETATM   10  N3  UNL     1      32.806   8.502  47.598  1.00  0.00    -0.248 NA
HETATM   11  C13 UNL     1      31.753   9.335  47.934  1.00  0.00     0.139 C 
HETATM   12  C14 UNL     1      30.556   8.808  48.259  1.00  0.00     0.066 C 
HETATM   13  C15 UNL     1      29.596   9.825  48.578  1.00  0.00     0.099 C 
HETATM   14  N4  UNL     1      28.807  10.629  48.837  1.00  0.00    -0.192 NA
HETATM   15  C16 UNL     1      30.332   7.311  48.281  1.00  0.00     0.158 C 
HETATM   16  H12 UNL     1      32.201   4.707  45.141  1.00  0.00     0.161 HD
ENDROOT
BRANCH  15  17
HETATM   17  N5  UNL     1      29.125   7.037  47.544  1.00  0.00    -0.377 N 
HETATM   18  H22 UNL     1      29.212   7.198  46.517  1.00  0.00     0.160 HD
BRANCH  17  19
HETATM   19  C17 UNL     1      27.872   6.586  48.020  1.00  0.00     0.030 A 
HETATM   20  C18 UNL     1      26.686   7.274  47.940  1.00  0.00     0.029 A 
HETATM   21  C19 UNL     1      25.455   6.836  48.382  1.00  0.00     0.004 A 
HETATM   22  C20 UNL     1      25.445   5.581  48.957  1.00  0.00     0.019 A 
HETATM   23  C21 UNL     1      26.589   4.823  49.079  1.00  0.00     0.013 A 
HETATM   24 BR1  UNL     1      26.565   3.089  49.876  1.00  0.00    -0.051 Br
HETATM   25  C22 UNL     1      27.770   5.346  48.607  1.00  0.00     0.048 A 
ENDBRANCH  17  19
ENDBRANCH  15  17
BRANCH   1  26
HETATM   26  C5  UNL     1      33.813   3.723  47.048  1.00  0.00     0.036 C 
HETATM   27  C4  UNL     1      32.992   2.703  46.728  1.00  0.00    -0.022 C 
BRANCH  27  28
HETATM   28  C2  UNL     1      32.757   1.272  46.982  1.00  0.00    -0.000 C 
HETATM   29  C1  UNL     1      32.801   0.914  48.451  1.00  0.00     0.013 C 
HETATM   30  C3  UNL     1      31.418   0.807  46.420  1.00  0.00     0.013 C 
ENDBRANCH  27  28
ENDBRANCH   1  26
BRANCH   1  31
HETATM   31  N1  UNL     1      34.863   5.294  45.639  1.00  0.00     0.114 N 
HETATM   32  H10 UNL     1      34.575   5.728  44.748  1.00  0.00     0.316 HD
HETATM   33  H11 UNL     1      35.253   4.352  45.444  1.00  0.00     0.316 HD
ENDBRANCH   1  31
TORSDOF 5
ENDMDL
MODEL 7
REMARK VINA RESULT:      -8.2      3.099      7.521
REMARK  5 active torsions:
REMARK  status: ('A' for Active; 'I' for Inactive)
REMARK    1  A    between atoms: C2_2  and  C4_4 
REMARK    2  A    between atoms: C5_5  and  C6_6 
REMARK    3  A    between atoms: C6_6  and  N1_7 
REMARK    4  A    between atoms: C16_21  and  N5_22 
REMARK    5  A    between atoms: N5_22  and  C17_23 
ROOT
HETATM    1  C6  UNL     1      26.035   2.375  52.604  1.00  0.00     0.277 C 
HETATM    2  N2  UNL     1      24.861   3.188  52.916  1.00  0.00    -0.359 N 
HETATM    3  C7  UNL     1      23.609   2.530  53.098  1.00  0.00     0.091 C 
HETATM    4  C8  UNL     1      23.276   1.469  52.338  1.00  0.00    -0.034 C 
HETATM    5  C9  UNL     1      24.406   0.703  51.711  1.00  0.00     0.081 C 
HETATM    6  C10 UNL     1      25.684   0.922  52.506  1.00  0.00     0.126 C 
HETATM    7  C11 UNL     1      26.783   0.134  51.835  1.00  0.00     0.052 C 
HETATM    8  O1  UNL     1      25.544   0.379  53.824  1.00  0.00    -0.329 OA
HETATM    9  C12 UNL     1      24.750  -0.737  54.061  1.00  0.00     0.252 C 
HETATM   10  N3  UNL     1      23.687  -0.070  53.947  1.00  0.00    -0.248 NA
HETATM   11  C13 UNL     1      22.356  -0.441  54.044  1.00  0.00     0.139 C 
HETATM   12  C14 UNL     1      21.448   0.088  53.202  1.00  0.00     0.066 C 
HETATM   13  C15 UNL     1      20.129  -0.420  53.454  1.00  0.00     0.099 C 
HETATM   14  N4  UNL     1      19.060  -0.815  53.642  1.00  0.00    -0.192 NA
HETATM   15  C16 UNL     1      21.847   1.081  52.131  1.00  0.00     0.158 C 
HETATM   16  H12 UNL     1      24.938   4.213  53.003  1.00  0.00     0.161 HD
ENDROOT
BRANCH  15  17
HETATM   17  N5  UNL     1      20.942   2.199  52.209  1.00  0.00    -0.377 N 
HETATM   18  H22 UNL     1      20.474   2.299  53.136  1.00  0.00     0.160 HD
BRANCH  17  19
HETATM   19  C17 UNL     1      20.617   3.154  51.218  1.00  0.00     0.030 A 
HETATM   20  C18 UNL     1      19.804   2.942  50.131  1.00  0.00     0.029 A 
HETATM   21  C19 UNL     1      19.463   3.870  49.170  1.00  0.00     0.004 A 
HETATM   22  C20 UNL     1      20.008   5.127  49.344  1.00  0.00     0.019 A 
HETATM   23  C21 UNL     1      20.834   5.427  50.404  1.00  0.00     0.013 A 
HETATM   24 BR1  UNL     1      21.583   7.167  50.635  1.00  0.00    -0.051 Br
HETATM   25  C22 UNL     1      21.116   4.433  51.312  1.00  0.00     0.048 A 
ENDBRANCH  17  19
ENDBRANCH  15  17
BRANCH   1  26
HETATM   26  C5  UNL     1      26.593   2.914  51.338  1.00  0.00     0.036 C 
HETATM   27  C4  UNL     1      25.992   3.675  50.402  1.00  0.00    -0.022 C 
BRANCH  27  28
HETATM   28  C2  UNL     1      26.230   4.342  49.112  1.00  0.00    -0.000 C 
HETATM   29  C1  UNL     1      25.409   5.599  48.932  1.00  0.00     0.013 C 
HETATM   30  C3  UNL     1      27.700   4.704  48.922  1.00  0.00     0.013 C 
ENDBRANCH  27  28
ENDBRANCH   1  26
BRANCH   1  31
HETATM   31  N1  UNL     1      27.064   2.546  53.618  1.00  0.00     0.114 N 
HETATM   32  H10 UNL     1      26.722   2.406  54.581  1.00  0.00     0.316 HD
HETATM   33  H11 UNL     1      27.437   3.511  53.530  1.00  0.00     0.316 HD
ENDBRANCH   1  31
TORSDOF 5
ENDMDL
MODEL 8
REMARK VINA RESULT:      -8.1      2.400      5.616
REMARK  5 active torsions:
REMARK  status: ('A' for Active; 'I' for Inactive)
REMARK    1  A    between atoms: C2_2  and  C4_4 
REMARK    2  A    between atoms: C5_5  and  C6_6 
REMARK    3  A    between atoms: C6_6  and  N1_7 
REMARK    4  A    between atoms: C16_21  and  N5_22 
REMARK    5  A    between atoms: N5_22  and  C17_23 
ROOT
HETATM    1  C6  UNL     1      20.595   2.686  49.280  1.00  0.00     0.277 C 
HETATM    2  N2  UNL     1      21.710   1.742  49.266  1.00  0.00    -0.359 N 
HETATM    3  C7  UNL     1      21.948   0.954  50.430  1.00  0.00     0.091 C 
HETATM    4  C8  UNL     1      21.772   1.478  51.659  1.00  0.00    -0.034 C 
HETATM    5  C9  UNL     1      20.853   2.662  51.766  1.00  0.00     0.081 C 
HETATM    6  C10 UNL     1      19.880   2.668  50.596  1.00  0.00     0.126 C 
HETATM    7  C11 UNL     1      18.984   3.873  50.752  1.00  0.00     0.052 C 
HETATM    8  O1  UNL     1      19.027   1.519  50.657  1.00  0.00    -0.329 OA
HETATM    9  C12 UNL     1      18.659   0.961  51.875  1.00  0.00     0.252 C 
HETATM   10  N3  UNL     1      19.796   0.442  52.041  1.00  0.00    -0.248 NA
HETATM   11  C13 UNL     1      20.309  -0.333  53.067  1.00  0.00     0.139 C 
HETATM   12  C14 UNL     1      21.578  -0.148  53.480  1.00  0.00     0.066 C 
HETATM   13  C15 UNL     1      21.926  -1.038  54.549  1.00  0.00     0.099 C 
HETATM   14  N4  UNL     1      22.225  -1.749  55.410  1.00  0.00    -0.192 NA
HETATM   15  C16 UNL     1      22.467   0.906  52.854  1.00  0.00     0.158 C 
HETATM   16  H12 UNL     1      22.310   1.647  48.431  1.00  0.00     0.161 HD
ENDROOT
BRANCH  15  17
HETATM   17  N5  UNL     1      23.725   0.284  52.530  1.00  0.00    -0.377 N 
HETATM   18  H22 UNL     1      23.644  -0.724  52.276  1.00  0.00     0.160 HD
BRANCH  17  19
HETATM   19  C17 UNL     1      25.020   0.850  52.510  1.00  0.00     0.030 A 
HETATM   20  C18 UNL     1      25.448   1.854  51.676  1.00  0.00     0.029 A 
HETATM   21  C19 UNL     1      26.702   2.429  51.661  1.00  0.00     0.004 A 
HETATM   22  C20 UNL     1      27.594   1.924  52.587  1.00  0.00     0.019 A 
HETATM   23  C21 UNL     1      27.250   0.917  53.461  1.00  0.00     0.013 A 
HETATM   24 BR1  UNL     1      28.490   0.226  54.736  1.00  0.00    -0.051 Br
HETATM   25  C22 UNL     1      25.974   0.408  53.399  1.00  0.00     0.048 A 
ENDBRANCH  17  19
ENDBRANCH  15  17
BRANCH   1  26
HETATM   26  C5  UNL     1      21.170   4.017  48.961  1.00  0.00     0.036 C 
HETATM   27  C4  UNL     1      22.453   4.426  49.029  1.00  0.00    -0.022 C 
BRANCH  27  28
HETATM   28  C2  UNL     1      23.317   5.595  48.803  1.00  0.00    -0.000 C 
HETATM   29  C1  UNL     1      24.789   5.286  48.959  1.00  0.00     0.013 C 
HETATM   30  C3  UNL     1      23.103   6.202  47.420  1.00  0.00     0.013 C 
ENDBRANCH  27  28
ENDBRANCH   1  26
BRANCH   1  31
HETATM   31  N1  UNL     1      19.646   2.378  48.222  1.00  0.00     0.114 N 
HETATM   32  H10 UNL     1      19.807   2.913  47.355  1.00  0.00     0.316 HD
HETATM   33  H11 UNL     1      18.695   2.594  48.578  1.00  0.00     0.316 HD
ENDBRANCH   1  31
TORSDOF 5
ENDMDL
MODEL 9
REMARK VINA RESULT:      -8.0      3.036      4.807
REMARK  5 active torsions:
REMARK  status: ('A' for Active; 'I' for Inactive)
REMARK    1  A    between atoms: C2_2  and  C4_4 
REMARK    2  A    between atoms: C5_5  and  C6_6 
REMARK    3  A    between atoms: C6_6  and  N1_7 
REMARK    4  A    between atoms: C16_21  and  N5_22 
REMARK    5  A    between atoms: N5_22  and  C17_23 
ROOT
HETATM    1  C6  UNL     1      22.065   1.893  52.137  1.00  0.00     0.277 C 
HETATM    2  N2  UNL     1      22.824   3.125  52.338  1.00  0.00    -0.359 N 
HETATM    3  C7  UNL     1      22.952   4.030  51.244  1.00  0.00     0.091 C 
HETATM    4  C8  UNL     1      23.101   3.567  49.987  1.00  0.00    -0.034 C 
HETATM    5  C9  UNL     1      22.612   2.173  49.715  1.00  0.00     0.081 C 
HETATM    6  C10 UNL     1      21.550   1.790  50.735  1.00  0.00     0.126 C 
HETATM    7  C11 UNL     1      21.095   0.386  50.416  1.00  0.00     0.052 C 
HETATM    8  O1  UNL     1      20.399   2.631  50.589  1.00  0.00    -0.329 OA
HETATM    9  C12 UNL     1      20.033   3.139  49.348  1.00  0.00     0.252 C 
HETATM   10  N3  UNL     1      20.967   3.986  49.361  1.00  0.00    -0.248 NA
HETATM   11  C13 UNL     1      21.341   4.952  48.442  1.00  0.00     0.139 C 
HETATM   12  C14 UNL     1      22.647   5.187  48.208  1.00  0.00     0.066 C 
HETATM   13  C15 UNL     1      22.834   6.216  47.226  1.00  0.00     0.099 C 
HETATM   14  N4  UNL     1      23.006   7.044  46.438  1.00  0.00    -0.192 NA
HETATM   15  C16 UNL     1      23.730   4.407  48.921  1.00  0.00     0.158 C 
HETATM   16  H12 UNL     1      23.255   3.335  53.252  1.00  0.00     0.161 HD
ENDROOT
BRANCH  15  17
HETATM   17  N5  UNL     1      24.685   5.353  49.438  1.00  0.00    -0.377 N 
HETATM   18  H22 UNL     1      24.335   5.904  50.252  1.00  0.00     0.160 HD
BRANCH  17  19
HETATM   19  C17 UNL     1      26.002   5.622  48.999  1.00  0.00     0.030 A 
HETATM   20  C18 UNL     1      27.026   4.710  48.918  1.00  0.00     0.029 A 
HETATM   21  C19 UNL     1      28.308   4.955  48.472  1.00  0.00     0.004 A 
HETATM   22  C20 UNL     1      28.556   6.254  48.075  1.00  0.00     0.019 A 
HETATM   23  C21 UNL     1      27.589   7.233  48.123  1.00  0.00     0.013 A 
HETATM   24 BR1  UNL     1      27.943   9.025  47.573  1.00  0.00    -0.051 Br
HETATM   25  C22 UNL     1      26.339   6.890  48.584  1.00  0.00     0.048 A 
ENDBRANCH  17  19
ENDBRANCH  15  17
BRANCH   1  26
HETATM   26  C5  UNL     1      22.977   0.777  52.494  1.00  0.00     0.036 C 
HETATM   27  C4  UNL     1      24.324   0.745  52.481  1.00  0.00    -0.022 C 
BRANCH  27  28
HETATM   28  C2  UNL     1      25.472  -0.135  52.754  1.00  0.00    -0.000 C 
HETATM   29  C1  UNL     1      26.767   0.380  52.168  1.00  0.00     0.013 C 
HETATM   30  C3  UNL     1      25.680  -0.351  54.249  1.00  0.00     0.013 C 
ENDBRANCH  27  28
ENDBRANCH   1  26
BRANCH   1  31
HETATM   31  N1  UNL     1      20.942   1.823  53.059  1.00  0.00     0.114 N 
HETATM   32  H10 UNL     1      20.316   2.642  53.010  1.00  0.00     0.316 HD
HETATM   33  H11 UNL     1      21.326   1.751  54.021  1.00  0.00     0.316 HD
ENDBRANCH   1  31
TORSDOF 5
ENDMDL
