MODEL 1
REMARK VINA RESULT:      -7.5      0.000      0.000
REMARK  7 active torsions:
REMARK  status: ('A' for Active; 'I' for Inactive)
REMARK    1  A    between atoms: N1_1  and  C1_2 
REMARK    2  A    between atoms: C1_2  and  C2_3 
REMARK    3  A    between atoms: C2_3  and  N2_4 
REMARK    4  A    between atoms: C4_7  and  N4_8 
REMARK    5  A    between atoms: C7_12  and  O1_13 
REMARK    6  A    between atoms: O1_13  and  C8_14 
REMARK    7  A    between atoms: C8_14  and  C9_15 
ROOT
HETATM    1  N4  UNL     1      25.362   4.256  50.241  1.00  0.00    -0.361 N 
HETATM    2  C5  UNL     1      24.152   3.950  50.934  1.00  0.00     0.114 A 
HETATM    3  C6  UNL     1      24.143   2.810  51.608  1.00  0.00     0.082 A 
HETATM    4 CL1  UNL     1      22.745   2.285  52.508  1.00  0.00    -0.080 Cl
HETATM    5  C7  UNL     1      25.302   1.924  51.640  1.00  0.00     0.090 A 
HETATM    6  C15 UNL     1      26.397   2.262  50.978  1.00  0.00     0.031 A 
HETATM    7  C16 UNL     1      26.561   3.502  50.178  1.00  0.00     0.154 A 
ENDROOT
BRANCH   1   8
HETATM    8  C4  UNL     1      25.420   5.482  49.495  1.00  0.00     0.227 C 
HETATM    9  N3  UNL     1      26.631   5.463  48.692  1.00  0.00    -0.258 NA
HETATM   10  C3  UNL     1      27.102   6.678  48.583  1.00  0.00     0.201 C 
HETATM   11  N2  UNL     1      26.248   7.593  49.300  1.00  0.00    -0.370 N 
HETATM   12  C17 UNL     1      25.519   6.738  50.245  1.00  0.00     0.172 C 
BRANCH  11  13
HETATM   13  C2  UNL     1      26.130   9.017  49.138  1.00  0.00     0.153 C 
BRANCH  13  14
HETATM   14  C1  UNL     1      27.407   9.732  49.535  1.00  0.00     0.286 C 
BRANCH  14  15
HETATM   15  N1  UNL     1      27.796   9.424  50.886  1.00  0.00     0.079 N 
HETATM   16  H1  UNL     1      27.514   8.452  51.134  1.00  0.00     0.312 HD
HETATM   17  H2  UNL     1      27.522  10.154  51.555  1.00  0.00     0.312 HD
ENDBRANCH  14  15
ENDBRANCH  13  14
ENDBRANCH  11  13
ENDBRANCH   1   8
BRANCH   5  18
HETATM   18  O1  UNL     1      25.417   0.723  52.297  1.00  0.00    -0.345 OA
BRANCH  18  19
HETATM   19  C8  UNL     1      25.805   0.539  53.625  1.00  0.00     0.214 C 
BRANCH  19  20
HETATM   20  C9  UNL     1      27.259   0.146  53.623  1.00  0.00    -0.031 A 
HETATM   21  C10 UNL     1      28.296   1.022  53.938  1.00  0.00     0.009 A 
HETATM   22  C11 UNL     1      29.602   0.579  53.912  1.00  0.00     0.004 A 
HETATM   23  C12 UNL     1      29.911  -0.726  53.578  1.00  0.00     0.042 A 
HETATM   24  C13 UNL     1      28.913  -1.633  53.257  1.00  0.00     0.117 A 
HETATM   25  F1  UNL     1      29.149  -2.922  52.922  1.00  0.00    -0.206 F 
HETATM   26  C14 UNL     1      27.620  -1.147  53.296  1.00  0.00     0.051 A 
ENDBRANCH  19  20
ENDBRANCH  18  19
ENDBRANCH   5  18
TORSDOF 7
ENDMDL
MODEL 2
REMARK VINA RESULT:      -7.4      5.842      8.208
REMARK  7 active torsions:
REMARK  status: ('A' for Active; 'I' for Inactive)
REMARK    1  A    between atoms: N1_1  and  C1_2 
REMARK    2  A    between atoms: C1_2  and  C2_3 
REMARK    3  A    between atoms: C2_3  and  N2_4 
REMARK    4  A    between atoms: C4_7  and  N4_8 
REMARK    5  A    between atoms: C7_12  and  O1_13 
REMARK    6  A    between atoms: O1_13  and  C8_14 
REMARK    7  A    between atoms: C8_14  and  C9_15 
ROOT
HETATM    1  N4  UNL     1      20.888  -0.151  53.330  1.00  0.00    -0.361 N 
HETATM    2  C5  UNL     1      21.539  -0.778  54.434  1.00  0.00     0.114 A 
HETATM    3  C6  UNL     1      22.863  -0.731  54.431  1.00  0.00     0.082 A 
HETATM    4 CL1  UNL     1      23.813  -1.448  55.704  1.00  0.00    -0.080 Cl
HETATM    5  C7  UNL     1      23.608  -0.075  53.360  1.00  0.00     0.090 A 
HETATM    6  C15 UNL     1      22.948   0.491  52.361  1.00  0.00     0.031 A 
HETATM    7  C16 UNL     1      21.470   0.521  52.224  1.00  0.00     0.154 A 
ENDROOT
BRANCH   1   8
HETATM    8  C4  UNL     1      19.453  -0.177  53.290  1.00  0.00     0.227 C 
HETATM    9  N3  UNL     1      19.012  -1.465  53.797  1.00  0.00    -0.258 NA
HETATM   10  C3  UNL     1      17.923  -1.831  53.172  1.00  0.00     0.201 C 
HETATM   11  N2  UNL     1      17.557  -0.823  52.208  1.00  0.00    -0.370 N 
HETATM   12  C17 UNL     1      18.801  -0.077  51.980  1.00  0.00     0.172 C 
BRANCH  11  13
HETATM   13  C2  UNL     1      16.275  -0.592  51.601  1.00  0.00     0.153 C 
BRANCH  13  14
HETATM   14  C1  UNL     1      15.438   0.375  52.416  1.00  0.00     0.286 C 
BRANCH  14  15
HETATM   15  N1  UNL     1      14.583  -0.310  53.349  1.00  0.00     0.079 N 
HETATM   16  H1  UNL     1      15.151  -0.862  54.026  1.00  0.00     0.312 HD
HETATM   17  H2  UNL     1      13.817  -0.818  52.888  1.00  0.00     0.312 HD
ENDBRANCH  14  15
ENDBRANCH  13  14
ENDBRANCH  11  13
ENDBRANCH   1   8
BRANCH   5  18
HETATM   18  O1  UNL     1      24.971   0.041  53.241  1.00  0.00    -0.345 OA
BRANCH  18  19
HETATM   19  C8  UNL     1      25.858  -0.968  52.863  1.00  0.00     0.214 C 
BRANCH  19  20
HETATM   20  C9  UNL     1      27.253  -0.475  53.146  1.00  0.00    -0.031 A 
HETATM   21  C10 UNL     1      28.360  -1.314  53.258  1.00  0.00     0.009 A 
HETATM   22  C11 UNL     1      29.605  -0.779  53.519  1.00  0.00     0.004 A 
HETATM   23  C12 UNL     1      29.782   0.584  53.673  1.00  0.00     0.042 A 
HETATM   24  C13 UNL     1      28.711   1.456  53.570  1.00  0.00     0.117 A 
HETATM   25  F1  UNL     1      28.818   2.797  53.710  1.00  0.00    -0.206 F 
HETATM   26  C14 UNL     1      27.483   0.878  53.308  1.00  0.00     0.051 A 
ENDBRANCH  19  20
ENDBRANCH  18  19
ENDBRANCH   5  18
TORSDOF 7
ENDMDL
MODEL 3
REMARK VINA RESULT:      -7.4      1.241      1.571
REMARK  7 active torsions:
REMARK  status: ('A' for Active; 'I' for Inactive)
REMARK    1  A    between atoms: N1_1  and  C1_2 
REMARK    2  A    between atoms: C1_2  and  C2_3 
REMARK    3  A    between atoms: C2_3  and  N2_4 
REMARK    4  A    between atoms: C4_7  and  N4_8 
REMARK    5  A    between atoms: C7_12  and  O1_13 
REMARK    6  A    between atoms: O1_13  and  C8_14 
REMARK    7  A    between atoms: C8_14  and  C9_15 
ROOT
HETATM    1  N4  UNL     1      25.597   4.122  49.985  1.00  0.00    -0.361 N 
HETATM    2  C5  UNL     1      24.391   4.107  50.748  1.00  0.00     0.114 A 
HETATM    3  C6  UNL     1      24.186   3.028  51.487  1.00  0.00     0.082 A 
HETATM    4 CL1  UNL     1      22.763   2.848  52.478  1.00  0.00    -0.080 Cl
HETATM    5  C7  UNL     1      25.139   1.922  51.518  1.00  0.00     0.090 A 
HETATM    6  C15 UNL     1      26.241   1.994  50.789  1.00  0.00     0.031 A 
HETATM    7  C16 UNL     1      26.611   3.133  49.912  1.00  0.00     0.154 A 
ENDROOT
BRANCH   1   8
HETATM    8  C4  UNL     1      25.863   5.272  49.167  1.00  0.00     0.227 C 
HETATM    9  N3  UNL     1      27.196   5.127  48.607  1.00  0.00    -0.258 NA
HETATM   10  C3  UNL     1      27.752   6.305  48.490  1.00  0.00     0.201 C 
HETATM   11  N2  UNL     1      26.839   7.318  48.960  1.00  0.00    -0.370 N 
HETATM   12  C17 UNL     1      25.900   6.585  49.819  1.00  0.00     0.172 C 
BRANCH  11  13
HETATM   13  C2  UNL     1      26.837   8.725  48.665  1.00  0.00     0.153 C 
BRANCH  13  14
HETATM   14  C1  UNL     1      26.631   9.557  49.917  1.00  0.00     0.286 C 
BRANCH  14  15
HETATM   15  N1  UNL     1      27.701   9.378  50.862  1.00  0.00     0.079 N 
HETATM   16  H1  UNL     1      27.326   9.332  51.833  1.00  0.00     0.312 HD
HETATM   17  H2  UNL     1      28.478  10.034  50.712  1.00  0.00     0.312 HD
ENDBRANCH  14  15
ENDBRANCH  13  14
ENDBRANCH  11  13
ENDBRANCH   1   8
BRANCH   5  18
HETATM   18  O1  UNL     1      25.042   0.756  52.238  1.00  0.00    -0.345 OA
BRANCH  18  19
HETATM   19  C8  UNL     1      25.385   0.580  53.580  1.00  0.00     0.214 C 
BRANCH  19  20
HETATM   20  C9  UNL     1      26.864   0.307  53.638  1.00  0.00    -0.031 A 
HETATM   21  C10 UNL     1      27.450  -0.872  53.179  1.00  0.00     0.009 A 
HETATM   22  C11 UNL     1      28.816  -1.041  53.270  1.00  0.00     0.004 A 
HETATM   23  C12 UNL     1      29.627  -0.060  53.809  1.00  0.00     0.042 A 
HETATM   24  C13 UNL     1      29.089   1.128  54.277  1.00  0.00     0.117 A 
HETATM   25  F1  UNL     1      29.827   2.126  54.815  1.00  0.00    -0.206 F 
HETATM   26  C14 UNL     1      27.717   1.256  54.167  1.00  0.00     0.051 A 
ENDBRANCH  19  20
ENDBRANCH  18  19
ENDBRANCH   5  18
TORSDOF 7
ENDMDL
MODEL 4
REMARK VINA RESULT:      -7.4      5.626      8.433
REMARK  7 active torsions:
REMARK  status: ('A' for Active; 'I' for Inactive)
REMARK    1  A    between atoms: N1_1  and  C1_2 
REMARK    2  A    between atoms: C1_2  and  C2_3 
REMARK    3  A    between atoms: C2_3  and  N2_4 
REMARK    4  A    between atoms: C4_7  and  N4_8 
REMARK    5  A    between atoms: C7_12  and  O1_13 
REMARK    6  A    between atoms: O1_13  and  C8_14 
REMARK    7  A    between atoms: C8_14  and  C9_15 
ROOT
HETATM    1  N4  UNL     1      24.336   0.726  53.124  1.00  0.00    -0.361 N 
HETATM    2  C5  UNL     1      23.757  -0.413  53.759  1.00  0.00     0.114 A 
HETATM    3  C6  UNL     1      22.434  -0.467  53.758  1.00  0.00     0.082 A 
HETATM    4 CL1  UNL     1      21.566  -1.789  54.492  1.00  0.00    -0.080 Cl
HETATM    5  C7  UNL     1      21.620   0.578  53.143  1.00  0.00     0.090 A 
HETATM    6  C15 UNL     1      22.215   1.611  52.569  1.00  0.00     0.031 A 
HETATM    7  C16 UNL     1      23.683   1.813  52.488  1.00  0.00     0.154 A 
ENDROOT
BRANCH   1   8
HETATM    8  C4  UNL     1      25.768   0.829  53.100  1.00  0.00     0.227 C 
HETATM    9  N3  UNL     1      26.287  -0.286  52.325  1.00  0.00    -0.258 NA
HETATM   10  C3  UNL     1      27.438  -0.663  52.818  1.00  0.00     0.201 C 
HETATM   11  N2  UNL     1      27.773   0.165  53.951  1.00  0.00    -0.370 N 
HETATM   12  C17 UNL     1      26.486   0.730  54.375  1.00  0.00     0.172 C 
BRANCH  11  13
HETATM   13  C2  UNL     1      29.064   0.392  54.540  1.00  0.00     0.153 C 
BRANCH  13  14
HETATM   14  C1  UNL     1      29.352   1.873  54.698  1.00  0.00     0.286 C 
BRANCH  14  15
HETATM   15  N1  UNL     1      29.155   2.592  53.467  1.00  0.00     0.079 N 
HETATM   16  H1  UNL     1      29.840   2.278  52.748  1.00  0.00     0.312 HD
HETATM   17  H2  UNL     1      29.086   3.608  53.607  1.00  0.00     0.312 HD
ENDBRANCH  14  15
ENDBRANCH  13  14
ENDBRANCH  11  13
ENDBRANCH   1   8
BRANCH   5  18
HETATM   18  O1  UNL     1      20.250   0.638  53.077  1.00  0.00    -0.345 OA
BRANCH  18  19
HETATM   19  C8  UNL     1      19.477   0.691  51.916  1.00  0.00     0.214 C 
BRANCH  19  20
HETATM   20  C9  UNL     1      18.323  -0.260  52.095  1.00  0.00    -0.031 A 
HETATM   21  C10 UNL     1      17.152  -0.202  51.342  1.00  0.00     0.009 A 
HETATM   22  C11 UNL     1      16.141  -1.114  51.571  1.00  0.00     0.004 A 
HETATM   23  C12 UNL     1      16.265  -2.093  52.539  1.00  0.00     0.042 A 
HETATM   24  C13 UNL     1      17.411  -2.189  53.311  1.00  0.00     0.117 A 
HETATM   25  F1  UNL     1      17.592  -3.123  54.273  1.00  0.00    -0.206 F 
HETATM   26  C14 UNL     1      18.397  -1.257  53.049  1.00  0.00     0.051 A 
ENDBRANCH  19  20
ENDBRANCH  18  19
ENDBRANCH   5  18
TORSDOF 7
ENDMDL
MODEL 5
REMARK VINA RESULT:      -7.3      5.235      8.211
REMARK  7 active torsions:
REMARK  status: ('A' for Active; 'I' for Inactive)
REMARK    1  A    between atoms: N1_1  and  C1_2 
REMARK    2  A    between atoms: C1_2  and  C2_3 
REMARK    3  A    between atoms: C2_3  and  N2_4 
REMARK    4  A    between atoms: C4_7  and  N4_8 
REMARK    5  A    between atoms: C7_12  and  O1_13 
REMARK    6  A    between atoms: O1_13  and  C8_14 
REMARK    7  A    between atoms: C8_14  and  C9_15 
ROOT
HETATM    1  N4  UNL     1      24.824   0.212  53.400  1.00  0.00    -0.361 N 
HETATM    2  C5  UNL     1      24.871   1.611  53.121  1.00  0.00     0.114 A 
HETATM    3  C6  UNL     1      23.706   2.194  52.881  1.00  0.00     0.082 A 
HETATM    4 CL1  UNL     1      23.585   3.895  52.522  1.00  0.00    -0.080 Cl
HETATM    5  C7  UNL     1      22.452   1.447  52.902  1.00  0.00     0.090 A 
HETATM    6  C15 UNL     1      22.472   0.150  53.167  1.00  0.00     0.031 A 
HETATM    7  C16 UNL     1      23.694  -0.643  53.456  1.00  0.00     0.154 A 
ENDROOT
BRANCH   1   8
HETATM    8  C4  UNL     1      26.063  -0.464  53.666  1.00  0.00     0.227 C 
HETATM    9  N3  UNL     1      26.569   0.009  54.943  1.00  0.00    -0.258 NA
HETATM   10  C3  UNL     1      27.876   0.031  54.916  1.00  0.00     0.201 C 
HETATM   11  N2  UNL     1      28.339  -0.423  53.627  1.00  0.00    -0.370 N 
HETATM   12  C17 UNL     1      27.181  -0.237  52.744  1.00  0.00     0.172 C 
BRANCH  11  13
HETATM   13  C2  UNL     1      29.634  -0.939  53.274  1.00  0.00     0.153 C 
BRANCH  13  14
HETATM   14  C1  UNL     1      29.777  -2.399  53.662  1.00  0.00     0.286 C 
BRANCH  14  15
HETATM   15  N1  UNL     1      28.681  -3.193  53.173  1.00  0.00     0.079 N 
HETATM   16  H1  UNL     1      28.982  -3.767  52.357  1.00  0.00     0.312 HD
HETATM   17  H2  UNL     1      27.820  -2.646  53.043  1.00  0.00     0.312 HD
ENDBRANCH  14  15
ENDBRANCH  13  14
ENDBRANCH  11  13
ENDBRANCH   1   8
BRANCH   5  18
HETATM   18  O1  UNL     1      21.188   1.931  52.671  1.00  0.00    -0.345 OA
BRANCH  18  19
HETATM   19  C8  UNL     1      20.316   1.523  51.660  1.00  0.00     0.214 C 
BRANCH  19  20
HETATM   20  C9  UNL     1      20.927   1.929  50.344  1.00  0.00    -0.031 A 
HETATM   21  C10 UNL     1      21.372   1.019  49.387  1.00  0.00     0.009 A 
HETATM   22  C11 UNL     1      21.919   1.477  48.206  1.00  0.00     0.004 A 
HETATM   23  C12 UNL     1      22.037   2.830  47.946  1.00  0.00     0.042 A 
HETATM   24  C13 UNL     1      21.607   3.771  48.868  1.00  0.00     0.117 A 
HETATM   25  F1  UNL     1      21.693   5.106  48.673  1.00  0.00    -0.206 F 
HETATM   26  C14 UNL     1      21.066   3.268  50.036  1.00  0.00     0.051 A 
ENDBRANCH  19  20
ENDBRANCH  18  19
ENDBRANCH   5  18
TORSDOF 7
ENDMDL
MODEL 6
REMARK VINA RESULT:      -7.3      5.613      8.683
REMARK  7 active torsions:
REMARK  status: ('A' for Active; 'I' for Inactive)
REMARK    1  A    between atoms: N1_1  and  C1_2 
REMARK    2  A    between atoms: C1_2  and  C2_3 
REMARK    3  A    between atoms: C2_3  and  N2_4 
REMARK    4  A    between atoms: C4_7  and  N4_8 
REMARK    5  A    between atoms: C7_12  and  O1_13 
REMARK    6  A    between atoms: O1_13  and  C8_14 
REMARK    7  A    between atoms: C8_14  and  C9_15 
ROOT
HETATM    1  N4  UNL     1      24.263   0.586  52.983  1.00  0.00    -0.361 N 
HETATM    2  C5  UNL     1      24.058   1.390  51.822  1.00  0.00     0.114 A 
HETATM    3  C6  UNL     1      22.864   1.298  51.257  1.00  0.00     0.082 A 
HETATM    4 CL1  UNL     1      22.448   2.211  49.831  1.00  0.00    -0.080 Cl
HETATM    5  C7  UNL     1      21.822   0.426  51.792  1.00  0.00     0.090 A 
HETATM    6  C15 UNL     1      22.072  -0.297  52.873  1.00  0.00     0.031 A 
HETATM    7  C16 UNL     1      23.357  -0.302  53.617  1.00  0.00     0.154 A 
ENDROOT
BRANCH   1   8
HETATM    8  C4  UNL     1      25.543   0.651  53.631  1.00  0.00     0.227 C 
HETATM    9  N3  UNL     1      26.326   1.686  52.977  1.00  0.00    -0.258 NA
HETATM   10  C3  UNL     1      27.589   1.348  52.982  1.00  0.00     0.201 C 
HETATM   11  N2  UNL     1      27.745   0.071  53.634  1.00  0.00    -0.370 N 
HETATM   12  C17 UNL     1      26.407  -0.532  53.566  1.00  0.00     0.172 C 
BRANCH  11  13
HETATM   13  C2  UNL     1      28.930  -0.495  54.219  1.00  0.00     0.153 C 
BRANCH  13  14
HETATM   14  C1  UNL     1      29.612  -1.463  53.272  1.00  0.00     0.286 C 
BRANCH  14  15
HETATM   15  N1  UNL     1      29.076  -2.794  53.388  1.00  0.00     0.079 N 
HETATM   16  H1  UNL     1      28.811  -3.163  52.450  1.00  0.00     0.312 HD
HETATM   17  H2  UNL     1      28.357  -2.871  54.118  1.00  0.00     0.312 HD
ENDBRANCH  14  15
ENDBRANCH  13  14
ENDBRANCH  11  13
ENDBRANCH   1   8
BRANCH   5  18
HETATM   18  O1  UNL     1      20.553   0.242  51.301  1.00  0.00    -0.345 OA
BRANCH  18  19
HETATM   19  C8  UNL     1      19.407   0.941  51.685  1.00  0.00     0.214 C 
BRANCH  19  20
HETATM   20  C9  UNL     1      18.327  -0.073  51.956  1.00  0.00    -0.031 A 
HETATM   21  C10 UNL     1      17.135  -0.141  51.237  1.00  0.00     0.009 A 
HETATM   22  C11 UNL     1      16.197  -1.103  51.551  1.00  0.00     0.004 A 
HETATM   23  C12 UNL     1      16.414  -2.011  52.570  1.00  0.00     0.042 A 
HETATM   24  C13 UNL     1      17.584  -1.982  53.311  1.00  0.00     0.117 A 
HETATM   25  F1  UNL     1      17.856  -2.841  54.320  1.00  0.00    -0.206 F 
HETATM   26  C14 UNL     1      18.496  -1.003  52.964  1.00  0.00     0.051 A 
ENDBRANCH  19  20
ENDBRANCH  18  19
ENDBRANCH   5  18
TORSDOF 7
ENDMDL
MODEL 7
REMARK VINA RESULT:      -7.3      3.001      3.900
REMARK  7 active torsions:
REMARK  status: ('A' for Active; 'I' for Inactive)
REMARK    1  A    between atoms: N1_1  and  C1_2 
REMARK    2  A    between atoms: C1_2  and  C2_3 
REMARK    3  A    between atoms: C2_3  and  N2_4 
REMARK    4  A    between atoms: C4_7  and  N4_8 
REMARK    5  A    between atoms: C7_12  and  O1_13 
REMARK    6  A    between atoms: O1_13  and  C8_14 
REMARK    7  A    between atoms: C8_14  and  C9_15 
ROOT
HETATM    1  N4  UNL     1      25.925   4.583  49.581  1.00  0.00    -0.361 N 
HETATM    2  C5  UNL     1      26.602   3.436  50.092  1.00  0.00     0.114 A 
HETATM    3  C6  UNL     1      25.901   2.666  50.910  1.00  0.00     0.082 A 
HETATM    4 CL1  UNL     1      26.577   1.226  51.624  1.00  0.00    -0.080 Cl
HETATM    5  C7  UNL     1      24.518   2.975  51.264  1.00  0.00     0.090 A 
HETATM    6  C15 UNL     1      23.944   4.054  50.757  1.00  0.00     0.031 A 
HETATM    7  C16 UNL     1      24.596   5.012  49.830  1.00  0.00     0.154 A 
ENDROOT
BRANCH   1   8
HETATM    8  C4  UNL     1      26.645   5.449  48.689  1.00  0.00     0.227 C 
HETATM    9  N3  UNL     1      27.992   4.923  48.541  1.00  0.00    -0.258 NA
HETATM   10  C3  UNL     1      28.833   5.912  48.389  1.00  0.00     0.201 C 
HETATM   11  N2  UNL     1      28.119   7.165  48.426  1.00  0.00    -0.370 N 
HETATM   12  C17 UNL     1      26.859   6.839  49.106  1.00  0.00     0.172 C 
BRANCH  11  13
HETATM   13  C2  UNL     1      28.533   8.444  47.918  1.00  0.00     0.153 C 
BRANCH  13  14
HETATM   14  C1  UNL     1      29.623   9.058  48.776  1.00  0.00     0.286 C 
BRANCH  14  15
HETATM   15  N1  UNL     1      29.132   9.444  50.072  1.00  0.00     0.079 N 
HETATM   16  H1  UNL     1      28.093   9.521  50.060  1.00  0.00     0.312 HD
HETATM   17  H2  UNL     1      29.636  10.249  50.465  1.00  0.00     0.312 HD
ENDBRANCH  14  15
ENDBRANCH  13  14
ENDBRANCH  11  13
ENDBRANCH   1   8
BRANCH   5  18
HETATM   18  O1  UNL     1      23.690   2.262  52.096  1.00  0.00    -0.345 OA
BRANCH  18  19
HETATM   19  C8  UNL     1      22.853   1.208  51.727  1.00  0.00     0.214 C 
BRANCH  19  20
HETATM   20  C9  UNL     1      22.672   0.328  52.935  1.00  0.00    -0.031 A 
HETATM   21  C10 UNL     1      21.427  -0.053  53.433  1.00  0.00     0.009 A 
HETATM   22  C11 UNL     1      21.351  -0.864  54.547  1.00  0.00     0.004 A 
HETATM   23  C12 UNL     1      22.492  -1.313  55.187  1.00  0.00     0.042 A 
HETATM   24  C13 UNL     1      23.750  -0.961  54.727  1.00  0.00     0.117 A 
HETATM   25  F1  UNL     1      24.902  -1.368  55.307  1.00  0.00    -0.206 F 
HETATM   26  C14 UNL     1      23.780  -0.148  53.609  1.00  0.00     0.051 A 
ENDBRANCH  19  20
ENDBRANCH  18  19
ENDBRANCH   5  18
TORSDOF 7
ENDMDL
MODEL 8
REMARK VINA RESULT:      -7.3      5.501      7.770
REMARK  7 active torsions:
REMARK  status: ('A' for Active; 'I' for Inactive)
REMARK    1  A    between atoms: N1_1  and  C1_2 
REMARK    2  A    between atoms: C1_2  and  C2_3 
REMARK    3  A    between atoms: C2_3  and  N2_4 
REMARK    4  A    between atoms: C4_7  and  N4_8 
REMARK    5  A    between atoms: C7_12  and  O1_13 
REMARK    6  A    between atoms: O1_13  and  C8_14 
REMARK    7  A    between atoms: C8_14  and  C9_15 
ROOT
HETATM    1  N4  UNL     1      20.988   0.304  52.730  1.00  0.00    -0.361 N 
HETATM    2  C5  UNL     1      21.683   1.217  51.881  1.00  0.00     0.114 A 
HETATM    3  C6  UNL     1      23.004   1.213  51.983  1.00  0.00     0.082 A 
HETATM    4 CL1  UNL     1      24.005   2.267  51.020  1.00  0.00    -0.080 Cl
HETATM    5  C7  UNL     1      23.703   0.325  52.908  1.00  0.00     0.090 A 
HETATM    6  C15 UNL     1      23.003  -0.500  53.670  1.00  0.00     0.031 A 
HETATM    7  C16 UNL     1      21.523  -0.612  53.671  1.00  0.00     0.154 A 
ENDROOT
BRANCH   1   8
HETATM    8  C4  UNL     1      19.554   0.273  52.655  1.00  0.00     0.227 C 
HETATM    9  N3  UNL     1      19.086  -0.843  53.460  1.00  0.00    -0.258 NA
HETATM   10  C3  UNL     1      18.011  -1.352  52.917  1.00  0.00     0.201 C 
HETATM   11  N2  UNL     1      17.683  -0.622  51.718  1.00  0.00    -0.370 N 
HETATM   12  C17 UNL     1      18.940   0.038  51.344  1.00  0.00     0.172 C 
BRANCH  11  13
HETATM   13  C2  UNL     1      16.420  -0.549  51.034  1.00  0.00     0.153 C 
BRANCH  13  14
HETATM   14  C1  UNL     1      16.575   0.025  49.638  1.00  0.00     0.286 C 
BRANCH  14  15
HETATM   15  N1  UNL     1      16.245  -0.940  48.622  1.00  0.00     0.079 N 
HETATM   16  H1  UNL     1      16.141  -1.888  49.041  1.00  0.00     0.312 HD
HETATM   17  H2  UNL     1      16.860  -0.877  47.800  1.00  0.00     0.312 HD
ENDBRANCH  14  15
ENDBRANCH  13  14
ENDBRANCH  11  13
ENDBRANCH   1   8
BRANCH   5  18
HETATM   18  O1  UNL     1      25.058   0.226  53.107  1.00  0.00    -0.345 OA
BRANCH  18  19
HETATM   19  C8  UNL     1      25.831  -0.929  52.983  1.00  0.00     0.214 C 
BRANCH  19  20
HETATM   20  C9  UNL     1      27.269  -0.538  53.203  1.00  0.00    -0.031 A 
HETATM   21  C10 UNL     1      28.319  -1.454  53.248  1.00  0.00     0.009 A 
HETATM   22  C11 UNL     1      29.609  -1.010  53.455  1.00  0.00     0.004 A 
HETATM   23  C12 UNL     1      29.888   0.334  53.619  1.00  0.00     0.042 A 
HETATM   24  C13 UNL     1      28.877   1.280  53.581  1.00  0.00     0.117 A 
HETATM   25  F1  UNL     1      29.084   2.607  53.734  1.00  0.00    -0.206 F 
HETATM   26  C14 UNL     1      27.601   0.792  53.372  1.00  0.00     0.051 A 
ENDBRANCH  19  20
ENDBRANCH  18  19
ENDBRANCH   5  18
TORSDOF 7
ENDMDL
MODEL 9
REMARK VINA RESULT:      -7.2      6.722      9.488
REMARK  7 active torsions:
REMARK  status: ('A' for Active; 'I' for Inactive)
REMARK    1  A    between atoms: N1_1  and  C1_2 
REMARK    2  A    between atoms: C1_2  and  C2_3 
REMARK    3  A    between atoms: C2_3  and  N2_4 
REMARK    4  A    between atoms: C4_7  and  N4_8 
REMARK    5  A    between atoms: C7_12  and  O1_13 
REMARK    6  A    between atoms: O1_13  and  C8_14 
REMARK    7  A    between atoms: C8_14  and  C9_15 
ROOT
HETATM    1  N4  UNL     1      23.592  -0.023  53.455  1.00  0.00    -0.361 N 
HETATM    2  C5  UNL     1      22.848   0.523  52.366  1.00  0.00     0.114 A 
HETATM    3  C6  UNL     1      21.556   0.234  52.344  1.00  0.00     0.082 A 
HETATM    4 CL1  UNL     1      20.503   0.820  51.083  1.00  0.00    -0.080 Cl
HETATM    5  C7  UNL     1      20.933  -0.592  53.374  1.00  0.00     0.090 A 
HETATM    6  C15 UNL     1      21.675  -1.070  54.360  1.00  0.00     0.031 A 
HETATM    7  C16 UNL     1      23.132  -0.835  54.522  1.00  0.00     0.154 A 
ENDROOT
BRANCH   1   8
HETATM    8  C4  UNL     1      24.997   0.263  53.521  1.00  0.00     0.227 C 
HETATM    9  N3  UNL     1      25.491   0.414  52.163  1.00  0.00    -0.258 NA
HETATM   10  C3  UNL     1      26.720  -0.026  52.092  1.00  0.00     0.201 C 
HETATM   11  N2  UNL     1      27.138  -0.502  53.388  1.00  0.00    -0.370 N 
HETATM   12  C17 UNL     1      25.879  -0.757  54.099  1.00  0.00     0.172 C 
BRANCH  11  13
HETATM   13  C2  UNL     1      28.475  -0.689  53.882  1.00  0.00     0.153 C 
BRANCH  13  14
HETATM   14  C1  UNL     1      29.209  -1.768  53.108  1.00  0.00     0.286 C 
BRANCH  14  15
HETATM   15  N1  UNL     1      28.570  -3.050  53.237  1.00  0.00     0.079 N 
HETATM   16  H1  UNL     1      29.282  -3.806  53.325  1.00  0.00     0.312 HD
HETATM   17  H2  UNL     1      27.839  -3.204  52.530  1.00  0.00     0.312 HD
ENDBRANCH  14  15
ENDBRANCH  13  14
ENDBRANCH  11  13
ENDBRANCH   1   8
BRANCH   5  18
HETATM   18  O1  UNL     1      19.613  -0.962  53.463  1.00  0.00    -0.345 OA
BRANCH  18  19
HETATM   19  C8  UNL     1      19.114  -2.111  54.078  1.00  0.00     0.214 C 
BRANCH  19  20
HETATM   20  C9  UNL     1      17.776  -2.414  53.456  1.00  0.00    -0.031 A 
HETATM   21  C10 UNL     1      17.146  -3.653  53.548  1.00  0.00     0.009 A 
HETATM   22  C11 UNL     1      15.918  -3.846  52.948  1.00  0.00     0.004 A 
HETATM   23  C12 UNL     1      15.291  -2.828  52.253  1.00  0.00     0.042 A 
HETATM   24  C13 UNL     1      15.880  -1.580  52.136  1.00  0.00     0.117 A 
HETATM   25  F1  UNL     1      15.319  -0.544  51.471  1.00  0.00    -0.206 F 
HETATM   26  C14 UNL     1      17.109  -1.431  52.752  1.00  0.00     0.051 A 
ENDBRANCH  19  20
ENDBRANCH  18  19
ENDBRANCH   5  18
TORSDOF 7
ENDMDL
