MODEL 1
REMARK VINA RESULT:      -8.2      0.000      0.000
REMARK  1 active torsions:
REMARK  status: ('A' for Active; 'I' for Inactive)
REMARK    1  A    between atoms: C1_2  and  C2_4 
ROOT
HETATM    1  C2  UNL     1      25.818  -0.203  54.637  1.00  0.00     0.115 A 
HETATM    2  C3  UNL     1      24.921   0.117  53.602  1.00  0.00     0.054 A 
HETATM    3  C4  UNL     1      23.683  -0.391  53.856  1.00  0.00     0.042 A 
HETATM    4  C5  UNL     1      22.769  -0.114  52.876  1.00  0.00     0.138 A 
HETATM    5  N1  UNL     1      21.539  -0.575  53.035  1.00  0.00    -0.215 NA
HETATM    6  C6  UNL     1      21.020  -1.286  54.022  1.00  0.00     0.129 A 
HETATM    7  N2  UNL     1      21.907  -1.567  54.995  1.00  0.00    -0.231 NA
HETATM    8  C7  UNL     1      23.169  -1.144  54.917  1.00  0.00     0.090 A 
HETATM    9  C8  UNL     1      24.166  -1.389  55.870  1.00  0.00     0.150 A 
HETATM   10  N3  UNL     1      25.435  -0.934  55.728  1.00  0.00    -0.254 NA
HETATM   11  C9  UNL     1      19.579  -1.643  53.951  1.00  0.00     0.086 C 
HETATM   12  C10 UNL     1      18.982  -0.656  52.935  1.00  0.00     0.006 C 
HETATM   13  C11 UNL     1      18.808   0.312  51.974  1.00  0.00     0.021 C 
HETATM   14  C12 UNL     1      19.686   1.214  51.157  1.00  0.00    -0.023 C 
HETATM   15  C13 UNL     1      20.859   1.741  50.709  1.00  0.00    -0.011 C 
HETATM   16  C14 UNL     1      22.338   1.657  50.849  1.00  0.00     0.148 C 
HETATM   17  N4  UNL     1      22.844   0.599  51.665  1.00  0.00    -0.371 N 
HETATM   18  H11 UNL     1      23.669   0.004  51.317  1.00  0.00     0.161 HD
ENDROOT
BRANCH   1  19
HETATM   19  C1  UNL     1      27.208   0.279  54.509  1.00  0.00     0.246 C 
HETATM   20  O1  UNL     1      28.156  -0.308  55.065  1.00  0.00    -0.278 OA
HETATM   21 BR1  UNL     1      27.536   1.835  53.461  1.00  0.00    -0.002 Br
ENDBRANCH   1  19
TORSDOF 1
ENDMDL
MODEL 2
REMARK VINA RESULT:      -8.1      2.052      3.580
REMARK  1 active torsions:
REMARK  status: ('A' for Active; 'I' for Inactive)
REMARK    1  A    between atoms: C1_2  and  C2_4 
ROOT
HETATM    1  C2  UNL     1      26.982  -0.366  52.797  1.00  0.00     0.115 A 
HETATM    2  C3  UNL     1      25.694  -0.605  53.308  1.00  0.00     0.054 A 
HETATM    3  C4  UNL     1      24.821   0.358  52.900  1.00  0.00     0.042 A 
HETATM    4  C5  UNL     1      23.551   0.177  53.374  1.00  0.00     0.138 A 
HETATM    5  N1  UNL     1      22.635   1.070  53.032  1.00  0.00    -0.215 NA
HETATM    6  C6  UNL     1      22.744   2.151  52.278  1.00  0.00     0.129 A 
HETATM    7  N2  UNL     1      23.988   2.342  51.803  1.00  0.00    -0.231 NA
HETATM    8  C7  UNL     1      24.974   1.493  52.097  1.00  0.00     0.090 A 
HETATM    9  C8  UNL     1      26.299   1.608  51.660  1.00  0.00     0.150 A 
HETATM   10  N3  UNL     1      27.258   0.711  52.001  1.00  0.00    -0.254 NA
HETATM   11  C9  UNL     1      21.524   2.965  52.034  1.00  0.00     0.086 C 
HETATM   12  C10 UNL     1      20.354   2.025  52.370  1.00  0.00     0.006 C 
HETATM   13  C11 UNL     1      19.585   0.967  52.793  1.00  0.00     0.021 C 
HETATM   14  C12 UNL     1      19.819  -0.368  53.437  1.00  0.00    -0.023 C 
HETATM   15  C13 UNL     1      20.551  -1.375  53.988  1.00  0.00    -0.011 C 
HETATM   16  C14 UNL     1      21.934  -1.789  54.349  1.00  0.00     0.148 C 
HETATM   17  N4  UNL     1      22.958  -0.806  54.188  1.00  0.00    -0.371 N 
HETATM   18  H11 UNL     1      23.682  -0.656  54.967  1.00  0.00     0.161 HD
ENDROOT
BRANCH   1  19
HETATM   19  C1  UNL     1      28.046  -1.326  53.153  1.00  0.00     0.246 C 
HETATM   20  O1  UNL     1      27.850  -2.555  53.130  1.00  0.00    -0.278 OA
HETATM   21 BR1  UNL     1      29.753  -0.643  53.652  1.00  0.00    -0.002 Br
ENDBRANCH   1  19
TORSDOF 1
ENDMDL
MODEL 3
REMARK VINA RESULT:      -8.0      2.053      2.485
REMARK  1 active torsions:
REMARK  status: ('A' for Active; 'I' for Inactive)
REMARK    1  A    between atoms: C1_2  and  C2_4 
ROOT
HETATM    1  C2  UNL     1      27.032   0.738  53.886  1.00  0.00     0.115 A 
HETATM    2  C3  UNL     1      26.139   1.608  53.236  1.00  0.00     0.054 A 
HETATM    3  C4  UNL     1      24.884   1.078  53.196  1.00  0.00     0.042 A 
HETATM    4  C5  UNL     1      23.974   1.883  52.568  1.00  0.00     0.138 A 
HETATM    5  N1  UNL     1      22.728   1.445  52.476  1.00  0.00    -0.215 NA
HETATM    6  C6  UNL     1      22.191   0.316  52.908  1.00  0.00     0.129 A 
HETATM    7  N2  UNL     1      23.074  -0.486  53.530  1.00  0.00    -0.231 NA
HETATM    8  C7  UNL     1      24.351  -0.126  53.666  1.00  0.00     0.090 A 
HETATM    9  C8  UNL     1      25.346  -0.892  54.288  1.00  0.00     0.150 A 
HETATM   10  N3  UNL     1      26.631  -0.469  54.389  1.00  0.00    -0.254 NA
HETATM   11  C9  UNL     1      20.736   0.100  52.691  1.00  0.00     0.086 C 
HETATM   12  C10 UNL     1      20.169   1.504  52.422  1.00  0.00     0.006 C 
HETATM   13  C11 UNL     1      20.024   2.848  52.176  1.00  0.00     0.021 C 
HETATM   14  C12 UNL     1      20.929   4.030  51.981  1.00  0.00    -0.023 C 
HETATM   15  C13 UNL     1      22.117   4.685  51.873  1.00  0.00    -0.011 C 
HETATM   16  C14 UNL     1      23.593   4.498  51.898  1.00  0.00     0.148 C 
HETATM   17  N4  UNL     1      24.065   3.150  51.964  1.00  0.00    -0.371 N 
HETATM   18  H11 UNL     1      24.863   2.832  51.319  1.00  0.00     0.161 HD
ENDROOT
BRANCH   1  19
HETATM   19  C1  UNL     1      28.438   1.170  54.011  1.00  0.00     0.246 C 
HETATM   20  O1  UNL     1      28.736   2.316  54.397  1.00  0.00    -0.278 OA
HETATM   21 BR1  UNL     1      29.812  -0.072  53.566  1.00  0.00    -0.002 Br
ENDBRANCH   1  19
TORSDOF 1
ENDMDL
MODEL 4
REMARK VINA RESULT:      -8.0      3.202      4.392
REMARK  1 active torsions:
REMARK  status: ('A' for Active; 'I' for Inactive)
REMARK    1  A    between atoms: C1_2  and  C2_4 
ROOT
HETATM    1  C2  UNL     1      26.310   3.079  50.669  1.00  0.00     0.115 A 
HETATM    2  C3  UNL     1      25.034   2.516  50.848  1.00  0.00     0.054 A 
HETATM    3  C4  UNL     1      25.031   1.633  51.885  1.00  0.00     0.042 A 
HETATM    4  C5  UNL     1      23.813   1.051  52.101  1.00  0.00     0.138 A 
HETATM    5  N1  UNL     1      23.717   0.173  53.087  1.00  0.00    -0.215 NA
HETATM    6  C6  UNL     1      24.638  -0.254  53.936  1.00  0.00     0.129 A 
HETATM    7  N2  UNL     1      25.843   0.311  53.737  1.00  0.00    -0.231 NA
HETATM    8  C7  UNL     1      26.031   1.205  52.765  1.00  0.00     0.090 A 
HETATM    9  C8  UNL     1      27.244   1.842  52.474  1.00  0.00     0.150 A 
HETATM   10  N3  UNL     1      27.369   2.741  51.465  1.00  0.00    -0.254 NA
HETATM   11  C9  UNL     1      24.236  -1.236  54.976  1.00  0.00     0.086 C 
HETATM   12  C10 UNL     1      22.704  -1.120  55.051  1.00  0.00     0.006 C 
HETATM   13  C11 UNL     1      21.388  -0.802  54.817  1.00  0.00     0.021 C 
HETATM   14  C12 UNL     1      20.619   0.009  53.815  1.00  0.00    -0.023 C 
HETATM   15  C13 UNL     1      20.445   0.801  52.722  1.00  0.00    -0.011 C 
HETATM   16  C14 UNL     1      21.165   1.477  51.608  1.00  0.00     0.148 C 
HETATM   17  N4  UNL     1      22.558   1.184  51.477  1.00  0.00    -0.371 N 
HETATM   18  H11 UNL     1      22.968   0.960  50.510  1.00  0.00     0.161 HD
ENDROOT
BRANCH   1  19
HETATM   19  C1  UNL     1      26.477   4.059  49.578  1.00  0.00     0.246 C 
HETATM   20  O1  UNL     1      27.537   4.138  48.928  1.00  0.00    -0.278 OA
HETATM   21 BR1  UNL     1      25.023   5.219  49.170  1.00  0.00    -0.002 Br
ENDBRANCH   1  19
TORSDOF 1
ENDMDL
MODEL 5
REMARK VINA RESULT:      -7.8      2.849      4.145
REMARK  1 active torsions:
REMARK  status: ('A' for Active; 'I' for Inactive)
REMARK    1  A    between atoms: C1_2  and  C2_4 
ROOT
HETATM    1  C2  UNL     1      26.846  -0.849  53.227  1.00  0.00     0.115 A 
HETATM    2  C3  UNL     1      26.687   0.180  52.281  1.00  0.00     0.054 A 
HETATM    3  C4  UNL     1      25.464   0.767  52.401  1.00  0.00     0.042 A 
HETATM    4  C5  UNL     1      25.253   1.774  51.500  1.00  0.00     0.138 A 
HETATM    5  N1  UNL     1      24.087   2.399  51.539  1.00  0.00    -0.215 NA
HETATM    6  C6  UNL     1      23.049   2.210  52.336  1.00  0.00     0.129 A 
HETATM    7  N2  UNL     1      23.241   1.223  53.230  1.00  0.00    -0.231 NA
HETATM    8  C7  UNL     1      24.385   0.538  53.261  1.00  0.00     0.090 A 
HETATM    9  C8  UNL     1      24.679  -0.508  54.145  1.00  0.00     0.150 A 
HETATM   10  N3  UNL     1      25.863  -1.169  54.122  1.00  0.00    -0.254 NA
HETATM   11  C9  UNL     1      21.864   3.093  52.172  1.00  0.00     0.086 C 
HETATM   12  C10 UNL     1      22.391   4.312  51.397  1.00  0.00     0.006 C 
HETATM   13  C11 UNL     1      23.167   5.188  50.676  1.00  0.00     0.021 C 
HETATM   14  C12 UNL     1      24.549   5.201  50.091  1.00  0.00    -0.023 C 
HETATM   15  C13 UNL     1      25.778   4.702  49.785  1.00  0.00    -0.011 C 
HETATM   16  C14 UNL     1      26.648   3.502  49.917  1.00  0.00     0.148 C 
HETATM   17  N4  UNL     1      26.045   2.334  50.480  1.00  0.00    -0.371 N 
HETATM   18  H11 UNL     1      26.199   1.377  50.016  1.00  0.00     0.161 HD
ENDROOT
BRANCH   1  19
HETATM   19  C1  UNL     1      28.125  -1.587  53.224  1.00  0.00     0.246 C 
HETATM   20  O1  UNL     1      28.180  -2.796  52.931  1.00  0.00    -0.278 OA
HETATM   21 BR1  UNL     1      29.717  -0.646  53.681  1.00  0.00    -0.002 Br
ENDBRANCH   1  19
TORSDOF 1
ENDMDL
MODEL 6
REMARK VINA RESULT:      -7.7      3.667      5.836
REMARK  1 active torsions:
REMARK  status: ('A' for Active; 'I' for Inactive)
REMARK    1  A    between atoms: C1_2  and  C2_4 
ROOT
HETATM    1  C2  UNL     1      20.419  -0.545  53.300  1.00  0.00     0.115 A 
HETATM    2  C3  UNL     1      21.348   0.406  52.840  1.00  0.00     0.054 A 
HETATM    3  C4  UNL     1      22.584   0.172  53.363  1.00  0.00     0.042 A 
HETATM    4  C5  UNL     1      23.528   1.073  52.952  1.00  0.00     0.138 A 
HETATM    5  N1  UNL     1      24.758   0.927  53.416  1.00  0.00    -0.215 NA
HETATM    6  C6  UNL     1      25.252   0.020  54.243  1.00  0.00     0.129 A 
HETATM    7  N2  UNL     1      24.336  -0.875  54.655  1.00  0.00    -0.231 NA
HETATM    8  C7  UNL     1      23.070  -0.803  54.240  1.00  0.00     0.090 A 
HETATM    9  C8  UNL     1      22.044  -1.679  54.616  1.00  0.00     0.150 A 
HETATM   10  N3  UNL     1      20.773  -1.547  54.160  1.00  0.00    -0.254 NA
HETATM   11  C9  UNL     1      26.701   0.081  54.572  1.00  0.00     0.086 C 
HETATM   12  C10 UNL     1      27.319   0.939  53.455  1.00  0.00     0.006 C 
HETATM   13  C11 UNL     1      27.512   1.761  52.371  1.00  0.00     0.021 C 
HETATM   14  C12 UNL     1      26.650   2.489  51.381  1.00  0.00    -0.023 C 
HETATM   15  C13 UNL     1      25.486   2.910  50.814  1.00  0.00    -0.011 C 
HETATM   16  C14 UNL     1      24.004   2.839  50.931  1.00  0.00     0.148 C 
HETATM   17  N4  UNL     1      23.486   2.185  52.091  1.00  0.00    -0.371 N 
HETATM   18  H11 UNL     1      22.684   2.637  52.645  1.00  0.00     0.161 HD
ENDROOT
BRANCH   1  19
HETATM   19  C1  UNL     1      19.027  -0.426  52.821  1.00  0.00     0.246 C 
HETATM   20  O1  UNL     1      18.666   0.516  52.092  1.00  0.00    -0.278 OA
HETATM   21 BR1  UNL     1      17.772  -1.760  53.344  1.00  0.00    -0.002 Br
ENDBRANCH   1  19
TORSDOF 1
ENDMDL
MODEL 7
REMARK VINA RESULT:      -7.7      3.635      5.609
REMARK  1 active torsions:
REMARK  status: ('A' for Active; 'I' for Inactive)
REMARK    1  A    between atoms: C1_2  and  C2_4 
ROOT
HETATM    1  C2  UNL     1      24.946  -0.083  53.689  1.00  0.00     0.115 A 
HETATM    2  C3  UNL     1      24.351   1.139  53.329  1.00  0.00     0.054 A 
HETATM    3  C4  UNL     1      25.072   1.765  52.357  1.00  0.00     0.042 A 
HETATM    4  C5  UNL     1      24.540   2.965  51.971  1.00  0.00     0.138 A 
HETATM    5  N1  UNL     1      25.178   3.647  51.034  1.00  0.00    -0.215 NA
HETATM    6  C6  UNL     1      26.289   3.353  50.378  1.00  0.00     0.129 A 
HETATM    7  N2  UNL     1      26.824   2.174  50.745  1.00  0.00    -0.231 NA
HETATM    8  C7  UNL     1      26.248   1.421  51.683  1.00  0.00     0.090 A 
HETATM    9  C8  UNL     1      26.730   0.187  52.139  1.00  0.00     0.150 A 
HETATM   10  N3  UNL     1      26.098  -0.529  53.102  1.00  0.00    -0.254 NA
HETATM   11  C9  UNL     1      26.766   4.304  49.340  1.00  0.00     0.086 C 
HETATM   12  C10 UNL     1      25.536   5.163  49.002  1.00  0.00     0.006 C 
HETATM   13  C11 UNL     1      24.294   5.750  48.993  1.00  0.00     0.021 C 
HETATM   14  C12 UNL     1      23.034   5.659  49.804  1.00  0.00    -0.023 C 
HETATM   15  C13 UNL     1      22.226   5.218  50.807  1.00  0.00    -0.011 C 
HETATM   16  C14 UNL     1      22.170   4.312  51.987  1.00  0.00     0.148 C 
HETATM   17  N4  UNL     1      23.395   3.681  52.366  1.00  0.00    -0.371 N 
HETATM   18  H11 UNL     1      23.687   3.661  53.400  1.00  0.00     0.161 HD
ENDROOT
BRANCH   1  19
HETATM   19  C1  UNL     1      24.281  -0.883  54.736  1.00  0.00     0.246 C 
HETATM   20  O1  UNL     1      24.928  -1.432  55.648  1.00  0.00    -0.278 OA
HETATM   21 BR1  UNL     1      22.386  -1.066  54.673  1.00  0.00    -0.002 Br
ENDBRANCH   1  19
TORSDOF 1
ENDMDL
MODEL 8
REMARK VINA RESULT:      -7.4      3.057      5.344
REMARK  1 active torsions:
REMARK  status: ('A' for Active; 'I' for Inactive)
REMARK    1  A    between atoms: C1_2  and  C2_4 
ROOT
HETATM    1  C2  UNL     1      25.147   3.492  49.925  1.00  0.00     0.115 A 
HETATM    2  C3  UNL     1      25.371   2.882  51.171  1.00  0.00     0.054 A 
HETATM    3  C4  UNL     1      24.265   2.204  51.588  1.00  0.00     0.042 A 
HETATM    4  C5  UNL     1      24.425   1.593  52.801  1.00  0.00     0.138 A 
HETATM    5  N1  UNL     1      23.399   0.915  53.289  1.00  0.00    -0.215 NA
HETATM    6  C6  UNL     1      22.194   0.718  52.780  1.00  0.00     0.129 A 
HETATM    7  N2  UNL     1      22.020   1.312  51.585  1.00  0.00    -0.231 NA
HETATM    8  C7  UNL     1      23.001   2.017  51.019  1.00  0.00     0.090 A 
HETATM    9  C8  UNL     1      22.917   2.676  49.786  1.00  0.00     0.150 A 
HETATM   10  N3  UNL     1      23.952   3.383  49.268  1.00  0.00    -0.254 NA
HETATM   11  C9  UNL     1      21.236  -0.124  53.543  1.00  0.00     0.086 C 
HETATM   12  C10 UNL     1      22.114  -0.925  54.520  1.00  0.00     0.006 C 
HETATM   13  C11 UNL     1      23.162  -1.410  55.265  1.00  0.00     0.021 C 
HETATM   14  C12 UNL     1      24.622  -1.103  55.431  1.00  0.00    -0.023 C 
HETATM   15  C13 UNL     1      25.789  -0.437  55.211  1.00  0.00    -0.011 C 
HETATM   16  C14 UNL     1      26.399   0.687  54.450  1.00  0.00     0.148 C 
HETATM   17  N4  UNL     1      25.503   1.513  53.703  1.00  0.00    -0.371 N 
HETATM   18  H11 UNL     1      25.596   2.582  53.752  1.00  0.00     0.161 HD
ENDROOT
BRANCH   1  19
HETATM   19  C1  UNL     1      26.255   4.269  49.336  1.00  0.00     0.246 C 
HETATM   20  O1  UNL     1      27.369   3.755  49.117  1.00  0.00    -0.278 OA
HETATM   21 BR1  UNL     1      25.953   6.100  48.906  1.00  0.00    -0.002 Br
ENDBRANCH   1  19
TORSDOF 1
ENDMDL
MODEL 9
REMARK VINA RESULT:      -7.2      3.590      5.647
REMARK  1 active torsions:
REMARK  status: ('A' for Active; 'I' for Inactive)
REMARK    1  A    between atoms: C1_2  and  C2_4 
ROOT
HETATM    1  C2  UNL     1      23.911   3.547  49.628  1.00  0.00     0.115 A 
HETATM    2  C3  UNL     1      23.123   2.596  50.299  1.00  0.00     0.054 A 
HETATM    3  C4  UNL     1      23.860   1.915  51.220  1.00  0.00     0.042 A 
HETATM    4  C5  UNL     1      23.142   0.970  51.901  1.00  0.00     0.138 A 
HETATM    5  N1  UNL     1      23.780   0.254  52.813  1.00  0.00    -0.215 NA
HETATM    6  C6  UNL     1      25.045   0.299  53.196  1.00  0.00     0.129 A 
HETATM    7  N2  UNL     1      25.765   1.225  52.536  1.00  0.00    -0.231 NA
HETATM    8  C7  UNL     1      25.204   1.991  51.599  1.00  0.00     0.090 A 
HETATM    9  C8  UNL     1      25.867   2.974  50.853  1.00  0.00     0.150 A 
HETATM   10  N3  UNL     1      25.239   3.717  49.908  1.00  0.00    -0.254 NA
HETATM   11  C9  UNL     1      25.486  -0.616  54.281  1.00  0.00     0.086 C 
HETATM   12  C10 UNL     1      24.186  -1.045  54.982  1.00  0.00     0.006 C 
HETATM   13  C11 UNL     1      22.869  -1.250  55.319  1.00  0.00     0.021 C 
HETATM   14  C12 UNL     1      21.525  -0.906  54.746  1.00  0.00    -0.023 C 
HETATM   15  C13 UNL     1      20.653  -0.379  53.843  1.00  0.00    -0.011 C 
HETATM   16  C14 UNL     1      20.567   0.356  52.552  1.00  0.00     0.148 C 
HETATM   17  N4  UNL     1      21.796   0.565  51.852  1.00  0.00    -0.371 N 
HETATM   18  H11 UNL     1      21.847   0.376  50.796  1.00  0.00     0.161 HD
ENDROOT
BRANCH   1  19
HETATM   19  C1  UNL     1      23.254   4.370  48.593  1.00  0.00     0.246 C 
HETATM   20  O1  UNL     1      23.504   5.584  48.468  1.00  0.00    -0.278 OA
HETATM   21 BR1  UNL     1      21.999   3.534  47.430  1.00  0.00    -0.002 Br
ENDBRANCH   1  19
TORSDOF 1
ENDMDL
