MODEL 1
REMARK VINA RESULT:      -7.6      0.000      0.000
REMARK  4 active torsions:
REMARK  status: ('A' for Active; 'I' for Inactive)
REMARK    1  A    between atoms: C2_2  and  C3_4 
REMARK    2  A    between atoms: C4_5  and  C5_6 
REMARK    3  A    between atoms: C5_6  and  N1_7 
REMARK    4  A    between atoms: N1_7  and  C6_8 
ROOT
HETATM    1  C6  UNL     1      22.210   2.149  52.067  1.00  0.00     0.129 A 
HETATM    2  N2  UNL     1      21.833   3.440  51.916  1.00  0.00    -0.228 NA
HETATM    3  C7  UNL     1      22.648   4.422  52.378  1.00  0.00     0.237 A 
HETATM    4  N3  UNL     1      23.829   4.179  52.988  1.00  0.00    -0.215 NA
HETATM    5  C8  UNL     1      24.216   2.891  53.144  1.00  0.00     0.201 A 
HETATM    6  C9  UNL     1      23.407   1.873  52.684  1.00  0.00     0.122 A 
HETATM    7  N4  UNL     1      23.601   0.471  52.734  1.00  0.00    -0.379 N 
HETATM    8  C10 UNL     1      24.685  -0.324  53.223  1.00  0.00     0.161 C 
HETATM    9  C11 UNL     1      25.958   0.395  53.391  1.00  0.00    -0.005 A 
HETATM   10  C12 UNL     1      27.026  -0.502  53.274  1.00  0.00     0.035 A 
HETATM   11  C13 UNL     1      28.330  -0.134  53.383  1.00  0.00     0.034 A 
HETATM   12 CL1  UNL     1      29.671  -1.245  53.238  1.00  0.00    -0.084 Cl
HETATM   13  C14 UNL     1      28.690   1.193  53.624  1.00  0.00     0.026 A 
HETATM   14  C15 UNL     1      27.654   2.102  53.745  1.00  0.00     0.039 A 
HETATM   15  C16 UNL     1      26.338   1.704  53.631  1.00  0.00     0.086 A 
HETATM   16  O1  UNL     1      25.441   2.751  53.780  1.00  0.00    -0.289 OA
HETATM   17  H7  UNL     1      22.821  -0.116  52.350  1.00  0.00     0.160 HD
ENDROOT
BRANCH   1  18
HETATM   18  N1  UNL     1      21.299   1.151  51.555  1.00  0.00    -0.283 NA
BRANCH  18  19
HETATM   19  C5  UNL     1      21.235   1.094  50.274  1.00  0.00     0.260 C 
BRANCH  19  20
HETATM   20  C4  UNL     1      21.415   0.997  48.837  1.00  0.00    -0.002 C 
HETATM   21  C3  UNL     1      22.140   1.823  48.119  1.00  0.00     0.014 C 
BRANCH  21  22
HETATM   22  C2  UNL     1      22.915   2.986  48.511  1.00  0.00    -0.016 C 
HETATM   23  C1  UNL     1      22.647   4.275  48.379  1.00  0.00     0.163 C 
HETATM   24 BR1  UNL     1      24.581   3.370  49.347  1.00  0.00    -0.165 Br
ENDBRANCH  21  22
ENDBRANCH  19  20
ENDBRANCH  18  19
ENDBRANCH   1  18
TORSDOF 4
ENDMDL
MODEL 2
REMARK VINA RESULT:      -7.5      4.209      7.518
REMARK  4 active torsions:
REMARK  status: ('A' for Active; 'I' for Inactive)
REMARK    1  A    between atoms: C2_2  and  C3_4 
REMARK    2  A    between atoms: C4_5  and  C5_6 
REMARK    3  A    between atoms: C5_6  and  N1_7 
REMARK    4  A    between atoms: N1_7  and  C6_8 
ROOT
HETATM    1  C6  UNL     1      23.916  -0.040  53.439  1.00  0.00     0.129 A 
HETATM    2  N2  UNL     1      24.432  -0.753  54.468  1.00  0.00    -0.228 NA
HETATM    3  C7  UNL     1      23.585  -1.346  55.347  1.00  0.00     0.237 A 
HETATM    4  N3  UNL     1      22.241  -1.264  55.252  1.00  0.00    -0.215 NA
HETATM    5  C8  UNL     1      21.713  -0.554  54.226  1.00  0.00     0.201 A 
HETATM    6  C9  UNL     1      22.550   0.060  53.318  1.00  0.00     0.122 A 
HETATM    7  N4  UNL     1      22.233   0.844  52.182  1.00  0.00    -0.379 N 
HETATM    8  C10 UNL     1      20.980   1.207  51.595  1.00  0.00     0.161 C 
HETATM    9  C11 UNL     1      19.836   0.377  52.005  1.00  0.00    -0.005 A 
HETATM   10  C12 UNL     1      18.861   0.387  51.000  1.00  0.00     0.035 A 
HETATM   11  C13 UNL     1      17.687  -0.291  51.089  1.00  0.00     0.034 A 
HETATM   12 CL1  UNL     1      16.463  -0.285  49.841  1.00  0.00    -0.084 Cl
HETATM   13  C14 UNL     1      17.374  -1.054  52.214  1.00  0.00     0.026 A 
HETATM   14  C15 UNL     1      18.319  -1.082  53.225  1.00  0.00     0.039 A 
HETATM   15  C16 UNL     1      19.505  -0.386  53.111  1.00  0.00     0.086 A 
HETATM   16  O1  UNL     1      20.327  -0.532  54.220  1.00  0.00    -0.289 OA
HETATM   17  H7  UNL     1      23.047   1.243  51.656  1.00  0.00     0.160 HD
ENDROOT
BRANCH   1  18
HETATM   18  N1  UNL     1      24.868   0.568  52.540  1.00  0.00    -0.283 NA
BRANCH  18  19
HETATM   19  C5  UNL     1      25.906   1.060  53.113  1.00  0.00     0.260 C 
BRANCH  19  20
HETATM   20  C4  UNL     1      27.115   1.379  53.852  1.00  0.00    -0.002 C 
HETATM   21  C3  UNL     1      28.146   0.578  53.976  1.00  0.00     0.014 C 
BRANCH  21  22
HETATM   22  C2  UNL     1      28.372  -0.759  53.458  1.00  0.00    -0.016 C 
HETATM   23  C1  UNL     1      29.481  -1.479  53.407  1.00  0.00     0.163 C 
HETATM   24 BR1  UNL     1      27.374  -2.152  52.630  1.00  0.00    -0.165 Br
ENDBRANCH  21  22
ENDBRANCH  19  20
ENDBRANCH  18  19
ENDBRANCH   1  18
TORSDOF 4
ENDMDL
MODEL 3
REMARK VINA RESULT:      -7.3      2.640      3.389
REMARK  4 active torsions:
REMARK  status: ('A' for Active; 'I' for Inactive)
REMARK    1  A    between atoms: C2_2  and  C3_4 
REMARK    2  A    between atoms: C4_5  and  C5_6 
REMARK    3  A    between atoms: C5_6  and  N1_7 
REMARK    4  A    between atoms: N1_7  and  C6_8 
ROOT
HETATM    1  C6  UNL     1      22.247   1.441  52.345  1.00  0.00     0.129 A 
HETATM    2  N2  UNL     1      21.741   2.638  51.967  1.00  0.00    -0.228 NA
HETATM    3  C7  UNL     1      22.489   3.756  52.150  1.00  0.00     0.237 A 
HETATM    4  N3  UNL     1      23.724   3.741  52.694  1.00  0.00    -0.215 NA
HETATM    5  C8  UNL     1      24.242   2.548  53.076  1.00  0.00     0.201 A 
HETATM    6  C9  UNL     1      23.504   1.396  52.902  1.00  0.00     0.122 A 
HETATM    7  N4  UNL     1      23.832   0.056  53.220  1.00  0.00    -0.379 N 
HETATM    8  C10 UNL     1      25.016  -0.531  53.767  1.00  0.00     0.161 C 
HETATM    9  C11 UNL     1      26.224   0.305  53.677  1.00  0.00    -0.005 A 
HETATM   10  C12 UNL     1      27.362  -0.509  53.655  1.00  0.00     0.035 A 
HETATM   11  C13 UNL     1      28.629  -0.024  53.577  1.00  0.00     0.034 A 
HETATM   12 CL1  UNL     1      30.057  -1.032  53.549  1.00  0.00    -0.084 Cl
HETATM   13  C14 UNL     1      28.877   1.347  53.512  1.00  0.00     0.026 A 
HETATM   14  C15 UNL     1      27.770   2.177  53.533  1.00  0.00     0.039 A 
HETATM   15  C16 UNL     1      26.494   1.661  53.613  1.00  0.00     0.086 A 
HETATM   16  O1  UNL     1      25.513   2.643  53.622  1.00  0.00    -0.289 OA
HETATM   17  H7  UNL     1      23.088  -0.658  53.030  1.00  0.00     0.160 HD
ENDROOT
BRANCH   1  18
HETATM   18  N1  UNL     1      21.404   0.290  52.126  1.00  0.00    -0.283 NA
BRANCH  18  19
HETATM   19  C5  UNL     1      20.333   0.532  51.460  1.00  0.00     0.260 C 
BRANCH  19  20
HETATM   20  C4  UNL     1      19.166   0.581  50.597  1.00  0.00    -0.002 C 
HETATM   21  C3  UNL     1      17.989   0.090  50.907  1.00  0.00     0.014 C 
BRANCH  21  22
HETATM   22  C2  UNL     1      17.535  -0.592  52.105  1.00  0.00    -0.016 C 
HETATM   23  C1  UNL     1      16.349  -0.590  52.691  1.00  0.00     0.163 C 
HETATM   24 BR1  UNL     1      18.239  -1.764  53.428  1.00  0.00    -0.165 Br
ENDBRANCH  21  22
ENDBRANCH  19  20
ENDBRANCH  18  19
ENDBRANCH   1  18
TORSDOF 4
ENDMDL
MODEL 4
REMARK VINA RESULT:      -7.3      3.934      5.607
REMARK  4 active torsions:
REMARK  status: ('A' for Active; 'I' for Inactive)
REMARK    1  A    between atoms: C2_2  and  C3_4 
REMARK    2  A    between atoms: C4_5  and  C5_6 
REMARK    3  A    between atoms: C5_6  and  N1_7 
REMARK    4  A    between atoms: N1_7  and  C6_8 
ROOT
HETATM    1  C6  UNL     1      25.504   2.342  51.247  1.00  0.00     0.129 A 
HETATM    2  N2  UNL     1      26.779   1.905  51.370  1.00  0.00    -0.228 NA
HETATM    3  C7  UNL     1      27.061   0.947  52.290  1.00  0.00     0.237 A 
HETATM    4  N3  UNL     1      26.129   0.399  53.099  1.00  0.00    -0.215 NA
HETATM    5  C8  UNL     1      24.849   0.829  52.985  1.00  0.00     0.201 A 
HETATM    6  C9  UNL     1      24.534   1.801  52.059  1.00  0.00     0.122 A 
HETATM    7  N4  UNL     1      23.284   2.397  51.763  1.00  0.00    -0.379 N 
HETATM    8  C10 UNL     1      21.971   2.164  52.279  1.00  0.00     0.161 C 
HETATM    9  C11 UNL     1      21.796   0.879  52.977  1.00  0.00    -0.005 A 
HETATM   10  C12 UNL     1      20.456   0.480  52.902  1.00  0.00     0.035 A 
HETATM   11  C13 UNL     1      19.985  -0.668  53.454  1.00  0.00     0.034 A 
HETATM   12 CL1  UNL     1      18.314  -1.176  53.367  1.00  0.00    -0.084 Cl
HETATM   13  C14 UNL     1      20.828  -1.539  54.146  1.00  0.00     0.026 A 
HETATM   14  C15 UNL     1      22.158  -1.170  54.236  1.00  0.00     0.039 A 
HETATM   15  C16 UNL     1      22.613   0.002  53.667  1.00  0.00     0.086 A 
HETATM   16  O1  UNL     1      23.973   0.204  53.859  1.00  0.00    -0.289 OA
HETATM   17  H7  UNL     1      23.295   3.152  51.035  1.00  0.00     0.160 HD
ENDROOT
BRANCH   1  18
HETATM   18  N1  UNL     1      25.269   3.362  50.252  1.00  0.00    -0.283 NA
BRANCH  18  19
HETATM   19  C5  UNL     1      26.329   3.795  49.671  1.00  0.00     0.260 C 
BRANCH  19  20
HETATM   20  C4  UNL     1      27.368   4.441  48.890  1.00  0.00    -0.002 C 
HETATM   21  C3  UNL     1      27.345   5.698  48.513  1.00  0.00     0.014 C 
BRANCH  21  22
HETATM   22  C2  UNL     1      26.355   6.735  48.742  1.00  0.00    -0.016 C 
HETATM   23  C1  UNL     1      25.549   7.349  47.891  1.00  0.00     0.163 C 
HETATM   24 BR1  UNL     1      25.667   7.748  50.198  1.00  0.00    -0.165 Br
ENDBRANCH  21  22
ENDBRANCH  19  20
ENDBRANCH  18  19
ENDBRANCH   1  18
TORSDOF 4
ENDMDL
MODEL 5
REMARK VINA RESULT:      -7.3      1.693      1.896
REMARK  4 active torsions:
REMARK  status: ('A' for Active; 'I' for Inactive)
REMARK    1  A    between atoms: C2_2  and  C3_4 
REMARK    2  A    between atoms: C4_5  and  C5_6 
REMARK    3  A    between atoms: C5_6  and  N1_7 
REMARK    4  A    between atoms: N1_7  and  C6_8 
ROOT
HETATM    1  C6  UNL     1      22.332   1.286  52.576  1.00  0.00     0.129 A 
HETATM    2  N2  UNL     1      21.796   2.444  52.128  1.00  0.00    -0.228 NA
HETATM    3  C7  UNL     1      22.533   3.583  52.202  1.00  0.00     0.237 A 
HETATM    4  N3  UNL     1      23.786   3.623  52.704  1.00  0.00    -0.215 NA
HETATM    5  C8  UNL     1      24.333   2.468  53.155  1.00  0.00     0.201 A 
HETATM    6  C9  UNL     1      23.607   1.298  53.092  1.00  0.00     0.122 A 
HETATM    7  N4  UNL     1      23.965  -0.012  53.497  1.00  0.00    -0.379 N 
HETATM    8  C10 UNL     1      25.175  -0.541  54.045  1.00  0.00     0.161 C 
HETATM    9  C11 UNL     1      26.367   0.301  53.853  1.00  0.00    -0.005 A 
HETATM   10  C12 UNL     1      27.516  -0.500  53.853  1.00  0.00     0.035 A 
HETATM   11  C13 UNL     1      28.772  -0.006  53.695  1.00  0.00     0.034 A 
HETATM   12 CL1  UNL     1      30.213  -0.996  53.693  1.00  0.00    -0.084 Cl
HETATM   13  C14 UNL     1      28.998   1.359  53.521  1.00  0.00     0.026 A 
HETATM   14  C15 UNL     1      27.880   2.175  53.518  1.00  0.00     0.039 A 
HETATM   15  C16 UNL     1      26.614   1.651  53.679  1.00  0.00     0.086 A 
HETATM   16  O1  UNL     1      25.620   2.619  53.649  1.00  0.00    -0.289 OA
HETATM   17  H7  UNL     1      23.226  -0.747  53.386  1.00  0.00     0.160 HD
ENDROOT
BRANCH   1  18
HETATM   18  N1  UNL     1      21.499   0.111  52.472  1.00  0.00    -0.283 NA
BRANCH  18  19
HETATM   19  C5  UNL     1      20.363   0.311  51.906  1.00  0.00     0.260 C 
BRANCH  19  20
HETATM   20  C4  UNL     1      19.062   0.282  51.264  1.00  0.00    -0.002 C 
HETATM   21  C3  UNL     1      18.771   0.893  50.139  1.00  0.00     0.014 C 
BRANCH  21  22
HETATM   22  C2  UNL     1      19.595   1.713  49.269  1.00  0.00    -0.016 C 
HETATM   23  C1  UNL     1      19.324   2.862  48.672  1.00  0.00     0.163 C 
HETATM   24 BR1  UNL     1      21.344   1.682  48.522  1.00  0.00    -0.165 Br
ENDBRANCH  21  22
ENDBRANCH  19  20
ENDBRANCH  18  19
ENDBRANCH   1  18
TORSDOF 4
ENDMDL
MODEL 6
REMARK VINA RESULT:      -7.1      4.460      6.090
REMARK  4 active torsions:
REMARK  status: ('A' for Active; 'I' for Inactive)
REMARK    1  A    between atoms: C2_2  and  C3_4 
REMARK    2  A    between atoms: C4_5  and  C5_6 
REMARK    3  A    between atoms: C5_6  and  N1_7 
REMARK    4  A    between atoms: N1_7  and  C6_8 
ROOT
HETATM    1  C6  UNL     1      24.429   3.095  51.903  1.00  0.00     0.129 A 
HETATM    2  N2  UNL     1      25.038   2.152  52.658  1.00  0.00    -0.228 NA
HETATM    3  C7  UNL     1      26.300   1.767  52.338  1.00  0.00     0.237 A 
HETATM    4  N3  UNL     1      26.990   2.279  51.297  1.00  0.00    -0.215 NA
HETATM    5  C8  UNL     1      26.390   3.225  50.534  1.00  0.00     0.201 A 
HETATM    6  C9  UNL     1      25.108   3.634  50.836  1.00  0.00     0.122 A 
HETATM    7  N4  UNL     1      24.291   4.595  50.191  1.00  0.00    -0.379 N 
HETATM    8  C10 UNL     1      24.534   5.460  49.078  1.00  0.00     0.161 C 
HETATM    9  C11 UNL     1      25.953   5.658  48.742  1.00  0.00    -0.005 A 
HETATM   10  C12 UNL     1      26.120   6.896  48.111  1.00  0.00     0.035 A 
HETATM   11  C13 UNL     1      27.322   7.362  47.681  1.00  0.00     0.034 A 
HETATM   12 CL1  UNL     1      27.542   8.906  46.893  1.00  0.00    -0.084 Cl
HETATM   13  C14 UNL     1      28.489   6.616  47.847  1.00  0.00     0.026 A 
HETATM   14  C15 UNL     1      28.354   5.386  48.467  1.00  0.00     0.039 A 
HETATM   15  C16 UNL     1      27.122   4.935  48.895  1.00  0.00     0.086 A 
HETATM   16  O1  UNL     1      27.182   3.684  49.492  1.00  0.00    -0.289 OA
HETATM   17  H7  UNL     1      23.324   4.713  50.581  1.00  0.00     0.160 HD
ENDROOT
BRANCH   1  18
HETATM   18  N1  UNL     1      23.087   3.461  52.293  1.00  0.00    -0.283 NA
BRANCH  18  19
HETATM   19  C5  UNL     1      22.188   2.597  51.987  1.00  0.00     0.260 C 
BRANCH  19  20
HETATM   20  C4  UNL     1      21.318   1.573  51.437  1.00  0.00    -0.002 C 
HETATM   21  C3  UNL     1      21.235   0.344  51.888  1.00  0.00     0.014 C 
BRANCH  21  22
HETATM   22  C2  UNL     1      21.929  -0.310  52.983  1.00  0.00    -0.016 C 
HETATM   23  C1  UNL     1      23.176  -0.745  53.065  1.00  0.00     0.163 C 
HETATM   24 BR1  UNL     1      21.560  -0.890  54.758  1.00  0.00    -0.165 Br
ENDBRANCH  21  22
ENDBRANCH  19  20
ENDBRANCH  18  19
ENDBRANCH   1  18
TORSDOF 4
ENDMDL
MODEL 7
REMARK VINA RESULT:      -7.0      2.218      3.201
REMARK  4 active torsions:
REMARK  status: ('A' for Active; 'I' for Inactive)
REMARK    1  A    between atoms: C2_2  and  C3_4 
REMARK    2  A    between atoms: C4_5  and  C5_6 
REMARK    3  A    between atoms: C5_6  and  N1_7 
REMARK    4  A    between atoms: N1_7  and  C6_8 
ROOT
HETATM    1  C6  UNL     1      20.817   1.056  53.214  1.00  0.00     0.129 A 
HETATM    2  N2  UNL     1      20.051   0.046  53.687  1.00  0.00    -0.228 NA
HETATM    3  C7  UNL     1      20.639  -1.140  53.991  1.00  0.00     0.237 A 
HETATM    4  N3  UNL     1      21.962  -1.369  53.846  1.00  0.00    -0.215 NA
HETATM    5  C8  UNL     1      22.739  -0.365  53.374  1.00  0.00     0.201 A 
HETATM    6  C9  UNL     1      22.168   0.850  53.057  1.00  0.00     0.122 A 
HETATM    7  N4  UNL     1      22.771   2.029  52.555  1.00  0.00    -0.379 N 
HETATM    8  C10 UNL     1      24.133   2.353  52.263  1.00  0.00     0.161 C 
HETATM    9  C11 UNL     1      25.130   1.472  52.892  1.00  0.00    -0.005 A 
HETATM   10  C12 UNL     1      26.333   2.167  53.063  1.00  0.00     0.035 A 
HETATM   11  C13 UNL     1      27.444   1.616  53.619  1.00  0.00     0.034 A 
HETATM   12 CL1  UNL     1      28.951   2.475  53.837  1.00  0.00    -0.084 Cl
HETATM   13  C14 UNL     1      27.452   0.293  54.062  1.00  0.00     0.026 A 
HETATM   14  C15 UNL     1      26.276  -0.419  53.905  1.00  0.00     0.039 A 
HETATM   15  C16 UNL     1      25.161   0.162  53.338  1.00  0.00     0.086 A 
HETATM   16  O1  UNL     1      24.079  -0.703  53.263  1.00  0.00    -0.289 OA
HETATM   17  H7  UNL     1      22.121   2.827  52.351  1.00  0.00     0.160 HD
ENDROOT
BRANCH   1  18
HETATM   18  N1  UNL     1      20.133   2.290  52.909  1.00  0.00    -0.283 NA
BRANCH  18  19
HETATM   19  C5  UNL     1      19.387   2.243  51.864  1.00  0.00     0.260 C 
BRANCH  19  20
HETATM   20  C4  UNL     1      18.738   2.308  50.568  1.00  0.00    -0.002 C 
HETATM   21  C3  UNL     1      19.363   2.232  49.416  1.00  0.00     0.014 C 
BRANCH  21  22
HETATM   22  C2  UNL     1      20.774   2.074  49.116  1.00  0.00    -0.016 C 
HETATM   23  C1  UNL     1      21.465   0.989  48.808  1.00  0.00     0.163 C 
HETATM   24 BR1  UNL     1      22.332   3.160  48.988  1.00  0.00    -0.165 Br
ENDBRANCH  21  22
ENDBRANCH  19  20
ENDBRANCH  18  19
ENDBRANCH   1  18
TORSDOF 4
ENDMDL
MODEL 8
REMARK VINA RESULT:      -6.9      1.925      3.223
REMARK  4 active torsions:
REMARK  status: ('A' for Active; 'I' for Inactive)
REMARK    1  A    between atoms: C2_2  and  C3_4 
REMARK    2  A    between atoms: C4_5  and  C5_6 
REMARK    3  A    between atoms: C5_6  and  N1_7 
REMARK    4  A    between atoms: N1_7  and  C6_8 
ROOT
HETATM    1  C6  UNL     1      23.485   4.903  51.421  1.00  0.00     0.129 A 
HETATM    2  N2  UNL     1      22.185   5.084  51.752  1.00  0.00    -0.228 NA
HETATM    3  C7  UNL     1      21.457   4.017  52.171  1.00  0.00     0.237 A 
HETATM    4  N3  UNL     1      21.965   2.770  52.277  1.00  0.00    -0.215 NA
HETATM    5  C8  UNL     1      23.265   2.577  51.949  1.00  0.00     0.201 A 
HETATM    6  C9  UNL     1      24.027   3.643  51.520  1.00  0.00     0.122 A 
HETATM    7  N4  UNL     1      25.388   3.682  51.129  1.00  0.00    -0.379 N 
HETATM    8  C10 UNL     1      26.399   2.671  51.093  1.00  0.00     0.161 C 
HETATM    9  C11 UNL     1      26.113   1.476  51.904  1.00  0.00    -0.005 A 
HETATM   10  C12 UNL     1      27.314   0.870  52.290  1.00  0.00     0.035 A 
HETATM   11  C13 UNL     1      27.374  -0.257  53.048  1.00  0.00     0.034 A 
HETATM   12 CL1  UNL     1      28.868  -1.022  53.536  1.00  0.00    -0.084 Cl
HETATM   13  C14 UNL     1      26.216  -0.890  53.497  1.00  0.00     0.026 A 
HETATM   14  C15 UNL     1      25.013  -0.313  53.130  1.00  0.00     0.039 A 
HETATM   15  C16 UNL     1      24.977   0.831  52.360  1.00  0.00     0.086 A 
HETATM   16  O1  UNL     1      23.686   1.263  52.093  1.00  0.00    -0.289 OA
HETATM   17  H7  UNL     1      25.745   4.612  50.800  1.00  0.00     0.160 HD
ENDROOT
BRANCH   1  18
HETATM   18  N1  UNL     1      24.204   6.076  50.983  1.00  0.00    -0.283 NA
BRANCH  18  19
HETATM   19  C5  UNL     1      23.957   6.432  49.774  1.00  0.00     0.260 C 
BRANCH  19  20
HETATM   20  C4  UNL     1      23.726   6.590  48.349  1.00  0.00    -0.002 C 
HETATM   21  C3  UNL     1      22.988   5.787  47.620  1.00  0.00     0.014 C 
BRANCH  21  22
HETATM   22  C2  UNL     1      22.241   4.597  47.986  1.00  0.00    -0.016 C 
HETATM   23  C1  UNL     1      20.979   4.463  48.360  1.00  0.00     0.163 C 
HETATM   24 BR1  UNL     1      22.538   2.725  48.147  1.00  0.00    -0.165 Br
ENDBRANCH  21  22
ENDBRANCH  19  20
ENDBRANCH  18  19
ENDBRANCH   1  18
TORSDOF 4
ENDMDL
MODEL 9
REMARK VINA RESULT:      -6.9      2.701      3.904
REMARK  4 active torsions:
REMARK  status: ('A' for Active; 'I' for Inactive)
REMARK    1  A    between atoms: C2_2  and  C3_4 
REMARK    2  A    between atoms: C4_5  and  C5_6 
REMARK    3  A    between atoms: C5_6  and  N1_7 
REMARK    4  A    between atoms: N1_7  and  C6_8 
ROOT
HETATM    1  C6  UNL     1      23.552   5.003  51.529  1.00  0.00     0.129 A 
HETATM    2  N2  UNL     1      22.246   5.182  51.834  1.00  0.00    -0.228 NA
HETATM    3  C7  UNL     1      21.497   4.103  52.179  1.00  0.00     0.237 A 
HETATM    4  N3  UNL     1      21.989   2.847  52.237  1.00  0.00    -0.215 NA
HETATM    5  C8  UNL     1      23.296   2.656  51.934  1.00  0.00     0.201 A 
HETATM    6  C9  UNL     1      24.080   3.734  51.580  1.00  0.00     0.122 A 
HETATM    7  N4  UNL     1      25.451   3.778  51.227  1.00  0.00    -0.379 N 
HETATM    8  C10 UNL     1      26.452   2.759  51.169  1.00  0.00     0.161 C 
HETATM    9  C11 UNL     1      26.133   1.529  51.911  1.00  0.00    -0.005 A 
HETATM   10  C12 UNL     1      27.317   0.890  52.298  1.00  0.00     0.035 A 
HETATM   11  C13 UNL     1      27.346  -0.273  53.000  1.00  0.00     0.034 A 
HETATM   12 CL1  UNL     1      28.818  -1.078  53.489  1.00  0.00    -0.084 Cl
HETATM   13  C14 UNL     1      26.169  -0.915  53.386  1.00  0.00     0.026 A 
HETATM   14  C15 UNL     1      24.983  -0.307  53.016  1.00  0.00     0.039 A 
HETATM   15  C16 UNL     1      24.979   0.874  52.303  1.00  0.00     0.086 A 
HETATM   16  O1  UNL     1      23.700   1.333  52.023  1.00  0.00    -0.289 OA
HETATM   17  H7  UNL     1      25.826   4.719  50.955  1.00  0.00     0.160 HD
ENDROOT
BRANCH   1  18
HETATM   18  N1  UNL     1      24.294   6.189  51.169  1.00  0.00    -0.283 NA
BRANCH  18  19
HETATM   19  C5  UNL     1      24.217   6.510  49.928  1.00  0.00     0.260 C 
BRANCH  19  20
HETATM   20  C4  UNL     1      24.300   7.054  48.585  1.00  0.00    -0.002 C 
HETATM   21  C3  UNL     1      25.407   7.153  47.888  1.00  0.00     0.014 C 
BRANCH  21  22
HETATM   22  C2  UNL     1      26.770   6.780  48.220  1.00  0.00    -0.016 C 
HETATM   23  C1  UNL     1      27.274   5.605  48.561  1.00  0.00     0.163 C 
HETATM   24 BR1  UNL     1      28.477   7.608  48.367  1.00  0.00    -0.165 Br
ENDBRANCH  21  22
ENDBRANCH  19  20
ENDBRANCH  18  19
ENDBRANCH   1  18
TORSDOF 4
ENDMDL
