MODEL 1
REMARK VINA RESULT:      -8.2      0.000      0.000
REMARK  4 active torsions:
REMARK  status: ('A' for Active; 'I' for Inactive)
REMARK    1  A    between atoms: C2_2  and  C3_3 
REMARK       I    between atoms: C3_3  and  N1_5 
REMARK    2  A    between atoms: N1_5  and  C4_6 
REMARK    3  A    between atoms: C9_13  and  N4_14 
REMARK    4  A    between atoms: N4_14  and  C10_15 
ROOT
HETATM    1  C4  UNL     1      26.310   0.273  52.498  1.00  0.00     0.036 A 
HETATM    2  C5  UNL     1      25.370  -0.204  53.419  1.00  0.00     0.032 A 
HETATM    3  C6  UNL     1      24.066   0.290  53.458  1.00  0.00     0.035 A 
HETATM    4  C7  UNL     1      23.706   1.271  52.559  1.00  0.00     0.072 A 
HETATM    5  N2  UNL     1      22.475   1.808  52.513  1.00  0.00    -0.241 NA
HETATM    6  C8  UNL     1      22.169   2.759  51.619  1.00  0.00     0.236 A 
HETATM    7  N3  UNL     1      23.079   3.209  50.736  1.00  0.00    -0.224 NA
HETATM    8  C9  UNL     1      24.342   2.700  50.739  1.00  0.00     0.142 A 
HETATM    9  C15 UNL     1      24.639   1.732  51.657  1.00  0.00     0.041 A 
HETATM   10  C16 UNL     1      25.931   1.253  51.608  1.00  0.00     0.047 A 
ENDROOT
BRANCH   8  11
HETATM   11  N4  UNL     1      25.237   3.213  49.772  1.00  0.00    -0.340 N 
HETATM   12  H8  UNL     1      25.473   2.291  49.316  1.00  0.00     0.167 HD
BRANCH  11  13
HETATM   13  C10 UNL     1      25.799   4.443  49.343  1.00  0.00     0.031 A 
HETATM   14  C11 UNL     1      25.385   5.682  49.183  1.00  0.00     0.008 A 
HETATM   15  C12 UNL     1      26.506   6.495  48.691  1.00  0.00     0.075 A 
HETATM   16  C13 UNL     1      27.627   5.536  48.591  1.00  0.00    -0.006 A 
HETATM   17 BR1  UNL     1      29.290   6.232  47.977  1.00  0.00    -0.055 Br
HETATM   18  C14 UNL     1      27.204   4.328  48.977  1.00  0.00     0.044 A 
ENDBRANCH  11  13
ENDBRANCH   8  11
BRANCH   1  19
HETATM   19  N1  UNL     1      27.526  -0.411  52.698  1.00  0.00    -0.324 N 
HETATM   20  C3  UNL     1      28.427   0.113  53.692  1.00  0.00     0.244 C 
HETATM   21  O1  UNL     1      28.407   1.091  54.480  1.00  0.00    -0.268 OA
HETATM   22  H4  UNL     1      27.853  -1.268  52.197  1.00  0.00     0.169 HD
BRANCH  20  23
HETATM   23  C2  UNL     1      29.711  -0.593  53.923  1.00  0.00     0.064 C 
HETATM   24  C1  UNL     1      29.370  -1.746  53.325  1.00  0.00     0.017 C 
ENDBRANCH  20  23
ENDBRANCH   1  19
TORSDOF 4
ENDMDL
MODEL 2
REMARK VINA RESULT:      -8.0      2.121      3.017
REMARK  4 active torsions:
REMARK  status: ('A' for Active; 'I' for Inactive)
REMARK    1  A    between atoms: C2_2  and  C3_3 
REMARK       I    between atoms: C3_3  and  N1_5 
REMARK    2  A    between atoms: N1_5  and  C4_6 
REMARK    3  A    between atoms: C9_13  and  N4_14 
REMARK    4  A    between atoms: N4_14  and  C10_15 
ROOT
HETATM    1  C4  UNL     1      25.013  -0.661  54.177  1.00  0.00     0.036 A 
HETATM    2  C5  UNL     1      24.344  -1.245  55.260  1.00  0.00     0.032 A 
HETATM    3  C6  UNL     1      22.953  -1.220  55.360  1.00  0.00     0.035 A 
HETATM    4  C7  UNL     1      22.231  -0.604  54.361  1.00  0.00     0.072 A 
HETATM    5  N2  UNL     1      20.889  -0.532  54.364  1.00  0.00    -0.241 NA
HETATM    6  C8  UNL     1      20.228   0.075  53.368  1.00  0.00     0.236 A 
HETATM    7  N3  UNL     1      20.880   0.631  52.330  1.00  0.00    -0.224 NA
HETATM    8  C9  UNL     1      22.240   0.587  52.277  1.00  0.00     0.142 A 
HETATM    9  C15 UNL     1      22.899  -0.034  53.300  1.00  0.00     0.041 A 
HETATM   10  C16 UNL     1      24.274  -0.051  53.189  1.00  0.00     0.047 A 
ENDROOT
BRANCH   8  11
HETATM   11  N4  UNL     1      22.852   1.180  51.150  1.00  0.00    -0.340 N 
HETATM   12  H8  UNL     1      23.196   0.285  50.707  1.00  0.00     0.167 HD
BRANCH  11  13
HETATM   13  C10 UNL     1      23.081   2.455  50.571  1.00  0.00     0.031 A 
HETATM   14  C11 UNL     1      22.346   3.464  50.154  1.00  0.00     0.008 A 
HETATM   15  C12 UNL     1      23.235   4.518  49.645  1.00  0.00     0.075 A 
HETATM   16  C13 UNL     1      24.592   3.962  49.832  1.00  0.00    -0.006 A 
HETATM   17 BR1  UNL     1      26.046   5.061  49.281  1.00  0.00    -0.055 Br
HETATM   18  C14 UNL     1      24.496   2.745  50.378  1.00  0.00     0.044 A 
ENDBRANCH  11  13
ENDBRANCH   8  11
BRANCH   1  19
HETATM   19  N1  UNL     1      26.400  -0.845  54.351  1.00  0.00    -0.324 N 
HETATM   20  C3  UNL     1      27.200   0.325  54.605  1.00  0.00     0.244 C 
HETATM   21  O1  UNL     1      26.963   1.553  54.718  1.00  0.00    -0.268 OA
HETATM   22  H4  UNL     1      26.921  -1.751  54.314  1.00  0.00     0.169 HD
BRANCH  20  23
HETATM   23  C2  UNL     1      28.660   0.154  54.795  1.00  0.00     0.064 C 
HETATM   24  C1  UNL     1      28.870  -0.633  53.728  1.00  0.00     0.017 C 
ENDBRANCH  20  23
ENDBRANCH   1  19
TORSDOF 4
ENDMDL
MODEL 3
REMARK VINA RESULT:      -7.5      3.316      6.474
REMARK  4 active torsions:
REMARK  status: ('A' for Active; 'I' for Inactive)
REMARK    1  A    between atoms: C2_2  and  C3_3 
REMARK       I    between atoms: C3_3  and  N1_5 
REMARK    2  A    between atoms: N1_5  and  C4_6 
REMARK    3  A    between atoms: C9_13  and  N4_14 
REMARK    4  A    between atoms: N4_14  and  C10_15 
ROOT
HETATM    1  C4  UNL     1      22.486   2.722  51.897  1.00  0.00     0.036 A 
HETATM    2  C5  UNL     1      21.121   2.859  52.176  1.00  0.00     0.032 A 
HETATM    3  C6  UNL     1      20.420   1.892  52.898  1.00  0.00     0.035 A 
HETATM    4  C7  UNL     1      21.102   0.780  53.344  1.00  0.00     0.072 A 
HETATM    5  N2  UNL     1      20.519  -0.203  54.050  1.00  0.00    -0.241 NA
HETATM    6  C8  UNL     1      21.222  -1.266  54.465  1.00  0.00     0.236 A 
HETATM    7  N3  UNL     1      22.535  -1.387  54.194  1.00  0.00    -0.224 NA
HETATM    8  C9  UNL     1      23.175  -0.420  53.481  1.00  0.00     0.142 A 
HETATM    9  C15 UNL     1      22.444   0.656  53.064  1.00  0.00     0.041 A 
HETATM   10  C16 UNL     1      23.149   1.604  52.351  1.00  0.00     0.047 A 
ENDROOT
BRANCH   8  11
HETATM   11  N4  UNL     1      24.556  -0.611  53.248  1.00  0.00    -0.340 N 
HETATM   12  H8  UNL     1      24.459  -1.139  52.339  1.00  0.00     0.167 HD
BRANCH  11  13
HETATM   13  C10 UNL     1      25.816  -0.323  53.832  1.00  0.00     0.031 A 
HETATM   14  C11 UNL     1      26.259   0.359  54.867  1.00  0.00     0.008 A 
HETATM   15  C12 UNL     1      27.724   0.250  54.912  1.00  0.00     0.075 A 
HETATM   16  C13 UNL     1      28.057  -0.597  53.747  1.00  0.00    -0.006 A 
HETATM   17 BR1  UNL     1      29.902  -0.974  53.467  1.00  0.00    -0.055 Br
HETATM   18  C14 UNL     1      26.928  -0.932  53.114  1.00  0.00     0.044 A 
ENDBRANCH  11  13
ENDBRANCH   8  11
BRANCH   1  19
HETATM   19  N1  UNL     1      22.911   3.846  51.161  1.00  0.00    -0.324 N 
HETATM   20  C3  UNL     1      23.454   4.957  51.898  1.00  0.00     0.244 C 
HETATM   21  O1  UNL     1      23.660   5.199  53.113  1.00  0.00    -0.268 OA
HETATM   22  H4  UNL     1      22.874   3.966  50.123  1.00  0.00     0.169 HD
BRANCH  20  23
HETATM   23  C2  UNL     1      23.912   6.149  51.144  1.00  0.00     0.064 C 
HETATM   24  C1  UNL     1      22.694   6.638  50.861  1.00  0.00     0.017 C 
ENDBRANCH  20  23
ENDBRANCH   1  19
TORSDOF 4
ENDMDL
MODEL 4
REMARK VINA RESULT:      -7.5      3.673      6.561
REMARK  4 active torsions:
REMARK  status: ('A' for Active; 'I' for Inactive)
REMARK    1  A    between atoms: C2_2  and  C3_3 
REMARK       I    between atoms: C3_3  and  N1_5 
REMARK    2  A    between atoms: N1_5  and  C4_6 
REMARK    3  A    between atoms: C9_13  and  N4_14 
REMARK    4  A    between atoms: N4_14  and  C10_15 
ROOT
HETATM    1  C4  UNL     1      26.383   2.083  51.784  1.00  0.00     0.036 A 
HETATM    2  C5  UNL     1      27.466   2.110  52.672  1.00  0.00     0.032 A 
HETATM    3  C6  UNL     1      27.467   1.360  53.849  1.00  0.00     0.035 A 
HETATM    4  C7  UNL     1      26.369   0.576  54.132  1.00  0.00     0.072 A 
HETATM    5  N2  UNL     1      26.276  -0.184  55.236  1.00  0.00    -0.241 NA
HETATM    6  C8  UNL     1      25.189  -0.934  55.468  1.00  0.00     0.236 A 
HETATM    7  N3  UNL     1      24.154  -0.954  54.608  1.00  0.00    -0.224 NA
HETATM    8  C9  UNL     1      24.196  -0.202  53.473  1.00  0.00     0.142 A 
HETATM    9  C15 UNL     1      25.310   0.557  53.251  1.00  0.00     0.041 A 
HETATM   10  C16 UNL     1      25.296   1.293  52.084  1.00  0.00     0.047 A 
ENDROOT
BRANCH   8  11
HETATM   11  N4  UNL     1      23.079  -0.287  52.612  1.00  0.00    -0.340 N 
HETATM   12  H8  UNL     1      23.619  -0.455  51.721  1.00  0.00     0.167 HD
BRANCH  11  13
HETATM   13  C10 UNL     1      21.663  -0.213  52.645  1.00  0.00     0.031 A 
HETATM   14  C11 UNL     1      20.708  -0.477  53.512  1.00  0.00     0.008 A 
HETATM   15  C12 UNL     1      19.410  -0.168  52.895  1.00  0.00     0.075 A 
HETATM   16  C13 UNL     1      19.763   0.313  51.542  1.00  0.00    -0.006 A 
HETATM   17 BR1  UNL     1      18.314   0.824  50.416  1.00  0.00    -0.055 Br
HETATM   18  C14 UNL     1      21.092   0.285  51.400  1.00  0.00     0.044 A 
ENDBRANCH  11  13
ENDBRANCH   8  11
BRANCH   1  19
HETATM   19  N1  UNL     1      26.671   2.931  50.696  1.00  0.00    -0.324 N 
HETATM   20  C3  UNL     1      25.724   3.973  50.397  1.00  0.00     0.244 C 
HETATM   21  O1  UNL     1      24.630   4.346  50.890  1.00  0.00    -0.268 OA
HETATM   22  H4  UNL     1      27.508   2.887  50.071  1.00  0.00     0.169 HD
BRANCH  20  23
HETATM   23  C2  UNL     1      26.007   4.880  49.259  1.00  0.00     0.064 C 
HETATM   24  C1  UNL     1      27.216   4.381  48.953  1.00  0.00     0.017 C 
ENDBRANCH  20  23
ENDBRANCH   1  19
TORSDOF 4
ENDMDL
MODEL 5
REMARK VINA RESULT:      -7.5      2.834      5.303
REMARK  4 active torsions:
REMARK  status: ('A' for Active; 'I' for Inactive)
REMARK    1  A    between atoms: C2_2  and  C3_3 
REMARK       I    between atoms: C3_3  and  N1_5 
REMARK    2  A    between atoms: N1_5  and  C4_6 
REMARK    3  A    between atoms: C9_13  and  N4_14 
REMARK    4  A    between atoms: N4_14  and  C10_15 
ROOT
HETATM    1  C4  UNL     1      22.555  -0.744  53.858  1.00  0.00     0.036 A 
HETATM    2  C5  UNL     1      22.867  -1.305  55.102  1.00  0.00     0.032 A 
HETATM    3  C6  UNL     1      24.148  -1.211  55.647  1.00  0.00     0.035 A 
HETATM    4  C7  UNL     1      25.121  -0.545  54.933  1.00  0.00     0.072 A 
HETATM    5  N2  UNL     1      26.381  -0.396  55.374  1.00  0.00    -0.241 NA
HETATM    6  C8  UNL     1      27.294   0.263  54.646  1.00  0.00     0.236 A 
HETATM    7  N3  UNL     1      26.983   0.800  53.452  1.00  0.00    -0.224 NA
HETATM    8  C9  UNL     1      25.721   0.679  52.958  1.00  0.00     0.142 A 
HETATM    9  C15 UNL     1      24.802   0.004  53.711  1.00  0.00     0.041 A 
HETATM   10  C16 UNL     1      23.540  -0.083  53.160  1.00  0.00     0.047 A 
ENDROOT
BRANCH   8  11
HETATM   11  N4  UNL     1      25.467   1.282  51.705  1.00  0.00    -0.340 N 
HETATM   12  H8  UNL     1      25.357   0.388  51.154  1.00  0.00     0.167 HD
BRANCH  11  13
HETATM   13  C10 UNL     1      25.349   2.564  51.110  1.00  0.00     0.031 A 
HETATM   14  C11 UNL     1      24.459   3.534  51.092  1.00  0.00     0.008 A 
HETATM   15  C12 UNL     1      24.970   4.628  50.254  1.00  0.00     0.075 A 
HETATM   16  C13 UNL     1      26.287   4.140  49.792  1.00  0.00    -0.006 A 
HETATM   17 BR1  UNL     1      27.278   5.308  48.660  1.00  0.00    -0.055 Br
HETATM   18  C14 UNL     1      26.505   2.923  50.299  1.00  0.00     0.044 A 
ENDBRANCH  11  13
ENDBRANCH   8  11
BRANCH   1  19
HETATM   19  N1  UNL     1      21.197  -0.998  53.576  1.00  0.00    -0.324 N 
HETATM   20  C3  UNL     1      20.431   0.066  52.980  1.00  0.00     0.244 C 
HETATM   21  O1  UNL     1      20.680   1.244  52.622  1.00  0.00    -0.268 OA
HETATM   22  H4  UNL     1      20.675  -1.886  53.756  1.00  0.00     0.169 HD
BRANCH  20  23
HETATM   23  C2  UNL     1      19.003  -0.180  52.671  1.00  0.00     0.064 C 
HETATM   24  C1  UNL     1      19.014   0.340  51.433  1.00  0.00     0.017 C 
ENDBRANCH  20  23
ENDBRANCH   1  19
TORSDOF 4
ENDMDL
MODEL 6
REMARK VINA RESULT:      -7.5      3.752      5.969
REMARK  4 active torsions:
REMARK  status: ('A' for Active; 'I' for Inactive)
REMARK    1  A    between atoms: C2_2  and  C3_3 
REMARK       I    between atoms: C3_3  and  N1_5 
REMARK    2  A    between atoms: N1_5  and  C4_6 
REMARK    3  A    between atoms: C9_13  and  N4_14 
REMARK    4  A    between atoms: N4_14  and  C10_15 
ROOT
HETATM    1  C4  UNL     1      26.153   1.992  52.672  1.00  0.00     0.036 A 
HETATM    2  C5  UNL     1      26.813   2.489  51.543  1.00  0.00     0.032 A 
HETATM    3  C6  UNL     1      26.112   2.918  50.414  1.00  0.00     0.035 A 
HETATM    4  C7  UNL     1      24.736   2.845  50.426  1.00  0.00     0.072 A 
HETATM    5  N2  UNL     1      23.972   3.236  49.393  1.00  0.00    -0.241 NA
HETATM    6  C8  UNL     1      22.635   3.151  49.450  1.00  0.00     0.236 A 
HETATM    7  N3  UNL     1      22.010   2.673  50.542  1.00  0.00    -0.224 NA
HETATM    8  C9  UNL     1      22.736   2.262  51.618  1.00  0.00     0.142 A 
HETATM    9  C15 UNL     1      24.097   2.355  51.544  1.00  0.00     0.041 A 
HETATM   10  C16 UNL     1      24.778   1.927  52.665  1.00  0.00     0.047 A 
ENDROOT
BRANCH   8  11
HETATM   11  N4  UNL     1      22.008   1.785  52.732  1.00  0.00    -0.340 N 
HETATM   12  H8  UNL     1      21.932   2.709  53.238  1.00  0.00     0.167 HD
BRANCH  11  13
HETATM   13  C10 UNL     1      21.456   0.585  53.248  1.00  0.00     0.031 A 
HETATM   14  C11 UNL     1      21.872  -0.422  53.987  1.00  0.00     0.008 A 
HETATM   15  C12 UNL     1      20.763  -1.371  54.160  1.00  0.00     0.075 A 
HETATM   16  C13 UNL     1      19.647  -0.759  53.408  1.00  0.00    -0.006 A 
HETATM   17 BR1  UNL     1      18.000  -1.714  53.401  1.00  0.00    -0.055 Br
HETATM   18  C14 UNL     1      20.061   0.394  52.872  1.00  0.00     0.044 A 
ENDBRANCH  11  13
ENDBRANCH   8  11
BRANCH   1  19
HETATM   19  N1  UNL     1      27.116   1.644  53.641  1.00  0.00    -0.324 N 
HETATM   20  C3  UNL     1      27.666   0.315  53.585  1.00  0.00     0.244 C 
HETATM   21  O1  UNL     1      27.496  -0.685  52.843  1.00  0.00    -0.268 OA
HETATM   22  H4  UNL     1      27.480   2.253  54.409  1.00  0.00     0.169 HD
BRANCH  20  23
HETATM   23  C2  UNL     1      28.684  -0.072  54.591  1.00  0.00     0.064 C 
HETATM   24  C1  UNL     1      29.581  -0.574  53.728  1.00  0.00     0.017 C 
ENDBRANCH  20  23
ENDBRANCH   1  19
TORSDOF 4
ENDMDL
MODEL 7
REMARK VINA RESULT:      -7.3      1.560      1.995
REMARK  4 active torsions:
REMARK  status: ('A' for Active; 'I' for Inactive)
REMARK    1  A    between atoms: C2_2  and  C3_3 
REMARK       I    between atoms: C3_3  and  N1_5 
REMARK    2  A    between atoms: N1_5  and  C4_6 
REMARK    3  A    between atoms: C9_13  and  N4_14 
REMARK    4  A    between atoms: N4_14  and  C10_15 
ROOT
HETATM    1  C4  UNL     1      25.050   0.556  52.901  1.00  0.00     0.036 A 
HETATM    2  C5  UNL     1      24.215  -0.475  53.349  1.00  0.00     0.032 A 
HETATM    3  C6  UNL     1      22.831  -0.316  53.427  1.00  0.00     0.035 A 
HETATM    4  C7  UNL     1      22.284   0.891  53.047  1.00  0.00     0.072 A 
HETATM    5  N2  UNL     1      20.965   1.141  53.081  1.00  0.00    -0.241 NA
HETATM    6  C8  UNL     1      20.477   2.330  52.699  1.00  0.00     0.236 A 
HETATM    7  N3  UNL     1      21.287   3.314  52.267  1.00  0.00    -0.224 NA
HETATM    8  C9  UNL     1      22.633   3.114  52.213  1.00  0.00     0.142 A 
HETATM    9  C15 UNL     1      23.115   1.897  52.607  1.00  0.00     0.041 A 
HETATM   10  C16 UNL     1      24.484   1.753  52.526  1.00  0.00     0.047 A 
ENDROOT
BRANCH   8  11
HETATM   11  N4  UNL     1      23.417   4.189  51.736  1.00  0.00    -0.340 N 
HETATM   12  H8  UNL     1      23.689   4.576  52.680  1.00  0.00     0.167 HD
BRANCH  11  13
HETATM   13  C10 UNL     1      23.849   4.774  50.518  1.00  0.00     0.031 A 
HETATM   14  C11 UNL     1      23.289   5.176  49.396  1.00  0.00     0.008 A 
HETATM   15  C12 UNL     1      24.335   5.705  48.510  1.00  0.00     0.075 A 
HETATM   16  C13 UNL     1      25.580   5.547  49.291  1.00  0.00    -0.006 A 
HETATM   17 BR1  UNL     1      27.189   6.136  48.459  1.00  0.00    -0.055 Br
HETATM   18  C14 UNL     1      25.288   4.997  50.474  1.00  0.00     0.044 A 
ENDBRANCH  11  13
ENDBRANCH   8  11
BRANCH   1  19
HETATM   19  N1  UNL     1      26.384   0.102  52.932  1.00  0.00    -0.324 N 
HETATM   20  C3  UNL     1      27.127   0.304  54.148  1.00  0.00     0.244 C 
HETATM   21  O1  UNL     1      26.875   0.817  55.267  1.00  0.00    -0.268 OA
HETATM   22  H4  UNL     1      26.903  -0.371  52.157  1.00  0.00     0.169 HD
BRANCH  20  23
HETATM   23  C2  UNL     1      28.531  -0.169  54.204  1.00  0.00     0.064 C 
HETATM   24  C1  UNL     1      29.109   1.013  53.937  1.00  0.00     0.017 C 
ENDBRANCH  20  23
ENDBRANCH   1  19
TORSDOF 4
ENDMDL
MODEL 8
REMARK VINA RESULT:      -7.3      4.507      7.551
REMARK  4 active torsions:
REMARK  status: ('A' for Active; 'I' for Inactive)
REMARK    1  A    between atoms: C2_2  and  C3_3 
REMARK       I    between atoms: C3_3  and  N1_5 
REMARK    2  A    between atoms: N1_5  and  C4_6 
REMARK    3  A    between atoms: C9_13  and  N4_14 
REMARK    4  A    between atoms: N4_14  and  C10_15 
ROOT
HETATM    1  C4  UNL     1      23.877   1.540  51.708  1.00  0.00     0.036 A 
HETATM    2  C5  UNL     1      25.153   1.111  52.090  1.00  0.00     0.032 A 
HETATM    3  C6  UNL     1      25.340   0.222  53.150  1.00  0.00     0.035 A 
HETATM    4  C7  UNL     1      24.231  -0.237  53.828  1.00  0.00     0.072 A 
HETATM    5  N2  UNL     1      24.306  -1.096  54.858  1.00  0.00    -0.241 NA
HETATM    6  C8  UNL     1      23.199  -1.519  55.486  1.00  0.00     0.236 A 
HETATM    7  N3  UNL     1      21.977  -1.102  55.109  1.00  0.00    -0.224 NA
HETATM    8  C9  UNL     1      21.843  -0.231  54.072  1.00  0.00     0.142 A 
HETATM    9  C15 UNL     1      22.980   0.191  53.442  1.00  0.00     0.041 A 
HETATM   10  C16 UNL     1      22.782   1.069  52.397  1.00  0.00     0.047 A 
ENDROOT
BRANCH   8  11
HETATM   11  N4  UNL     1      20.527   0.150  53.726  1.00  0.00    -0.340 N 
HETATM   12  H8  UNL     1      20.597   1.153  54.047  1.00  0.00     0.167 HD
BRANCH  11  13
HETATM   13  C10 UNL     1      19.344  -0.389  53.158  1.00  0.00     0.031 A 
HETATM   14  C11 UNL     1      18.468  -1.320  53.471  1.00  0.00     0.008 A 
HETATM   15  C12 UNL     1      17.445  -1.380  52.418  1.00  0.00     0.075 A 
HETATM   16  C13 UNL     1      17.865  -0.342  51.452  1.00  0.00    -0.006 A 
HETATM   17 BR1  UNL     1      16.761  -0.112  49.917  1.00  0.00    -0.055 Br
HETATM   18  C14 UNL     1      18.985   0.239  51.893  1.00  0.00     0.044 A 
ENDBRANCH  11  13
ENDBRANCH   8  11
BRANCH   1  19
HETATM   19  N1  UNL     1      24.006   2.423  50.616  1.00  0.00    -0.324 N 
HETATM   20  C3  UNL     1      23.979   3.835  50.896  1.00  0.00     0.244 C 
HETATM   21  O1  UNL     1      23.861   4.531  51.936  1.00  0.00    -0.268 OA
HETATM   22  H4  UNL     1      24.119   2.163  49.610  1.00  0.00     0.169 HD
BRANCH  20  23
HETATM   23  C2  UNL     1      24.118   4.782  49.765  1.00  0.00     0.064 C 
HETATM   24  C1  UNL     1      23.555   3.999  48.830  1.00  0.00     0.017 C 
ENDBRANCH  20  23
ENDBRANCH   1  19
TORSDOF 4
ENDMDL
MODEL 9
REMARK VINA RESULT:      -7.2      4.364      6.841
REMARK  4 active torsions:
REMARK  status: ('A' for Active; 'I' for Inactive)
REMARK    1  A    between atoms: C2_2  and  C3_3 
REMARK       I    between atoms: C3_3  and  N1_5 
REMARK    2  A    between atoms: N1_5  and  C4_6 
REMARK    3  A    between atoms: C9_13  and  N4_14 
REMARK    4  A    between atoms: N4_14  and  C10_15 
ROOT
HETATM    1  C4  UNL     1      20.790   1.042  51.759  1.00  0.00     0.036 A 
HETATM    2  C5  UNL     1      19.746   0.347  52.381  1.00  0.00     0.032 A 
HETATM    3  C6  UNL     1      19.975  -0.510  53.458  1.00  0.00     0.035 A 
HETATM    4  C7  UNL     1      21.267  -0.667  53.912  1.00  0.00     0.072 A 
HETATM    5  N2  UNL     1      21.590  -1.465  54.943  1.00  0.00    -0.241 NA
HETATM    6  C8  UNL     1      22.861  -1.584  55.353  1.00  0.00     0.236 A 
HETATM    7  N3  UNL     1      23.858  -0.910  54.749  1.00  0.00    -0.224 NA
HETATM    8  C9  UNL     1      23.586  -0.088  53.699  1.00  0.00     0.142 A 
HETATM    9  C15 UNL     1      22.286   0.022  53.293  1.00  0.00     0.041 A 
HETATM   10  C16 UNL     1      22.073   0.872  52.227  1.00  0.00     0.047 A 
ENDROOT
BRANCH   8  11
HETATM   11  N4  UNL     1      24.683   0.596  53.126  1.00  0.00    -0.340 N 
HETATM   12  H8  UNL     1      24.168   0.982  52.289  1.00  0.00     0.167 HD
BRANCH  11  13
HETATM   13  C10 UNL     1      26.060   0.844  53.357  1.00  0.00     0.031 A 
HETATM   14  C11 UNL     1      26.811   1.886  53.646  1.00  0.00     0.008 A 
HETATM   15  C12 UNL     1      28.209   1.446  53.756  1.00  0.00     0.075 A 
HETATM   16  C13 UNL     1      28.149  -0.007  53.485  1.00  0.00    -0.006 A 
HETATM   17 BR1  UNL     1      29.801  -0.952  53.540  1.00  0.00    -0.055 Br
HETATM   18  C14 UNL     1      26.879  -0.356  53.250  1.00  0.00     0.044 A 
ENDBRANCH  11  13
ENDBRANCH   8  11
BRANCH   1  19
HETATM   19  N1  UNL     1      20.254   1.822  50.715  1.00  0.00    -0.324 N 
HETATM   20  C3  UNL     1      20.721   1.557  49.379  1.00  0.00     0.244 C 
HETATM   21  O1  UNL     1      21.540   0.753  48.869  1.00  0.00    -0.268 OA
HETATM   22  H4  UNL     1      19.546   2.586  50.804  1.00  0.00     0.169 HD
BRANCH  20  23
HETATM   23  C2  UNL     1      20.168   2.363  48.264  1.00  0.00     0.064 C 
HETATM   24  C1  UNL     1      19.610   3.322  49.021  1.00  0.00     0.017 C 
ENDBRANCH  20  23
ENDBRANCH   1  19
TORSDOF 4
ENDMDL
