MODEL 1
REMARK VINA RESULT:      -6.8      0.000      0.000
REMARK  6 active torsions:
REMARK  status: ('A' for Active; 'I' for Inactive)
REMARK    1  A    between atoms: C8_10  and  C9_11 
REMARK    2  A    between atoms: N3_18  and  C14_19 
REMARK    3  A    between atoms: C14_19  and  C16_21 
REMARK    4  A    between atoms: C16_21  and  C17_22 
REMARK    5  A    between atoms: N4_23  and  C18_24 
REMARK    6  A    between atoms: C18_24  and  C19_25 
ROOT
HETATM    1  C1  UNL     1      15.251   1.643  51.436  1.00  0.00     0.045 C 
HETATM    2  C2  UNL     1      16.699   1.904  51.544  1.00  0.00    -0.059 C 
HETATM    3  C3  UNL     1      17.128   3.186  51.606  1.00  0.00     0.032 C 
HETATM    4  C4  UNL     1      15.995   4.126  51.547  1.00  0.00     0.070 C 
HETATM    5  N1  UNL     1      18.470   3.258  51.728  1.00  0.00    -0.266 NA
HETATM    6  C5  UNL     1      19.409   3.843  51.184  1.00  0.00     0.136 C 
HETATM    7  C6  UNL     1      20.662   3.414  51.876  1.00  0.00     0.229 C 
HETATM    8  N2  UNL     1      20.435   2.501  52.985  1.00  0.00    -0.367 N 
HETATM    9  C7  UNL     1      20.561   1.056  52.953  1.00  0.00     0.017 C 
HETATM   10  C8  UNL     1      20.911   0.383  54.020  1.00  0.00     0.014 C 
HETATM   11  C10 UNL     1      20.253   0.503  51.614  1.00  0.00     0.132 C 
HETATM   12  C11 UNL     1      18.816   0.140  51.557  1.00  0.00     0.047 C 
HETATM   13  C12 UNL     1      17.586   0.691  51.535  1.00  0.00     0.008 C 
HETATM   14  C13 UNL     1      20.660   1.498  50.546  1.00  0.00     0.232 C 
HETATM   15  O1  UNL     1      20.678   1.922  49.371  1.00  0.00    -0.272 OA
HETATM   16  N3  UNL     1      21.469   2.638  50.936  1.00  0.00    -0.321 N 
HETATM   17  H9  UNL     1      20.155   2.889  53.902  1.00  0.00     0.161 HD
ENDROOT
BRANCH  16  18
HETATM   18  C14 UNL     1      22.778   3.121  50.623  1.00  0.00     0.090 C 
HETATM   19  C15 UNL     1      23.113   4.392  51.370  1.00  0.00     0.033 C 
BRANCH  18  20
HETATM   20  C16 UNL     1      23.789   2.061  51.090  1.00  0.00     0.072 C 
BRANCH  20  21
HETATM   21  C17 UNL     1      24.280   2.437  52.457  1.00  0.00     0.091 C 
HETATM   22  N4  UNL     1      24.935   1.943  53.481  1.00  0.00    -0.276 NA
BRANCH  22  23
HETATM   23  C18 UNL     1      25.382   0.577  53.355  1.00  0.00     0.127 C 
BRANCH  23  24
HETATM   24  C19 UNL     1      25.763  -0.600  52.916  1.00  0.00     0.103 C 
HETATM   25 CL2  UNL     1      26.890  -1.892  52.622  1.00  0.00    -0.096 Cl
ENDBRANCH  23  24
ENDBRANCH  22  23
ENDBRANCH  20  21
ENDBRANCH  18  20
ENDBRANCH  16  18
BRANCH  10  26
HETATM   26  C9  UNL     1      21.055  -1.094  54.044  1.00  0.00     0.143 C 
HETATM   27 CL1  UNL     1      22.506  -1.498  55.017  1.00  0.00    -0.126 Cl
ENDBRANCH  10  26
TORSDOF 6
ENDMDL
MODEL 2
REMARK VINA RESULT:      -6.6      9.559     12.265
REMARK  6 active torsions:
REMARK  status: ('A' for Active; 'I' for Inactive)
REMARK    1  A    between atoms: C8_10  and  C9_11 
REMARK    2  A    between atoms: N3_18  and  C14_19 
REMARK    3  A    between atoms: C14_19  and  C16_21 
REMARK    4  A    between atoms: C16_21  and  C17_22 
REMARK    5  A    between atoms: N4_23  and  C18_24 
REMARK    6  A    between atoms: C18_24  and  C19_25 
ROOT
HETATM    1  C1  UNL     1      25.868   5.264  49.005  1.00  0.00     0.045 C 
HETATM    2  C2  UNL     1      26.776   6.426  48.966  1.00  0.00    -0.059 C 
HETATM    3  C3  UNL     1      26.446   7.535  49.667  1.00  0.00     0.032 C 
HETATM    4  C4  UNL     1      25.164   7.354  50.371  1.00  0.00     0.070 C 
HETATM    5  N1  UNL     1      27.387   8.496  49.552  1.00  0.00    -0.266 NA
HETATM    6  C5  UNL     1      27.441   9.696  49.274  1.00  0.00     0.136 C 
HETATM    7  C6  UNL     1      28.877  10.105  49.345  1.00  0.00     0.229 C 
HETATM    8  N2  UNL     1      29.771   9.033  49.753  1.00  0.00    -0.367 N 
HETATM    9  C7  UNL     1      30.578   8.203  48.878  1.00  0.00     0.017 C 
HETATM   10  C8  UNL     1      31.720   7.707  49.280  1.00  0.00     0.014 C 
HETATM   11  C10 UNL     1      29.946   8.021  47.550  1.00  0.00     0.132 C 
HETATM   12  C11 UNL     1      29.124   6.786  47.570  1.00  0.00     0.047 C 
HETATM   13  C12 UNL     1      27.994   6.277  48.099  1.00  0.00     0.008 C 
HETATM   14  C13 UNL     1      29.153   9.261  47.189  1.00  0.00     0.232 C 
HETATM   15  O1  UNL     1      28.332   9.889  46.489  1.00  0.00    -0.272 OA
HETATM   16  N3  UNL     1      29.327  10.453  47.999  1.00  0.00    -0.321 N 
HETATM   17  H9  UNL     1      29.864   8.817  50.760  1.00  0.00     0.161 HD
ENDROOT
BRANCH  16  18
HETATM   18  C14 UNL     1      29.807  11.782  47.777  1.00  0.00     0.090 C 
HETATM   19  C15 UNL     1      30.486  12.356  49.000  1.00  0.00     0.033 C 
BRANCH  18  20
HETATM   20  C16 UNL     1      30.877  11.712  46.675  1.00  0.00     0.072 C 
BRANCH  20  21
HETATM   21  C17 UNL     1      32.166  11.248  47.287  1.00  0.00     0.091 C 
HETATM   22  N4  UNL     1      33.125  10.371  47.111  1.00  0.00    -0.276 NA
BRANCH  22  23
HETATM   23  C18 UNL     1      32.995   9.503  45.966  1.00  0.00     0.127 C 
BRANCH  23  24
HETATM   24  C19 UNL     1      32.710   8.523  45.140  1.00  0.00     0.103 C 
HETATM   25 CL2  UNL     1      32.297   6.892  44.699  1.00  0.00    -0.096 Cl
ENDBRANCH  23  24
ENDBRANCH  22  23
ENDBRANCH  20  21
ENDBRANCH  18  20
ENDBRANCH  16  18
BRANCH  10  26
HETATM   26  C9  UNL     1      32.584   6.852  48.429  1.00  0.00     0.143 C 
HETATM   27 CL1  UNL     1      32.074   5.147  48.650  1.00  0.00    -0.126 Cl
ENDBRANCH  10  26
TORSDOF 6
ENDMDL
MODEL 3
REMARK VINA RESULT:      -6.6      3.592      6.041
REMARK  6 active torsions:
REMARK  status: ('A' for Active; 'I' for Inactive)
REMARK    1  A    between atoms: C8_10  and  C9_11 
REMARK    2  A    between atoms: N3_18  and  C14_19 
REMARK    3  A    between atoms: C14_19  and  C16_21 
REMARK    4  A    between atoms: C16_21  and  C17_22 
REMARK    5  A    between atoms: N4_23  and  C18_24 
REMARK    6  A    between atoms: C18_24  and  C19_25 
ROOT
HETATM    1  C1  UNL     1      22.005  -0.892  54.917  1.00  0.00     0.045 C 
HETATM    2  C2  UNL     1      22.380   0.058  53.852  1.00  0.00    -0.059 C 
HETATM    3  C3  UNL     1      23.669   0.107  53.445  1.00  0.00     0.032 C 
HETATM    4  C4  UNL     1      24.497  -0.854  54.194  1.00  0.00     0.070 C 
HETATM    5  N1  UNL     1      23.845   1.003  52.452  1.00  0.00    -0.266 NA
HETATM    6  C5  UNL     1      24.595   1.947  52.192  1.00  0.00     0.136 C 
HETATM    7  C6  UNL     1      24.178   2.494  50.864  1.00  0.00     0.229 C 
HETATM    8  N2  UNL     1      23.082   1.764  50.248  1.00  0.00    -0.367 N 
HETATM    9  C7  UNL     1      21.679   2.132  50.270  1.00  0.00     0.017 C 
HETATM   10  C8  UNL     1      20.879   1.812  49.285  1.00  0.00     0.014 C 
HETATM   11  C10 UNL     1      21.322   2.878  51.500  1.00  0.00     0.132 C 
HETATM   12  C11 UNL     1      20.841   1.920  52.525  1.00  0.00     0.047 C 
HETATM   13  C12 UNL     1      21.272   0.932  53.334  1.00  0.00     0.008 C 
HETATM   14  C13 UNL     1      22.509   3.699  51.960  1.00  0.00     0.232 C 
HETATM   15  O1  UNL     1      23.116   4.405  52.793  1.00  0.00    -0.272 OA
HETATM   16  N3  UNL     1      23.642   3.839  51.064  1.00  0.00    -0.321 N 
HETATM   17  H9  UNL     1      23.291   0.890  49.735  1.00  0.00     0.161 HD
ENDROOT
BRANCH  16  18
HETATM   18  C14 UNL     1      24.289   4.923  50.391  1.00  0.00     0.090 C 
HETATM   19  C15 UNL     1      25.454   4.458  49.547  1.00  0.00     0.033 C 
BRANCH  18  20
HETATM   20  C16 UNL     1      23.269   5.544  49.423  1.00  0.00     0.072 C 
BRANCH  20  21
HETATM   21  C17 UNL     1      22.731   6.804  50.036  1.00  0.00     0.091 C 
HETATM   22  N4  UNL     1      23.093   8.024  50.350  1.00  0.00    -0.276 NA
BRANCH  22  23
HETATM   23  C18 UNL     1      24.457   8.385  50.046  1.00  0.00     0.127 C 
BRANCH  23  24
HETATM   24  C19 UNL     1      25.765   8.491  50.005  1.00  0.00     0.103 C 
HETATM   25 CL2  UNL     1      27.307   9.216  50.352  1.00  0.00    -0.096 Cl
ENDBRANCH  23  24
ENDBRANCH  22  23
ENDBRANCH  20  21
ENDBRANCH  18  20
ENDBRANCH  16  18
BRANCH  10  26
HETATM   26  C9  UNL     1      19.438   2.163  49.255  1.00  0.00     0.143 C 
HETATM   27 CL1  UNL     1      18.519   0.808  49.988  1.00  0.00    -0.126 Cl
ENDBRANCH  10  26
TORSDOF 6
ENDMDL
MODEL 4
REMARK VINA RESULT:      -6.4      2.999      5.978
REMARK  6 active torsions:
REMARK  status: ('A' for Active; 'I' for Inactive)
REMARK    1  A    between atoms: C8_10  and  C9_11 
REMARK    2  A    between atoms: N3_18  and  C14_19 
REMARK    3  A    between atoms: C14_19  and  C16_21 
REMARK    4  A    between atoms: C16_21  and  C17_22 
REMARK    5  A    between atoms: N4_23  and  C18_24 
REMARK    6  A    between atoms: C18_24  and  C19_25 
ROOT
HETATM    1  C1  UNL     1      22.553  -1.021  55.070  1.00  0.00     0.045 C 
HETATM    2  C2  UNL     1      22.542  -0.124  53.899  1.00  0.00    -0.059 C 
HETATM    3  C3  UNL     1      23.693   0.072  53.216  1.00  0.00     0.032 C 
HETATM    4  C4  UNL     1      24.800  -0.693  53.815  1.00  0.00     0.070 C 
HETATM    5  N1  UNL     1      23.513   0.894  52.161  1.00  0.00    -0.266 NA
HETATM    6  C5  UNL     1      24.034   1.908  51.691  1.00  0.00     0.136 C 
HETATM    7  C6  UNL     1      23.268   2.272  50.460  1.00  0.00     0.229 C 
HETATM    8  N2  UNL     1      22.196   1.342  50.141  1.00  0.00    -0.367 N 
HETATM    9  C7  UNL     1      20.789   1.508  50.452  1.00  0.00     0.017 C 
HETATM   10  C8  UNL     1      19.861   0.993  49.686  1.00  0.00     0.014 C 
HETATM   11  C10 UNL     1      20.585   2.300  51.687  1.00  0.00     0.132 C 
HETATM   12  C11 UNL     1      20.486   1.377  52.844  1.00  0.00     0.047 C 
HETATM   13  C12 UNL     1      21.227   0.535  53.591  1.00  0.00     0.008 C 
HETATM   14  C13 UNL     1      21.697   3.319  51.829  1.00  0.00     0.232 C 
HETATM   15  O1  UNL     1      22.346   4.174  52.468  1.00  0.00    -0.272 OA
HETATM   16  N3  UNL     1      22.581   3.539  50.699  1.00  0.00    -0.321 N 
HETATM   17  H9  UNL     1      22.428   0.465  49.643  1.00  0.00     0.161 HD
ENDROOT
BRANCH  16  18
HETATM   18  C14 UNL     1      22.893   4.641  49.842  1.00  0.00     0.090 C 
HETATM   19  C15 UNL     1      24.274   4.521  49.237  1.00  0.00     0.033 C 
BRANCH  18  20
HETATM   20  C16 UNL     1      21.899   4.615  48.670  1.00  0.00     0.072 C 
BRANCH  20  21
HETATM   21  C17 UNL     1      21.069   5.863  48.716  1.00  0.00     0.091 C 
HETATM   22  N4  UNL     1      19.899   6.300  49.116  1.00  0.00    -0.276 NA
BRANCH  22  23
HETATM   23  C18 UNL     1      19.032   5.329  49.737  1.00  0.00     0.127 C 
BRANCH  23  24
HETATM   24  C19 UNL     1      18.032   4.699  50.309  1.00  0.00     0.103 C 
HETATM   25 CL2  UNL     1      17.176   3.949  51.625  1.00  0.00    -0.096 Cl
ENDBRANCH  23  24
ENDBRANCH  22  23
ENDBRANCH  20  21
ENDBRANCH  18  20
ENDBRANCH  16  18
BRANCH  10  26
HETATM   26  C9  UNL     1      18.409   1.131  49.956  1.00  0.00     0.143 C 
HETATM   27 CL1  UNL     1      17.899  -0.244  50.987  1.00  0.00    -0.126 Cl
ENDBRANCH  10  26
TORSDOF 6
ENDMDL
MODEL 5
REMARK VINA RESULT:      -6.4      2.578      6.908
REMARK  6 active torsions:
REMARK  status: ('A' for Active; 'I' for Inactive)
REMARK    1  A    between atoms: C8_10  and  C9_11 
REMARK    2  A    between atoms: N3_18  and  C14_19 
REMARK    3  A    between atoms: C14_19  and  C16_21 
REMARK    4  A    between atoms: C16_21  and  C17_22 
REMARK    5  A    between atoms: N4_23  and  C18_24 
REMARK    6  A    between atoms: C18_24  and  C19_25 
ROOT
HETATM    1  C1  UNL     1      27.990   0.738  52.655  1.00  0.00     0.045 C 
HETATM    2  C2  UNL     1      26.819   1.584  52.357  1.00  0.00    -0.059 C 
HETATM    3  C3  UNL     1      25.936   1.848  53.347  1.00  0.00     0.032 C 
HETATM    4  C4  UNL     1      26.340   1.196  54.604  1.00  0.00     0.070 C 
HETATM    5  N1  UNL     1      24.939   2.654  52.924  1.00  0.00    -0.266 NA
HETATM    6  C5  UNL     1      23.706   2.675  52.949  1.00  0.00     0.136 C 
HETATM    7  C6  UNL     1      23.268   3.926  52.256  1.00  0.00     0.229 C 
HETATM    8  N2  UNL     1      24.370   4.761  51.806  1.00  0.00    -0.367 N 
HETATM    9  C7  UNL     1      24.921   4.815  50.465  1.00  0.00     0.017 C 
HETATM   10  C8  UNL     1      25.454   5.914  49.995  1.00  0.00     0.014 C 
HETATM   11  C10 UNL     1      24.789   3.518  49.760  1.00  0.00     0.132 C 
HETATM   12  C11 UNL     1      26.023   2.722  49.977  1.00  0.00     0.047 C 
HETATM   13  C12 UNL     1      26.695   2.054  50.935  1.00  0.00     0.008 C 
HETATM   14  C13 UNL     1      23.532   2.811  50.225  1.00  0.00     0.232 C 
HETATM   15  O1  UNL     1      22.783   1.815  50.304  1.00  0.00    -0.272 OA
HETATM   16  N3  UNL     1      22.576   3.555  51.024  1.00  0.00    -0.321 N 
HETATM   17  H9  UNL     1      24.829   5.392  52.486  1.00  0.00     0.161 HD
ENDROOT
BRANCH  16  18
HETATM   18  C14 UNL     1      21.215   3.968  50.872  1.00  0.00     0.090 C 
HETATM   19  C15 UNL     1      20.549   3.312  49.684  1.00  0.00     0.033 C 
BRANCH  18  20
HETATM   20  C16 UNL     1      20.445   3.500  52.117  1.00  0.00     0.072 C 
BRANCH  20  21
HETATM   21  C17 UNL     1      19.724   2.227  51.786  1.00  0.00     0.091 C 
HETATM   22  N4  UNL     1      19.629   0.976  52.169  1.00  0.00    -0.276 NA
BRANCH  22  23
HETATM   23  C18 UNL     1      20.459   0.582  53.281  1.00  0.00     0.127 C 
BRANCH  23  24
HETATM   24  C19 UNL     1      21.358   0.032  54.064  1.00  0.00     0.103 C 
HETATM   25 CL2  UNL     1      22.862  -0.757  54.440  1.00  0.00    -0.096 Cl
ENDBRANCH  23  24
ENDBRANCH  22  23
ENDBRANCH  20  21
ENDBRANCH  18  20
ENDBRANCH  16  18
BRANCH  10  26
HETATM   26  C9  UNL     1      26.031   6.026  48.633  1.00  0.00     0.143 C 
HETATM   27 CL1  UNL     1      27.722   5.431  48.693  1.00  0.00    -0.126 Cl
ENDBRANCH  10  26
TORSDOF 6
ENDMDL
MODEL 6
REMARK VINA RESULT:      -6.4     11.181     14.280
REMARK  6 active torsions:
REMARK  status: ('A' for Active; 'I' for Inactive)
REMARK    1  A    between atoms: C8_10  and  C9_11 
REMARK    2  A    between atoms: N3_18  and  C14_19 
REMARK    3  A    between atoms: C14_19  and  C16_21 
REMARK    4  A    between atoms: C16_21  and  C17_22 
REMARK    5  A    between atoms: N4_23  and  C18_24 
REMARK    6  A    between atoms: C18_24  and  C19_25 
ROOT
HETATM    1  C1  UNL     1      33.897   2.661  47.365  1.00  0.00     0.045 C 
HETATM    2  C2  UNL     1      33.488   4.065  47.170  1.00  0.00    -0.059 C 
HETATM    3  C3  UNL     1      34.031   4.767  46.148  1.00  0.00     0.032 C 
HETATM    4  C4  UNL     1      34.985   3.942  45.388  1.00  0.00     0.070 C 
HETATM    5  N1  UNL     1      33.537   6.022  46.088  1.00  0.00    -0.266 NA
HETATM    6  C5  UNL     1      33.971   7.174  46.014  1.00  0.00     0.136 C 
HETATM    7  C6  UNL     1      32.792   8.092  45.989  1.00  0.00     0.229 C 
HETATM    8  N2  UNL     1      31.512   7.402  46.009  1.00  0.00    -0.367 N 
HETATM    9  C7  UNL     1      30.670   7.176  47.168  1.00  0.00     0.017 C 
HETATM   10  C8  UNL     1      29.368   7.099  47.056  1.00  0.00     0.014 C 
HETATM   11  C10 UNL     1      31.464   7.058  48.414  1.00  0.00     0.132 C 
HETATM   12  C11 UNL     1      31.773   5.627  48.657  1.00  0.00     0.047 C 
HETATM   13  C12 UNL     1      32.511   4.608  48.174  1.00  0.00     0.008 C 
HETATM   14  C13 UNL     1      32.701   7.928  48.314  1.00  0.00     0.232 C 
HETATM   15  O1  UNL     1      33.820   8.317  48.708  1.00  0.00    -0.272 OA
HETATM   16  N3  UNL     1      32.791   8.879  47.221  1.00  0.00    -0.321 N 
HETATM   17  H9  UNL     1      31.136   7.023  45.122  1.00  0.00     0.161 HD
ENDROOT
BRANCH  16  18
HETATM   18  C14 UNL     1      32.870  10.302  47.106  1.00  0.00     0.090 C 
HETATM   19  C15 UNL     1      32.806  10.763  45.667  1.00  0.00     0.033 C 
BRANCH  18  20
HETATM   20  C16 UNL     1      31.638  10.895  47.809  1.00  0.00     0.072 C 
BRANCH  20  21
HETATM   21  C17 UNL     1      30.469  10.821  46.872  1.00  0.00     0.091 C 
HETATM   22  N4  UNL     1      29.160  10.737  46.874  1.00  0.00    -0.276 NA
BRANCH  22  23
HETATM   23  C18 UNL     1      28.524  10.694  48.169  1.00  0.00     0.127 C 
BRANCH  23  24
HETATM   24  C19 UNL     1      27.960  10.327  49.296  1.00  0.00     0.103 C 
HETATM   25 CL2  UNL     1      27.185   9.222  50.394  1.00  0.00    -0.096 Cl
ENDBRANCH  23  24
ENDBRANCH  22  23
ENDBRANCH  20  21
ENDBRANCH  18  20
ENDBRANCH  16  18
BRANCH  10  26
HETATM   26  C9  UNL     1      28.461   6.869  48.206  1.00  0.00     0.143 C 
HETATM   27 CL1  UNL     1      28.211   5.101  48.376  1.00  0.00    -0.126 Cl
ENDBRANCH  10  26
TORSDOF 6
ENDMDL
MODEL 7
REMARK VINA RESULT:      -6.4      3.366      4.376
REMARK  6 active torsions:
REMARK  status: ('A' for Active; 'I' for Inactive)
REMARK    1  A    between atoms: C8_10  and  C9_11 
REMARK    2  A    between atoms: N3_18  and  C14_19 
REMARK    3  A    between atoms: C14_19  and  C16_21 
REMARK    4  A    between atoms: C16_21  and  C17_22 
REMARK    5  A    between atoms: N4_23  and  C18_24 
REMARK    6  A    between atoms: C18_24  and  C19_25 
ROOT
HETATM    1  C1  UNL     1      17.916   0.469  51.217  1.00  0.00     0.045 C 
HETATM    2  C2  UNL     1      19.125   1.316  51.200  1.00  0.00    -0.059 C 
HETATM    3  C3  UNL     1      18.988   2.652  51.361  1.00  0.00     0.032 C 
HETATM    4  C4  UNL     1      17.572   3.022  51.529  1.00  0.00     0.070 C 
HETATM    5  N1  UNL     1      20.182   3.281  51.348  1.00  0.00    -0.266 NA
HETATM    6  C5  UNL     1      20.706   4.240  50.778  1.00  0.00     0.136 C 
HETATM    7  C6  UNL     1      22.109   4.346  51.281  1.00  0.00     0.229 C 
HETATM    8  N2  UNL     1      22.442   3.360  52.297  1.00  0.00    -0.367 N 
HETATM    9  C7  UNL     1      23.149   2.111  52.089  1.00  0.00     0.017 C 
HETATM   10  C8  UNL     1      23.896   1.590  53.029  1.00  0.00     0.014 C 
HETATM   11  C10 UNL     1      22.910   1.558  50.735  1.00  0.00     0.132 C 
HETATM   12  C11 UNL     1      21.760   0.622  50.790  1.00  0.00     0.047 C 
HETATM   13  C12 UNL     1      20.423   0.598  50.960  1.00  0.00     0.008 C 
HETATM   14  C13 UNL     1      22.710   2.692  49.750  1.00  0.00     0.232 C 
HETATM   15  O1  UNL     1      22.382   3.151  48.636  1.00  0.00    -0.272 OA
HETATM   16  N3  UNL     1      23.021   4.043  50.179  1.00  0.00    -0.321 N 
HETATM   17  H9  UNL     1      22.161   3.539  53.276  1.00  0.00     0.161 HD
ENDROOT
BRANCH  16  18
HETATM   18  C14 UNL     1      23.953   5.055  49.786  1.00  0.00     0.090 C 
HETATM   19  C15 UNL     1      23.580   6.416  50.327  1.00  0.00     0.033 C 
BRANCH  18  20
HETATM   20  C16 UNL     1      25.314   4.697  50.403  1.00  0.00     0.072 C 
BRANCH  20  21
HETATM   21  C17 UNL     1      26.310   4.515  49.295  1.00  0.00     0.091 C 
HETATM   22  N4  UNL     1      27.127   5.200  48.531  1.00  0.00    -0.276 NA
BRANCH  22  23
HETATM   23  C18 UNL     1      27.158   6.627  48.744  1.00  0.00     0.127 C 
BRANCH  23  24
HETATM   24  C19 UNL     1      26.906   7.863  49.106  1.00  0.00     0.103 C 
HETATM   25 CL2  UNL     1      26.269   9.115  50.132  1.00  0.00    -0.096 Cl
ENDBRANCH  23  24
ENDBRANCH  22  23
ENDBRANCH  20  21
ENDBRANCH  18  20
ENDBRANCH  16  18
BRANCH  10  26
HETATM   26  C9  UNL     1      24.640   0.317  52.871  1.00  0.00     0.143 C 
HETATM   27 CL1  UNL     1      26.177   0.671  52.016  1.00  0.00    -0.126 Cl
ENDBRANCH  10  26
TORSDOF 6
ENDMDL
MODEL 8
REMARK VINA RESULT:      -6.3     10.072     12.834
REMARK  6 active torsions:
REMARK  status: ('A' for Active; 'I' for Inactive)
REMARK    1  A    between atoms: C8_10  and  C9_11 
REMARK    2  A    between atoms: N3_18  and  C14_19 
REMARK    3  A    between atoms: C14_19  and  C16_21 
REMARK    4  A    between atoms: C16_21  and  C17_22 
REMARK    5  A    between atoms: N4_23  and  C18_24 
REMARK    6  A    between atoms: C18_24  and  C19_25 
ROOT
HETATM    1  C1  UNL     1      25.844   4.995  49.182  1.00  0.00     0.045 C 
HETATM    2  C2  UNL     1      26.593   6.264  49.114  1.00  0.00    -0.059 C 
HETATM    3  C3  UNL     1      26.111   7.343  49.773  1.00  0.00     0.032 C 
HETATM    4  C4  UNL     1      24.854   7.019  50.469  1.00  0.00     0.070 C 
HETATM    5  N1  UNL     1      26.921   8.414  49.635  1.00  0.00    -0.266 NA
HETATM    6  C5  UNL     1      26.822   9.601  49.317  1.00  0.00     0.136 C 
HETATM    7  C6  UNL     1      28.192  10.197  49.389  1.00  0.00     0.229 C 
HETATM    8  N2  UNL     1      29.212   9.264  49.842  1.00  0.00    -0.367 N 
HETATM    9  C7  UNL     1      30.132   8.518  49.005  1.00  0.00     0.017 C 
HETATM   10  C8  UNL     1      31.324   8.189  49.435  1.00  0.00     0.014 C 
HETATM   11  C10 UNL     1      29.550   8.213  47.678  1.00  0.00     0.132 C 
HETATM   12  C11 UNL     1      28.895   6.882  47.730  1.00  0.00     0.047 C 
HETATM   13  C12 UNL     1      27.833   6.247  48.265  1.00  0.00     0.008 C 
HETATM   14  C13 UNL     1      28.608   9.326  47.266  1.00  0.00     0.232 C 
HETATM   15  O1  UNL     1      27.722   9.819  46.537  1.00  0.00    -0.272 OA
HETATM   16  N3  UNL     1      28.613  10.556  48.037  1.00  0.00    -0.321 N 
HETATM   17  H9  UNL     1      29.317   9.095  50.857  1.00  0.00     0.161 HD
ENDROOT
BRANCH  16  18
HETATM   18  C14 UNL     1      28.919  11.928  47.774  1.00  0.00     0.090 C 
HETATM   19  C15 UNL     1      28.658  12.811  48.974  1.00  0.00     0.033 C 
BRANCH  18  20
HETATM   20  C16 UNL     1      30.425  12.022  47.483  1.00  0.00     0.072 C 
BRANCH  20  21
HETATM   21  C17 UNL     1      30.622  12.115  45.999  1.00  0.00     0.091 C 
HETATM   22  N4  UNL     1      30.490  12.954  45.000  1.00  0.00    -0.276 NA
BRANCH  22  23
HETATM   23  C18 UNL     1      29.991  14.267  45.329  1.00  0.00     0.127 C 
BRANCH  23  24
HETATM   24  C19 UNL     1      29.806  15.560  45.464  1.00  0.00     0.103 C 
HETATM   25 CL2  UNL     1      29.033  16.995  46.070  1.00  0.00    -0.096 Cl
ENDBRANCH  23  24
ENDBRANCH  22  23
ENDBRANCH  20  21
ENDBRANCH  18  20
ENDBRANCH  16  18
BRANCH  10  26
HETATM   26  C9  UNL     1      32.304   7.428  48.623  1.00  0.00     0.143 C 
HETATM   27 CL1  UNL     1      32.199   5.701  49.096  1.00  0.00    -0.126 Cl
ENDBRANCH  10  26
TORSDOF 6
ENDMDL
MODEL 9
REMARK VINA RESULT:      -6.2      3.753      6.519
REMARK  6 active torsions:
REMARK  status: ('A' for Active; 'I' for Inactive)
REMARK    1  A    between atoms: C8_10  and  C9_11 
REMARK    2  A    between atoms: N3_18  and  C14_19 
REMARK    3  A    between atoms: C14_19  and  C16_21 
REMARK    4  A    between atoms: C16_21  and  C17_22 
REMARK    5  A    between atoms: N4_23  and  C18_24 
REMARK    6  A    between atoms: C18_24  and  C19_25 
ROOT
HETATM    1  C1  UNL     1      23.099  -1.066  54.794  1.00  0.00     0.045 C 
HETATM    2  C2  UNL     1      22.980  -0.098  53.687  1.00  0.00    -0.059 C 
HETATM    3  C3  UNL     1      24.075   0.180  52.943  1.00  0.00     0.032 C 
HETATM    4  C4  UNL     1      25.243  -0.582  53.416  1.00  0.00     0.070 C 
HETATM    5  N1  UNL     1      23.798   1.059  51.957  1.00  0.00    -0.266 NA
HETATM    6  C5  UNL     1      24.254   2.119  51.520  1.00  0.00     0.136 C 
HETATM    7  C6  UNL     1      23.394   2.532  50.369  1.00  0.00     0.229 C 
HETATM    8  N2  UNL     1      22.332   1.587  50.063  1.00  0.00    -0.367 N 
HETATM    9  C7  UNL     1      20.945   1.684  50.478  1.00  0.00     0.017 C 
HETATM   10  C8  UNL     1      19.982   1.187  49.743  1.00  0.00     0.014 C 
HETATM   11  C10 UNL     1      20.802   2.390  51.772  1.00  0.00     0.132 C 
HETATM   12  C11 UNL     1      20.811   1.393  52.871  1.00  0.00     0.047 C 
HETATM   13  C12 UNL     1      21.627   0.532  53.511  1.00  0.00     0.008 C 
HETATM   14  C13 UNL     1      21.890   3.436  51.905  1.00  0.00     0.232 C 
HETATM   15  O1  UNL     1      22.555   4.271  52.554  1.00  0.00    -0.272 OA
HETATM   16  N3  UNL     1      22.687   3.757  50.735  1.00  0.00    -0.321 N 
HETATM   17  H9  UNL     1      22.555   0.752  49.495  1.00  0.00     0.161 HD
ENDROOT
BRANCH  16  18
HETATM   18  C14 UNL     1      22.905   4.921  49.933  1.00  0.00     0.090 C 
HETATM   19  C15 UNL     1      24.078   4.754  48.993  1.00  0.00     0.033 C 
BRANCH  18  20
HETATM   20  C16 UNL     1      21.663   5.117  49.050  1.00  0.00     0.072 C 
BRANCH  20  21
HETATM   21  C17 UNL     1      21.999   6.088  47.957  1.00  0.00     0.091 C 
HETATM   22  N4  UNL     1      21.763   7.319  47.573  1.00  0.00    -0.276 NA
BRANCH  22  23
HETATM   23  C18 UNL     1      20.891   8.097  48.420  1.00  0.00     0.127 C 
BRANCH  23  24
HETATM   24  C19 UNL     1      20.368   8.994  49.223  1.00  0.00     0.103 C 
HETATM   25 CL2  UNL     1      19.236   9.604  50.395  1.00  0.00    -0.096 Cl
ENDBRANCH  23  24
ENDBRANCH  22  23
ENDBRANCH  20  21
ENDBRANCH  18  20
ENDBRANCH  16  18
BRANCH  10  26
HETATM   26  C9  UNL     1      18.549   1.257  50.118  1.00  0.00     0.143 C 
HETATM   27 CL1  UNL     1      18.152  -0.199  51.086  1.00  0.00    -0.126 Cl
ENDBRANCH  10  26
TORSDOF 6
ENDMDL
