MODEL 1
REMARK VINA RESULT:      -8.3      0.000      0.000
REMARK  5 active torsions:
REMARK  status: ('A' for Active; 'I' for Inactive)
REMARK    1  A    between atoms: N1_1  and  C1_2 
REMARK    2  A    between atoms: N2_5  and  C4_6 
REMARK    3  A    between atoms: C4_6  and  C5_7 
REMARK    4  A    between atoms: C9_12  and  N4_13 
REMARK    5  A    between atoms: N4_13  and  C10_14 
ROOT
HETATM    1  C5  UNL     1      22.114   0.455  52.143  1.00  0.00     0.004 A 
HETATM    2  C6  UNL     1      20.743   0.288  52.310  1.00  0.00     0.031 A 
HETATM    3  C7  UNL     1      20.420  -0.398  53.457  1.00  0.00     0.124 A 
HETATM    4  N3  UNL     1      21.607  -0.673  54.028  1.00  0.00    -0.228 N 
HETATM    5  C8  UNL     1      22.600  -0.183  53.273  1.00  0.00     0.116 A 
HETATM    6  C9  UNL     1      23.971  -0.391  53.714  1.00  0.00     0.155 A 
HETATM    7  N5  UNL     1      24.257  -1.026  54.801  1.00  0.00    -0.242 NA
HETATM    8  C16 UNL     1      23.230  -1.574  55.656  1.00  0.00     0.352 A 
HETATM    9  O1  UNL     1      21.937  -1.330  55.176  1.00  0.00    -0.252 OA
ENDROOT
BRANCH   1  10
HETATM   10  C4  UNL     1      22.746   1.164  51.047  1.00  0.00     0.313 C 
BRANCH  10  11
HETATM   11  N2  UNL     1      22.379   2.564  50.964  1.00  0.00     0.092 N 
HETATM   12  C3  UNL     1      22.883   3.349  52.040  1.00  0.00     0.275 C 
HETATM   13  C2  UNL     1      24.367   3.506  52.051  1.00  0.00     0.065 C 
HETATM   14  C1  UNL     1      24.872   4.005  50.718  1.00  0.00     0.221 C 
HETATM   15  C18 UNL     1      24.281   3.238  49.560  1.00  0.00     0.065 C 
HETATM   16  C17 UNL     1      22.787   3.071  49.690  1.00  0.00     0.275 C 
BRANCH  14  17
HETATM   17  N1  UNL     1      26.307   3.830  50.689  1.00  0.00     0.083 N 
HETATM   18  H1  UNL     1      26.793   4.602  51.214  1.00  0.00     0.313 HD
HETATM   19  H2  UNL     1      26.552   2.933  51.147  1.00  0.00     0.313 HD
ENDBRANCH  14  17
ENDBRANCH  10  11
ENDBRANCH   1  10
BRANCH   6  20
HETATM   20  N4  UNL     1      25.077   0.085  52.957  1.00  0.00    -0.339 N 
HETATM   21  H12 UNL     1      24.878   0.571  52.086  1.00  0.00     0.167 HD
BRANCH  20  22
HETATM   22  C10 UNL     1      26.445  -0.072  53.324  1.00  0.00     0.033 A 
HETATM   23  C11 UNL     1      27.167  -1.158  52.856  1.00  0.00     0.029 A 
HETATM   24  C12 UNL     1      28.490  -1.383  53.175  1.00  0.00     0.002 A 
HETATM   25  C13 UNL     1      29.163  -0.513  53.995  1.00  0.00     0.000 A 
HETATM   26  C14 UNL     1      28.487   0.582  54.487  1.00  0.00     0.002 A 
HETATM   27  C15 UNL     1      27.174   0.762  54.142  1.00  0.00     0.029 A 
ENDBRANCH  20  22
ENDBRANCH   6  20
TORSDOF 5
ENDMDL
MODEL 2
REMARK VINA RESULT:      -7.9      2.026      5.282
REMARK  5 active torsions:
REMARK  status: ('A' for Active; 'I' for Inactive)
REMARK    1  A    between atoms: N1_1  and  C1_2 
REMARK    2  A    between atoms: N2_5  and  C4_6 
REMARK    3  A    between atoms: C4_6  and  C5_7 
REMARK    4  A    between atoms: C9_12  and  N4_13 
REMARK    5  A    between atoms: N4_13  and  C10_14 
ROOT
HETATM    1  C5  UNL     1      23.612   0.771  52.989  1.00  0.00     0.004 A 
HETATM    2  C6  UNL     1      22.743  -0.299  53.177  1.00  0.00     0.031 A 
HETATM    3  C7  UNL     1      21.426   0.031  52.962  1.00  0.00     0.124 A 
HETATM    4  N3  UNL     1      21.458   1.336  52.634  1.00  0.00    -0.228 N 
HETATM    5  C8  UNL     1      22.724   1.778  52.647  1.00  0.00     0.116 A 
HETATM    6  C9  UNL     1      22.971   3.178  52.332  1.00  0.00     0.155 A 
HETATM    7  N5  UNL     1      22.017   3.998  52.041  1.00  0.00    -0.242 NA
HETATM    8  C16 UNL     1      20.635   3.579  52.010  1.00  0.00     0.352 A 
HETATM    9  O1  UNL     1      20.472   2.221  52.314  1.00  0.00    -0.252 OA
ENDROOT
BRANCH   1  10
HETATM   10  C4  UNL     1      25.055   0.713  53.114  1.00  0.00     0.313 C 
BRANCH  10  11
HETATM   11  N2  UNL     1      25.539  -0.474  53.791  1.00  0.00     0.092 N 
HETATM   12  C3  UNL     1      26.406  -1.271  52.990  1.00  0.00     0.275 C 
HETATM   13  C2  UNL     1      27.721  -0.637  52.679  1.00  0.00     0.065 C 
HETATM   14  C1  UNL     1      28.409  -0.165  53.938  1.00  0.00     0.221 C 
HETATM   15  C18 UNL     1      27.480   0.610  54.841  1.00  0.00     0.065 C 
HETATM   16  C17 UNL     1      26.152  -0.083  55.022  1.00  0.00     0.275 C 
BRANCH  14  17
HETATM   17  N1  UNL     1      29.497   0.707  53.554  1.00  0.00     0.083 N 
HETATM   18  H1  UNL     1      30.145   0.228  52.878  1.00  0.00     0.313 HD
HETATM   19  H2  UNL     1      29.111   1.547  53.082  1.00  0.00     0.313 HD
ENDBRANCH  14  17
ENDBRANCH  10  11
ENDBRANCH   1  10
BRANCH   6  20
HETATM   20  N4  UNL     1      24.284   3.723  52.343  1.00  0.00    -0.339 N 
HETATM   21  H12 UNL     1      24.732   3.855  53.247  1.00  0.00     0.167 HD
BRANCH  20  22
HETATM   22  C10 UNL     1      25.020   4.100  51.183  1.00  0.00     0.033 A 
HETATM   23  C11 UNL     1      25.942   3.225  50.633  1.00  0.00     0.029 A 
HETATM   24  C12 UNL     1      26.697   3.522  49.518  1.00  0.00     0.002 A 
HETATM   25  C13 UNL     1      26.561   4.734  48.891  1.00  0.00     0.000 A 
HETATM   26  C14 UNL     1      25.657   5.640  49.401  1.00  0.00     0.002 A 
HETATM   27  C15 UNL     1      24.930   5.299  50.511  1.00  0.00     0.029 A 
ENDBRANCH  20  22
ENDBRANCH   6  20
TORSDOF 5
ENDMDL
MODEL 3
REMARK VINA RESULT:      -7.8      1.754      2.645
REMARK  5 active torsions:
REMARK  status: ('A' for Active; 'I' for Inactive)
REMARK    1  A    between atoms: N1_1  and  C1_2 
REMARK    2  A    between atoms: N2_5  and  C4_6 
REMARK    3  A    between atoms: C4_6  and  C5_7 
REMARK    4  A    between atoms: C9_12  and  N4_13 
REMARK    5  A    between atoms: N4_13  and  C10_14 
ROOT
HETATM    1  C5  UNL     1      23.476   2.888  51.858  1.00  0.00     0.004 A 
HETATM    2  C6  UNL     1      22.179   3.365  52.025  1.00  0.00     0.031 A 
HETATM    3  C7  UNL     1      21.358   2.476  52.676  1.00  0.00     0.124 A 
HETATM    4  N3  UNL     1      22.145   1.413  52.926  1.00  0.00    -0.228 N 
HETATM    5  C8  UNL     1      23.380   1.641  52.454  1.00  0.00     0.116 A 
HETATM    6  C9  UNL     1      24.383   0.599  52.613  1.00  0.00     0.155 A 
HETATM    7  N5  UNL     1      24.124  -0.526  53.191  1.00  0.00    -0.242 NA
HETATM    8  C16 UNL     1      22.814  -0.827  53.720  1.00  0.00     0.352 A 
HETATM    9  O1  UNL     1      21.902   0.221  53.540  1.00  0.00    -0.252 OA
ENDROOT
BRANCH   1  10
HETATM   10  C4  UNL     1      24.565   3.616  51.237  1.00  0.00     0.313 C 
BRANCH  10  11
HETATM   11  N2  UNL     1      24.657   3.426  49.803  1.00  0.00     0.092 N 
HETATM   12  C3  UNL     1      24.155   4.526  49.051  1.00  0.00     0.275 C 
HETATM   13  C2  UNL     1      24.964   5.775  49.165  1.00  0.00     0.065 C 
HETATM   14  C1  UNL     1      26.419   5.512  48.857  1.00  0.00     0.221 C 
HETATM   15  C18 UNL     1      26.945   4.297  49.581  1.00  0.00     0.065 C 
HETATM   16  C17 UNL     1      26.012   3.117  49.467  1.00  0.00     0.275 C 
BRANCH  14  17
HETATM   17  N1  UNL     1      27.184   6.661  49.291  1.00  0.00     0.083 N 
HETATM   18  H1  UNL     1      26.591   7.315  49.864  1.00  0.00     0.313 HD
HETATM   19  H2  UNL     1      27.971   6.343  49.886  1.00  0.00     0.313 HD
ENDBRANCH  14  17
ENDBRANCH  10  11
ENDBRANCH   1  10
BRANCH   6  20
HETATM   20  N4  UNL     1      25.708   0.760  52.123  1.00  0.00    -0.339 N 
HETATM   21  H12 UNL     1      25.844   0.735  51.115  1.00  0.00     0.167 HD
BRANCH  20  22
HETATM   22  C10 UNL     1      26.861   0.952  52.938  1.00  0.00     0.033 A 
HETATM   23  C11 UNL     1      27.555   2.150  52.884  1.00  0.00     0.029 A 
HETATM   24  C12 UNL     1      28.684   2.406  53.634  1.00  0.00     0.002 A 
HETATM   25  C13 UNL     1      29.179   1.455  54.490  1.00  0.00     0.000 A 
HETATM   26  C14 UNL     1      28.523   0.246  54.578  1.00  0.00     0.002 A 
HETATM   27  C15 UNL     1      27.407   0.039  53.813  1.00  0.00     0.029 A 
ENDBRANCH  20  22
ENDBRANCH   6  20
TORSDOF 5
ENDMDL
MODEL 4
REMARK VINA RESULT:      -7.8      2.326      5.603
REMARK  5 active torsions:
REMARK  status: ('A' for Active; 'I' for Inactive)
REMARK    1  A    between atoms: N1_1  and  C1_2 
REMARK    2  A    between atoms: N2_5  and  C4_6 
REMARK    3  A    between atoms: C4_6  and  C5_7 
REMARK    4  A    between atoms: C9_12  and  N4_13 
REMARK    5  A    between atoms: N4_13  and  C10_14 
ROOT
HETATM    1  C5  UNL     1      23.388   1.474  52.368  1.00  0.00     0.004 A 
HETATM    2  C6  UNL     1      22.437   0.464  52.477  1.00  0.00     0.031 A 
HETATM    3  C7  UNL     1      21.264   0.756  51.822  1.00  0.00     0.124 A 
HETATM    4  N3  UNL     1      21.472   1.975  51.289  1.00  0.00    -0.228 N 
HETATM    5  C8  UNL     1      22.704   2.403  51.600  1.00  0.00     0.116 A 
HETATM    6  C9  UNL     1      23.120   3.715  51.127  1.00  0.00     0.155 A 
HETATM    7  N5  UNL     1      22.347   4.470  50.421  1.00  0.00    -0.242 NA
HETATM    8  C16 UNL     1      21.011   4.062  50.054  1.00  0.00     0.352 A 
HETATM    9  O1  UNL     1      20.681   2.788  50.535  1.00  0.00    -0.252 OA
ENDROOT
BRANCH   1  10
HETATM   10  C4  UNL     1      24.726   1.431  52.927  1.00  0.00     0.313 C 
BRANCH  10  11
HETATM   11  N2  UNL     1      25.386   0.149  52.773  1.00  0.00     0.092 N 
HETATM   12  C3  UNL     1      26.612   0.225  52.054  1.00  0.00     0.275 C 
HETATM   13  C2  UNL     1      27.703   0.957  52.762  1.00  0.00     0.065 C 
HETATM   14  C1  UNL     1      27.911   0.410  54.155  1.00  0.00     0.221 C 
HETATM   15  C18 UNL     1      26.610   0.243  54.903  1.00  0.00     0.065 C 
HETATM   16  C17 UNL     1      25.555  -0.437  54.067  1.00  0.00     0.275 C 
BRANCH  14  17
HETATM   17  N1  UNL     1      28.735   1.348  54.886  1.00  0.00     0.083 N 
HETATM   18  H1  UNL     1      29.747   1.256  54.611  1.00  0.00     0.313 HD
HETATM   19  H2  UNL     1      28.433   2.314  54.663  1.00  0.00     0.313 HD
ENDBRANCH  14  17
ENDBRANCH  10  11
ENDBRANCH   1  10
BRANCH   6  20
HETATM   20  N4  UNL     1      24.405   4.244  51.432  1.00  0.00    -0.339 N 
HETATM   21  H12 UNL     1      24.668   4.304  52.413  1.00  0.00     0.167 HD
BRANCH  20  22
HETATM   22  C10 UNL     1      25.349   4.699  50.468  1.00  0.00     0.033 A 
HETATM   23  C11 UNL     1      26.273   3.816  49.934  1.00  0.00     0.029 A 
HETATM   24  C12 UNL     1      27.223   4.183  49.004  1.00  0.00     0.002 A 
HETATM   25  C13 UNL     1      27.292   5.478  48.557  1.00  0.00     0.000 A 
HETATM   26  C14 UNL     1      26.394   6.395  49.060  1.00  0.00     0.002 A 
HETATM   27  C15 UNL     1      25.469   5.982  49.982  1.00  0.00     0.029 A 
ENDBRANCH  20  22
ENDBRANCH   6  20
TORSDOF 5
ENDMDL
MODEL 5
REMARK VINA RESULT:      -7.7      2.189      4.804
REMARK  5 active torsions:
REMARK  status: ('A' for Active; 'I' for Inactive)
REMARK    1  A    between atoms: N1_1  and  C1_2 
REMARK    2  A    between atoms: N2_5  and  C4_6 
REMARK    3  A    between atoms: C4_6  and  C5_7 
REMARK    4  A    between atoms: C9_12  and  N4_13 
REMARK    5  A    between atoms: N4_13  and  C10_14 
ROOT
HETATM    1  C5  UNL     1      23.046   2.546  51.688  1.00  0.00     0.004 A 
HETATM    2  C6  UNL     1      22.207   3.188  50.782  1.00  0.00     0.031 A 
HETATM    3  C7  UNL     1      22.885   3.760  49.732  1.00  0.00     0.124 A 
HETATM    4  N3  UNL     1      24.178   3.478  49.975  1.00  0.00    -0.228 N 
HETATM    5  C8  UNL     1      24.285   2.773  51.111  1.00  0.00     0.116 A 
HETATM    6  C9  UNL     1      25.613   2.381  51.559  1.00  0.00     0.155 A 
HETATM    7  N5  UNL     1      26.681   2.687  50.901  1.00  0.00    -0.242 NA
HETATM    8  C16 UNL     1      26.628   3.442  49.671  1.00  0.00     0.352 A 
HETATM    9  O1  UNL     1      25.321   3.778  49.296  1.00  0.00    -0.252 OA
ENDROOT
BRANCH   1  10
HETATM   10  C4  UNL     1      22.612   1.830  52.872  1.00  0.00     0.313 C 
BRANCH  10  11
HETATM   11  N2  UNL     1      21.677   0.756  52.599  1.00  0.00     0.092 N 
HETATM   12  C3  UNL     1      22.309  -0.471  52.247  1.00  0.00     0.275 C 
HETATM   13  C2  UNL     1      23.074  -1.115  53.355  1.00  0.00     0.065 C 
HETATM   14  C1  UNL     1      22.219  -1.267  54.591  1.00  0.00     0.221 C 
HETATM   15  C18 UNL     1      21.475   0.002  54.930  1.00  0.00     0.065 C 
HETATM   16  C17 UNL     1      20.805   0.610  53.723  1.00  0.00     0.275 C 
BRANCH  14  17
HETATM   17  N1  UNL     1      23.089  -1.589  55.700  1.00  0.00     0.083 N 
HETATM   18  H1  UNL     1      23.167  -0.779  56.368  1.00  0.00     0.313 HD
HETATM   19  H2  UNL     1      22.694  -2.393  56.222  1.00  0.00     0.313 HD
ENDBRANCH  14  17
ENDBRANCH  10  11
ENDBRANCH   1  10
BRANCH   6  20
HETATM   20  N4  UNL     1      25.806   1.648  52.762  1.00  0.00    -0.339 N 
HETATM   21  H12 UNL     1      25.171   1.834  53.534  1.00  0.00     0.167 HD
BRANCH  20  22
HETATM   22  C10 UNL     1      26.826   0.675  52.969  1.00  0.00     0.033 A 
HETATM   23  C11 UNL     1      26.637  -0.627  52.536  1.00  0.00     0.029 A 
HETATM   24  C12 UNL     1      27.573  -1.626  52.708  1.00  0.00     0.002 A 
HETATM   25  C13 UNL     1      28.764  -1.360  53.334  1.00  0.00     0.000 A 
HETATM   26  C14 UNL     1      28.998  -0.079  53.783  1.00  0.00     0.002 A 
HETATM   27  C15 UNL     1      28.039   0.879  53.590  1.00  0.00     0.029 A 
ENDBRANCH  20  22
ENDBRANCH   6  20
TORSDOF 5
ENDMDL
MODEL 6
REMARK VINA RESULT:      -7.6      2.378      6.017
REMARK  5 active torsions:
REMARK  status: ('A' for Active; 'I' for Inactive)
REMARK    1  A    between atoms: N1_1  and  C1_2 
REMARK    2  A    between atoms: N2_5  and  C4_6 
REMARK    3  A    between atoms: C4_6  and  C5_7 
REMARK    4  A    between atoms: C9_12  and  N4_13 
REMARK    5  A    between atoms: N4_13  and  C10_14 
ROOT
HETATM    1  C5  UNL     1      26.058   2.726  50.845  1.00  0.00     0.004 A 
HETATM    2  C6  UNL     1      26.583   3.820  50.164  1.00  0.00     0.031 A 
HETATM    3  C7  UNL     1      25.630   4.537  49.481  1.00  0.00     0.124 A 
HETATM    4  N3  UNL     1      24.478   3.888  49.731  1.00  0.00    -0.228 N 
HETATM    5  C8  UNL     1      24.714   2.831  50.523  1.00  0.00     0.116 A 
HETATM    6  C9  UNL     1      23.591   1.985  50.898  1.00  0.00     0.155 A 
HETATM    7  N5  UNL     1      22.387   2.219  50.497  1.00  0.00    -0.242 NA
HETATM    8  C16 UNL     1      22.072   3.341  49.645  1.00  0.00     0.352 A 
HETATM    9  O1  UNL     1      23.196   4.116  49.331  1.00  0.00    -0.252 OA
ENDROOT
BRANCH   1  10
HETATM   10  C4  UNL     1      26.816   1.809  51.674  1.00  0.00     0.313 C 
BRANCH  10  11
HETATM   11  N2  UNL     1      26.950   2.238  53.053  1.00  0.00     0.092 N 
HETATM   12  C3  UNL     1      26.297   1.377  53.980  1.00  0.00     0.275 C 
HETATM   13  C2  UNL     1      26.908   0.021  54.105  1.00  0.00     0.065 C 
HETATM   14  C1  UNL     1      28.390   0.115  54.385  1.00  0.00     0.221 C 
HETATM   15  C18 UNL     1      29.085   1.089  53.465  1.00  0.00     0.065 C 
HETATM   16  C17 UNL     1      28.340   2.396  53.351  1.00  0.00     0.275 C 
BRANCH  14  17
HETATM   17  N1  UNL     1      28.969  -1.194  54.177  1.00  0.00     0.083 N 
HETATM   18  H1  UNL     1      29.757  -1.370  54.852  1.00  0.00     0.313 HD
HETATM   19  H2  UNL     1      28.245  -1.918  54.340  1.00  0.00     0.313 HD
ENDBRANCH  14  17
ENDBRANCH  10  11
ENDBRANCH   1  10
BRANCH   6  20
HETATM   20  N4  UNL     1      23.767   0.837  51.720  1.00  0.00    -0.339 N 
HETATM   21  H12 UNL     1      24.590   0.263  51.558  1.00  0.00     0.167 HD
BRANCH  20  22
HETATM   22  C10 UNL     1      22.874   0.430  52.753  1.00  0.00     0.033 A 
HETATM   23  C11 UNL     1      23.193  -0.652  53.556  1.00  0.00     0.029 A 
HETATM   24  C12 UNL     1      22.376  -1.111  54.569  1.00  0.00     0.002 A 
HETATM   25  C13 UNL     1      21.178  -0.495  54.827  1.00  0.00     0.000 A 
HETATM   26  C14 UNL     1      20.816   0.587  54.054  1.00  0.00     0.002 A 
HETATM   27  C15 UNL     1      21.660   1.005  53.060  1.00  0.00     0.029 A 
ENDBRANCH  20  22
ENDBRANCH   6  20
TORSDOF 5
ENDMDL
MODEL 7
REMARK VINA RESULT:      -7.5      1.654      5.168
REMARK  5 active torsions:
REMARK  status: ('A' for Active; 'I' for Inactive)
REMARK    1  A    between atoms: N1_1  and  C1_2 
REMARK    2  A    between atoms: N2_5  and  C4_6 
REMARK    3  A    between atoms: C4_6  and  C5_7 
REMARK    4  A    between atoms: C9_12  and  N4_13 
REMARK    5  A    between atoms: N4_13  and  C10_14 
ROOT
HETATM    1  C5  UNL     1      23.721   0.012  53.972  1.00  0.00     0.004 A 
HETATM    2  C6  UNL     1      23.859  -1.045  54.867  1.00  0.00     0.031 A 
HETATM    3  C7  UNL     1      22.681  -1.717  55.093  1.00  0.00     0.124 A 
HETATM    4  N3  UNL     1      21.777  -1.075  54.329  1.00  0.00    -0.228 N 
HETATM    5  C8  UNL     1      22.370  -0.067  53.673  1.00  0.00     0.116 A 
HETATM    6  C9  UNL     1      21.554   0.764  52.801  1.00  0.00     0.155 A 
HETATM    7  N5  UNL     1      20.289   0.560  52.639  1.00  0.00    -0.242 NA
HETATM    8  C16 UNL     1      19.597  -0.511  53.318  1.00  0.00     0.352 A 
HETATM    9  O1  UNL     1      20.443  -1.273  54.132  1.00  0.00    -0.252 OA
ENDROOT
BRANCH   1  10
HETATM   10  C4  UNL     1      24.794   0.876  53.521  1.00  0.00     0.313 C 
BRANCH  10  11
HETATM   11  N2  UNL     1      25.724   0.232  52.613  1.00  0.00     0.092 N 
HETATM   12  C3  UNL     1      26.324   1.129  51.684  1.00  0.00     0.275 C 
HETATM   13  C2  UNL     1      27.256   2.122  52.294  1.00  0.00     0.065 C 
HETATM   14  C1  UNL     1      28.294   1.438  53.154  1.00  0.00     0.221 C 
HETATM   15  C18 UNL     1      27.683   0.421  54.086  1.00  0.00     0.065 C 
HETATM   16  C17 UNL     1      26.698  -0.479  53.382  1.00  0.00     0.275 C 
BRANCH  14  17
HETATM   17  N1  UNL     1      28.948   2.449  53.955  1.00  0.00     0.083 N 
HETATM   18  H1  UNL     1      29.786   2.844  53.456  1.00  0.00     0.313 HD
HETATM   19  H2  UNL     1      28.286   3.229  54.129  1.00  0.00     0.313 HD
ENDBRANCH  14  17
ENDBRANCH  10  11
ENDBRANCH   1  10
BRANCH   6  20
HETATM   20  N4  UNL     1      22.108   1.862  52.086  1.00  0.00    -0.339 N 
HETATM   21  H12 UNL     1      22.436   2.658  52.627  1.00  0.00     0.167 HD
BRANCH  20  22
HETATM   22  C10 UNL     1      22.235   1.932  50.669  1.00  0.00     0.033 A 
HETATM   23  C11 UNL     1      23.133   2.819  50.098  1.00  0.00     0.029 A 
HETATM   24  C12 UNL     1      23.306   2.950  48.736  1.00  0.00     0.002 A 
HETATM   25  C13 UNL     1      22.572   2.184  47.866  1.00  0.00     0.000 A 
HETATM   26  C14 UNL     1      21.665   1.287  48.387  1.00  0.00     0.002 A 
HETATM   27  C15 UNL     1      21.528   1.193  49.746  1.00  0.00     0.029 A 
ENDBRANCH  20  22
ENDBRANCH   6  20
TORSDOF 5
ENDMDL
MODEL 8
REMARK VINA RESULT:      -7.4      2.651      6.433
REMARK  5 active torsions:
REMARK  status: ('A' for Active; 'I' for Inactive)
REMARK    1  A    between atoms: N1_1  and  C1_2 
REMARK    2  A    between atoms: N2_5  and  C4_6 
REMARK    3  A    between atoms: C4_6  and  C5_7 
REMARK    4  A    between atoms: C9_12  and  N4_13 
REMARK    5  A    between atoms: N4_13  and  C10_14 
ROOT
HETATM    1  C5  UNL     1      25.865   2.963  50.709  1.00  0.00     0.004 A 
HETATM    2  C6  UNL     1      26.696   3.391  49.679  1.00  0.00     0.031 A 
HETATM    3  C7  UNL     1      26.408   4.664  49.247  1.00  0.00     0.124 A 
HETATM    4  N3  UNL     1      25.374   5.053  50.016  1.00  0.00    -0.228 N 
HETATM    5  C8  UNL     1      25.048   4.071  50.870  1.00  0.00     0.116 A 
HETATM    6  C9  UNL     1      23.936   4.291  51.783  1.00  0.00     0.155 A 
HETATM    7  N5  UNL     1      23.262   5.392  51.796  1.00  0.00    -0.242 NA
HETATM    8  C16 UNL     1      23.568   6.483  50.902  1.00  0.00     0.352 A 
HETATM    9  O1  UNL     1      24.652   6.208  50.059  1.00  0.00    -0.252 OA
ENDROOT
BRANCH   1  10
HETATM   10  C4  UNL     1      25.953   1.682  51.383  1.00  0.00     0.313 C 
BRANCH  10  11
HETATM   11  N2  UNL     1      27.144   1.527  52.196  1.00  0.00     0.092 N 
HETATM   12  C3  UNL     1      27.004   2.049  53.513  1.00  0.00     0.275 C 
HETATM   13  C2  UNL     1      26.043   1.303  54.377  1.00  0.00     0.065 C 
HETATM   14  C1  UNL     1      26.361  -0.173  54.397  1.00  0.00     0.221 C 
HETATM   15  C18 UNL     1      26.597  -0.726  53.012  1.00  0.00     0.065 C 
HETATM   16  C17 UNL     1      27.520   0.147  52.200  1.00  0.00     0.275 C 
BRANCH  14  17
HETATM   17  N1  UNL     1      25.231  -0.867  54.974  1.00  0.00     0.083 N 
HETATM   18  H1  UNL     1      25.288  -0.876  56.025  1.00  0.00     0.313 HD
HETATM   19  H2  UNL     1      24.357  -0.377  54.709  1.00  0.00     0.313 HD
ENDBRANCH  14  17
ENDBRANCH  10  11
ENDBRANCH   1  10
BRANCH   6  20
HETATM   20  N4  UNL     1      23.521   3.290  52.704  1.00  0.00    -0.339 N 
HETATM   21  H12 UNL     1      23.801   3.398  53.676  1.00  0.00     0.167 HD
BRANCH  20  22
HETATM   22  C10 UNL     1      22.744   2.144  52.367  1.00  0.00     0.033 A 
HETATM   23  C11 UNL     1      21.976   2.144  51.214  1.00  0.00     0.029 A 
HETATM   24  C12 UNL     1      21.192   1.078  50.827  1.00  0.00     0.002 A 
HETATM   25  C13 UNL     1      21.139  -0.060  51.592  1.00  0.00     0.000 A 
HETATM   26  C14 UNL     1      21.885  -0.107  52.750  1.00  0.00     0.002 A 
HETATM   27  C15 UNL     1      22.649   0.977  53.093  1.00  0.00     0.029 A 
ENDBRANCH  20  22
ENDBRANCH   6  20
TORSDOF 5
ENDMDL
MODEL 9
REMARK VINA RESULT:      -7.3      2.003      2.905
REMARK  5 active torsions:
REMARK  status: ('A' for Active; 'I' for Inactive)
REMARK    1  A    between atoms: N1_1  and  C1_2 
REMARK    2  A    between atoms: N2_5  and  C4_6 
REMARK    3  A    between atoms: C4_6  and  C5_7 
REMARK    4  A    between atoms: C9_12  and  N4_13 
REMARK    5  A    between atoms: N4_13  and  C10_14 
ROOT
HETATM    1  C5  UNL     1      22.672   2.050  50.237  1.00  0.00     0.004 A 
HETATM    2  C6  UNL     1      21.758   1.656  49.265  1.00  0.00     0.031 A 
HETATM    3  C7  UNL     1      20.815   0.775  49.738  1.00  0.00     0.124 A 
HETATM    4  N3  UNL     1      21.136   0.605  51.035  1.00  0.00    -0.228 N 
HETATM    5  C8  UNL     1      22.215   1.341  51.336  1.00  0.00     0.116 A 
HETATM    6  C9  UNL     1      22.733   1.283  52.695  1.00  0.00     0.155 A 
HETATM    7  N5  UNL     1      22.189   0.553  53.610  1.00  0.00    -0.242 NA
HETATM    8  C16 UNL     1      21.024  -0.259  53.344  1.00  0.00     0.352 A 
HETATM    9  O1  UNL     1      20.576  -0.149  52.022  1.00  0.00    -0.252 OA
ENDROOT
BRANCH   1  10
HETATM   10  C4  UNL     1      23.756   2.993  50.038  1.00  0.00     0.313 C 
BRANCH  10  11
HETATM   11  N2  UNL     1      23.385   4.158  49.258  1.00  0.00     0.092 N 
HETATM   12  C3  UNL     1      22.348   4.931  49.851  1.00  0.00     0.275 C 
HETATM   13  C2  UNL     1      22.734   5.621  51.117  1.00  0.00     0.065 C 
HETATM   14  C1  UNL     1      23.994   6.434  50.931  1.00  0.00     0.221 C 
HETATM   15  C18 UNL     1      25.078   5.655  50.226  1.00  0.00     0.065 C 
HETATM   16  C17 UNL     1      24.560   4.934  49.006  1.00  0.00     0.275 C 
BRANCH  14  17
HETATM   17  N1  UNL     1      24.485   6.806  52.240  1.00  0.00     0.083 N 
HETATM   18  H1  UNL     1      24.065   6.197  52.988  1.00  0.00     0.313 HD
HETATM   19  H2  UNL     1      25.513   6.678  52.268  1.00  0.00     0.313 HD
ENDBRANCH  14  17
ENDBRANCH  10  11
ENDBRANCH   1  10
BRANCH   6  20
HETATM   20  N4  UNL     1      23.885   2.022  53.085  1.00  0.00    -0.339 N 
HETATM   21  H12 UNL     1      23.746   2.976  53.408  1.00  0.00     0.167 HD
BRANCH  20  22
HETATM   22  C10 UNL     1      25.220   1.526  53.053  1.00  0.00     0.033 A 
HETATM   23  C11 UNL     1      26.233   2.226  53.688  1.00  0.00     0.029 A 
HETATM   24  C12 UNL     1      27.550   1.815  53.693  1.00  0.00     0.002 A 
HETATM   25  C13 UNL     1      27.919   0.661  53.051  1.00  0.00     0.000 A 
HETATM   26  C14 UNL     1      26.947  -0.071  52.405  1.00  0.00     0.002 A 
HETATM   27  C15 UNL     1      25.653   0.378  52.427  1.00  0.00     0.029 A 
ENDBRANCH  20  22
ENDBRANCH   6  20
TORSDOF 5
ENDMDL
