MODEL 1
REMARK VINA RESULT:      -6.9      0.000      0.000
REMARK  5 active torsions:
REMARK  status: ('A' for Active; 'I' for Inactive)
REMARK    1  A    between atoms: O1_2  and  C2_3 
REMARK    2  A    between atoms: C9_12  and  O2_13 
REMARK    3  A    between atoms: O2_13  and  C10_14 
REMARK    4  A    between atoms: C10_14  and  C11_15 
REMARK    5  A    between atoms: C11_15  and  N3_16 
ROOT
HETATM    1  C2  UNL     1      23.196   1.468  51.445  1.00  0.00     0.103 A 
HETATM    2  C3  UNL     1      22.000   0.823  51.777  1.00  0.00     0.072 A 
HETATM    3  C4  UNL     1      21.917  -0.036  52.879  1.00  0.00     0.072 A 
HETATM    4  N1  UNL     1      20.802  -0.673  53.237  1.00  0.00    -0.241 NA
HETATM    5  C5  UNL     1      20.781  -1.499  54.323  1.00  0.00     0.233 A 
HETATM    6  N2  UNL     1      21.919  -1.670  55.048  1.00  0.00    -0.253 NA
HETATM    7  C6  UNL     1      23.081  -1.064  54.753  1.00  0.00     0.132 A 
HETATM    8  C7  UNL     1      23.041  -0.243  53.645  1.00  0.00     0.013 A 
HETATM    9  C8  UNL     1      24.188   0.416  53.273  1.00  0.00     0.055 A 
HETATM   10  C9  UNL     1      24.342   1.269  52.209  1.00  0.00     0.103 A 
ENDROOT
BRANCH  10  11
HETATM   11  O2  UNL     1      25.384   1.978  51.719  1.00  0.00    -0.347 OA
BRANCH  11  12
HETATM   12  C10 UNL     1      26.741   1.689  51.684  1.00  0.00     0.196 C 
BRANCH  12  13
HETATM   13  C11 UNL     1      27.442   1.723  53.023  1.00  0.00     0.156 C 
BRANCH  13  14
HETATM   14  N3  UNL     1      28.167   0.482  53.268  1.00  0.00    -0.348 N 
HETATM   15  C12 UNL     1      29.487   0.404  53.582  1.00  0.00     0.111 A 
HETATM   16  C13 UNL     1      29.804  -0.924  53.736  1.00  0.00     0.135 A 
HETATM   17  N4  UNL     1      28.695  -1.657  53.519  1.00  0.00    -0.255 NA
HETATM   18  C14 UNL     1      27.704  -0.792  53.236  1.00  0.00     0.209 A 
ENDBRANCH  13  14
ENDBRANCH  12  13
ENDBRANCH  11  12
ENDBRANCH  10  11
BRANCH   1  19
HETATM   19  O1  UNL     1      23.131   2.288  50.328  1.00  0.00    -0.353 OA
HETATM   20  C1  UNL     1      21.946   2.989  50.067  1.00  0.00     0.210 C 
ENDBRANCH   1  19
TORSDOF 5
ENDMDL
MODEL 2
REMARK VINA RESULT:      -6.8      2.673      5.614
REMARK  5 active torsions:
REMARK  status: ('A' for Active; 'I' for Inactive)
REMARK    1  A    between atoms: O1_2  and  C2_3 
REMARK    2  A    between atoms: C9_12  and  O2_13 
REMARK    3  A    between atoms: O2_13  and  C10_14 
REMARK    4  A    between atoms: C10_14  and  C11_15 
REMARK    5  A    between atoms: C11_15  and  N3_16 
ROOT
HETATM    1  C2  UNL     1      24.958   0.420  53.071  1.00  0.00     0.103 A 
HETATM    2  C3  UNL     1      25.834  -0.670  53.032  1.00  0.00     0.072 A 
HETATM    3  C4  UNL     1      27.205  -0.512  53.259  1.00  0.00     0.072 A 
HETATM    4  N1  UNL     1      28.079  -1.517  53.232  1.00  0.00    -0.241 NA
HETATM    5  C5  UNL     1      29.408  -1.302  53.463  1.00  0.00     0.233 A 
HETATM    6  N2  UNL     1      29.838  -0.039  53.724  1.00  0.00    -0.253 NA
HETATM    7  C6  UNL     1      29.021   1.026  53.769  1.00  0.00     0.132 A 
HETATM    8  C7  UNL     1      27.692   0.747  53.528  1.00  0.00     0.013 A 
HETATM    9  C8  UNL     1      26.787   1.781  53.555  1.00  0.00     0.055 A 
HETATM   10  C9  UNL     1      25.434   1.700  53.342  1.00  0.00     0.103 A 
ENDROOT
BRANCH  10  11
HETATM   11  O2  UNL     1      24.431   2.606  53.331  1.00  0.00    -0.347 OA
BRANCH  11  12
HETATM   12  C10 UNL     1      24.192   3.685  52.491  1.00  0.00     0.196 C 
BRANCH  12  13
HETATM   13  C11 UNL     1      24.058   3.342  51.025  1.00  0.00     0.156 C 
BRANCH  13  14
HETATM   14  N3  UNL     1      25.208   3.823  50.267  1.00  0.00    -0.348 N 
HETATM   15  C12 UNL     1      25.241   4.984  49.561  1.00  0.00     0.111 A 
HETATM   16  C13 UNL     1      26.485   5.092  48.988  1.00  0.00     0.135 A 
HETATM   17  N4  UNL     1      27.211   4.010  49.333  1.00  0.00    -0.255 NA
HETATM   18  C14 UNL     1      26.425   3.245  50.113  1.00  0.00     0.209 A 
ENDBRANCH  13  14
ENDBRANCH  12  13
ENDBRANCH  11  12
ENDBRANCH  10  11
BRANCH   1  19
HETATM   19  O1  UNL     1      23.628   0.115  52.827  1.00  0.00    -0.353 OA
HETATM   20  C1  UNL     1      22.973  -0.795  53.667  1.00  0.00     0.210 C 
ENDBRANCH   1  19
TORSDOF 5
ENDMDL
MODEL 3
REMARK VINA RESULT:      -6.6      2.840      5.692
REMARK  5 active torsions:
REMARK  status: ('A' for Active; 'I' for Inactive)
REMARK    1  A    between atoms: O1_2  and  C2_3 
REMARK    2  A    between atoms: C9_12  and  O2_13 
REMARK    3  A    between atoms: O2_13  and  C10_14 
REMARK    4  A    between atoms: C10_14  and  C11_15 
REMARK    5  A    between atoms: C11_15  and  N3_16 
ROOT
HETATM    1  C2  UNL     1      24.185   0.176  53.409  1.00  0.00     0.103 A 
HETATM    2  C3  UNL     1      25.244  -0.447  54.077  1.00  0.00     0.072 A 
HETATM    3  C4  UNL     1      26.490   0.176  54.210  1.00  0.00     0.072 A 
HETATM    4  N1  UNL     1      27.529  -0.375  54.837  1.00  0.00    -0.241 NA
HETATM    5  C5  UNL     1      28.721   0.283  54.936  1.00  0.00     0.233 A 
HETATM    6  N2  UNL     1      28.844   1.519  54.384  1.00  0.00    -0.253 NA
HETATM    7  C6  UNL     1      27.845   2.142  53.738  1.00  0.00     0.132 A 
HETATM    8  C7  UNL     1      26.666   1.430  53.669  1.00  0.00     0.013 A 
HETATM    9  C8  UNL     1      25.592   1.994  53.025  1.00  0.00     0.055 A 
HETATM   10  C9  UNL     1      24.346   1.443  52.856  1.00  0.00     0.103 A 
ENDROOT
BRANCH  10  11
HETATM   11  O2  UNL     1      23.209   1.862  52.256  1.00  0.00    -0.347 OA
BRANCH  11  12
HETATM   12  C10 UNL     1      22.980   2.916  51.382  1.00  0.00     0.196 C 
BRANCH  12  13
HETATM   13  C11 UNL     1      23.449   2.689  49.963  1.00  0.00     0.156 C 
BRANCH  13  14
HETATM   14  N3  UNL     1      24.513   3.620  49.607  1.00  0.00    -0.348 N 
HETATM   15  C12 UNL     1      25.842   3.345  49.685  1.00  0.00     0.111 A 
HETATM   16  C13 UNL     1      26.527   4.461  49.268  1.00  0.00     0.135 A 
HETATM   17  N4  UNL     1      25.632   5.414  48.939  1.00  0.00    -0.255 NA
HETATM   18  C14 UNL     1      24.410   4.891  49.148  1.00  0.00     0.209 A 
ENDBRANCH  13  14
ENDBRANCH  12  13
ENDBRANCH  11  12
ENDBRANCH  10  11
BRANCH   1  19
HETATM   19  O1  UNL     1      23.011  -0.560  53.354  1.00  0.00    -0.353 OA
HETATM   20  C1  UNL     1      22.374  -0.915  54.550  1.00  0.00     0.210 C 
ENDBRANCH   1  19
TORSDOF 5
ENDMDL
MODEL 4
REMARK VINA RESULT:      -6.6      1.380      5.617
REMARK  5 active torsions:
REMARK  status: ('A' for Active; 'I' for Inactive)
REMARK    1  A    between atoms: O1_2  and  C2_3 
REMARK    2  A    between atoms: C9_12  and  O2_13 
REMARK    3  A    between atoms: O2_13  and  C10_14 
REMARK    4  A    between atoms: C10_14  and  C11_15 
REMARK    5  A    between atoms: C11_15  and  N3_16 
ROOT
HETATM    1  C2  UNL     1      25.633   2.469  51.586  1.00  0.00     0.103 A 
HETATM    2  C3  UNL     1      27.003   2.321  51.829  1.00  0.00     0.072 A 
HETATM    3  C4  UNL     1      27.475   1.544  52.893  1.00  0.00     0.072 A 
HETATM    4  N1  UNL     1      28.768   1.372  53.166  1.00  0.00    -0.241 NA
HETATM    5  C5  UNL     1      29.169   0.601  54.219  1.00  0.00     0.233 A 
HETATM    6  N2  UNL     1      28.229   0.002  54.997  1.00  0.00    -0.253 NA
HETATM    7  C6  UNL     1      26.907   0.125  54.787  1.00  0.00     0.132 A 
HETATM    8  C7  UNL     1      26.563   0.915  53.711  1.00  0.00     0.013 A 
HETATM    9  C8  UNL     1      25.231   1.095  53.425  1.00  0.00     0.055 A 
HETATM   10  C9  UNL     1      24.698   1.840  52.403  1.00  0.00     0.103 A 
ENDROOT
BRANCH  10  11
HETATM   11  O2  UNL     1      23.437   2.112  52.000  1.00  0.00    -0.347 OA
BRANCH  11  12
HETATM   12  C10 UNL     1      22.537   1.354  51.263  1.00  0.00     0.196 C 
BRANCH  12  13
HETATM   13  C11 UNL     1      21.248   1.012  51.975  1.00  0.00     0.156 C 
BRANCH  13  14
HETATM   14  N3  UNL     1      21.495   0.129  53.109  1.00  0.00    -0.348 N 
HETATM   15  C12 UNL     1      22.220  -1.020  53.054  1.00  0.00     0.111 A 
HETATM   16  C13 UNL     1      22.229  -1.571  54.313  1.00  0.00     0.135 A 
HETATM   17  N4  UNL     1      21.518  -0.775  55.134  1.00  0.00    -0.255 NA
HETATM   18  C14 UNL     1      21.076   0.257  54.392  1.00  0.00     0.209 A 
ENDBRANCH  13  14
ENDBRANCH  12  13
ENDBRANCH  11  12
ENDBRANCH  10  11
BRANCH   1  19
HETATM   19  O1  UNL     1      25.312   3.267  50.498  1.00  0.00    -0.353 OA
HETATM   20  C1  UNL     1      26.322   3.622  49.593  1.00  0.00     0.210 C 
ENDBRANCH   1  19
TORSDOF 5
ENDMDL
MODEL 5
REMARK VINA RESULT:      -6.4      2.520      3.867
REMARK  5 active torsions:
REMARK  status: ('A' for Active; 'I' for Inactive)
REMARK    1  A    between atoms: O1_2  and  C2_3 
REMARK    2  A    between atoms: C9_12  and  O2_13 
REMARK    3  A    between atoms: O2_13  and  C10_14 
REMARK    4  A    between atoms: C10_14  and  C11_15 
REMARK    5  A    between atoms: C11_15  and  N3_16 
ROOT
HETATM    1  C2  UNL     1      22.677   0.413  53.108  1.00  0.00     0.103 A 
HETATM    2  C3  UNL     1      21.664   1.244  52.619  1.00  0.00     0.072 A 
HETATM    3  C4  UNL     1      21.916   2.578  52.279  1.00  0.00     0.072 A 
HETATM    4  N1  UNL     1      20.986   3.409  51.809  1.00  0.00    -0.241 NA
HETATM    5  C5  UNL     1      21.292   4.702  51.494  1.00  0.00     0.233 A 
HETATM    6  N2  UNL     1      22.567   5.141  51.664  1.00  0.00    -0.253 NA
HETATM    7  C6  UNL     1      23.560   4.366  52.131  1.00  0.00     0.132 A 
HETATM    8  C7  UNL     1      23.192   3.072  52.432  1.00  0.00     0.013 A 
HETATM    9  C8  UNL     1      24.147   2.211  52.917  1.00  0.00     0.055 A 
HETATM   10  C9  UNL     1      23.972   0.896  53.270  1.00  0.00     0.103 A 
ENDROOT
BRANCH  10  11
HETATM   11  O2  UNL     1      24.793  -0.061  53.755  1.00  0.00    -0.347 OA
BRANCH  11  12
HETATM   12  C10 UNL     1      25.706  -0.885  53.110  1.00  0.00     0.196 C 
BRANCH  12  13
HETATM   13  C11 UNL     1      26.730  -0.170  52.258  1.00  0.00     0.156 C 
BRANCH  13  14
HETATM   14  N3  UNL     1      27.588   0.681  53.074  1.00  0.00    -0.348 N 
HETATM   15  C12 UNL     1      27.866   1.985  52.808  1.00  0.00     0.111 A 
HETATM   16  C13 UNL     1      28.705   2.445  53.795  1.00  0.00     0.135 A 
HETATM   17  N4  UNL     1      28.942   1.438  54.658  1.00  0.00    -0.255 NA
HETATM   18  C14 UNL     1      28.258   0.370  54.211  1.00  0.00     0.209 A 
ENDBRANCH  13  14
ENDBRANCH  12  13
ENDBRANCH  11  12
ENDBRANCH  10  11
BRANCH   1  19
HETATM   19  O1  UNL     1      22.282  -0.883  53.403  1.00  0.00    -0.353 OA
HETATM   20  C1  UNL     1      21.088  -1.087  54.107  1.00  0.00     0.210 C 
ENDBRANCH   1  19
TORSDOF 5
ENDMDL
MODEL 6
REMARK VINA RESULT:      -6.3      3.241      5.010
REMARK  5 active torsions:
REMARK  status: ('A' for Active; 'I' for Inactive)
REMARK    1  A    between atoms: O1_2  and  C2_3 
REMARK    2  A    between atoms: C9_12  and  O2_13 
REMARK    3  A    between atoms: O2_13  and  C10_14 
REMARK    4  A    between atoms: C10_14  and  C11_15 
REMARK    5  A    between atoms: C11_15  and  N3_16 
ROOT
HETATM    1  C2  UNL     1      25.969   0.061  52.801  1.00  0.00     0.103 A 
HETATM    2  C3  UNL     1      25.198  -0.656  53.722  1.00  0.00     0.072 A 
HETATM    3  C4  UNL     1      23.826  -0.417  53.867  1.00  0.00     0.072 A 
HETATM    4  N1  UNL     1      23.049  -1.073  54.729  1.00  0.00    -0.241 NA
HETATM    5  C5  UNL     1      21.716  -0.796  54.826  1.00  0.00     0.233 A 
HETATM    6  N2  UNL     1      21.179   0.163  54.027  1.00  0.00    -0.253 NA
HETATM    7  C6  UNL     1      21.894   0.867  53.133  1.00  0.00     0.132 A 
HETATM    8  C7  UNL     1      23.234   0.544  53.081  1.00  0.00     0.013 A 
HETATM    9  C8  UNL     1      24.039   1.217  52.193  1.00  0.00     0.055 A 
HETATM   10  C9  UNL     1      25.385   1.037  51.998  1.00  0.00     0.103 A 
ENDROOT
BRANCH  10  11
HETATM   11  O2  UNL     1      26.299   1.609  51.184  1.00  0.00    -0.347 OA
BRANCH  11  12
HETATM   12  C10 UNL     1      26.573   2.946  50.925  1.00  0.00     0.196 C 
BRANCH  12  13
HETATM   13  C11 UNL     1      25.794   3.553  49.781  1.00  0.00     0.156 C 
BRANCH  13  14
HETATM   14  N3  UNL     1      26.487   4.714  49.233  1.00  0.00    -0.348 N 
HETATM   15  C12 UNL     1      25.974   5.973  49.190  1.00  0.00     0.111 A 
HETATM   16  C13 UNL     1      26.914   6.788  48.608  1.00  0.00     0.135 A 
HETATM   17  N4  UNL     1      27.993   6.044  48.295  1.00  0.00    -0.255 NA
HETATM   18  C14 UNL     1      27.722   4.783  48.681  1.00  0.00     0.209 A 
ENDBRANCH  13  14
ENDBRANCH  12  13
ENDBRANCH  11  12
ENDBRANCH  10  11
BRANCH   1  19
HETATM   19  O1  UNL     1      27.312  -0.282  52.766  1.00  0.00    -0.353 OA
HETATM   20  C1  UNL     1      28.136   0.089  53.837  1.00  0.00     0.210 C 
ENDBRANCH   1  19
TORSDOF 5
ENDMDL
MODEL 7
REMARK VINA RESULT:      -6.3      1.873      6.638
REMARK  5 active torsions:
REMARK  status: ('A' for Active; 'I' for Inactive)
REMARK    1  A    between atoms: O1_2  and  C2_3 
REMARK    2  A    between atoms: C9_12  and  O2_13 
REMARK    3  A    between atoms: O2_13  and  C10_14 
REMARK    4  A    between atoms: C10_14  and  C11_15 
REMARK    5  A    between atoms: C11_15  and  N3_16 
ROOT
HETATM    1  C2  UNL     1      24.360   0.851  52.411  1.00  0.00     0.103 A 
HETATM    2  C3  UNL     1      25.500   1.623  52.157  1.00  0.00     0.072 A 
HETATM    3  C4  UNL     1      26.649   1.509  52.947  1.00  0.00     0.072 A 
HETATM    4  N1  UNL     1      27.758   2.220  52.746  1.00  0.00    -0.241 NA
HETATM    5  C5  UNL     1      28.849   2.065  53.551  1.00  0.00     0.233 A 
HETATM    6  N2  UNL     1      28.798   1.168  54.571  1.00  0.00    -0.253 NA
HETATM    7  C6  UNL     1      27.719   0.414  54.839  1.00  0.00     0.132 A 
HETATM    8  C7  UNL     1      26.648   0.614  53.994  1.00  0.00     0.013 A 
HETATM    9  C8  UNL     1      25.503  -0.118  54.197  1.00  0.00     0.055 A 
HETATM   10  C9  UNL     1      24.343  -0.058  53.465  1.00  0.00     0.103 A 
ENDROOT
BRANCH  10  11
HETATM   11  O2  UNL     1      23.154  -0.696  53.539  1.00  0.00    -0.347 OA
BRANCH  11  12
HETATM   12  C10 UNL     1      22.137  -0.613  54.480  1.00  0.00     0.196 C 
BRANCH  12  13
HETATM   13  C11 UNL     1      20.971  -1.548  54.253  1.00  0.00     0.156 C 
BRANCH  13  14
HETATM   14  N3  UNL     1      19.930  -0.905  53.460  1.00  0.00    -0.348 N 
HETATM   15  C12 UNL     1      18.650  -1.350  53.354  1.00  0.00     0.111 A 
HETATM   16  C13 UNL     1      17.973  -0.487  52.525  1.00  0.00     0.135 A 
HETATM   17  N4  UNL     1      18.825   0.477  52.123  1.00  0.00    -0.255 NA
HETATM   18  C14 UNL     1      20.012   0.213  52.698  1.00  0.00     0.209 A 
ENDBRANCH  13  14
ENDBRANCH  12  13
ENDBRANCH  11  12
ENDBRANCH  10  11
BRANCH   1  19
HETATM   19  O1  UNL     1      23.298   1.070  51.548  1.00  0.00    -0.353 OA
HETATM   20  C1  UNL     1      23.278   2.239  50.776  1.00  0.00     0.210 C 
ENDBRANCH   1  19
TORSDOF 5
ENDMDL
MODEL 8
REMARK VINA RESULT:      -6.3      2.089      6.207
REMARK  5 active torsions:
REMARK  status: ('A' for Active; 'I' for Inactive)
REMARK    1  A    between atoms: O1_2  and  C2_3 
REMARK    2  A    between atoms: C9_12  and  O2_13 
REMARK    3  A    between atoms: O2_13  and  C10_14 
REMARK    4  A    between atoms: C10_14  and  C11_15 
REMARK    5  A    between atoms: C11_15  and  N3_16 
ROOT
HETATM    1  C2  UNL     1      24.400   0.945  52.452  1.00  0.00     0.103 A 
HETATM    2  C3  UNL     1      25.071   0.225  53.446  1.00  0.00     0.072 A 
HETATM    3  C4  UNL     1      26.390   0.527  53.802  1.00  0.00     0.072 A 
HETATM    4  N1  UNL     1      27.072  -0.128  54.741  1.00  0.00    -0.241 NA
HETATM    5  C5  UNL     1      28.358   0.213  55.045  1.00  0.00     0.233 A 
HETATM    6  N2  UNL     1      28.947   1.239  54.376  1.00  0.00    -0.253 NA
HETATM    7  C6  UNL     1      28.328   1.949  53.418  1.00  0.00     0.132 A 
HETATM    8  C7  UNL     1      27.032   1.559  53.154  1.00  0.00     0.013 A 
HETATM    9  C8  UNL     1      26.325   2.233  52.187  1.00  0.00     0.055 A 
HETATM   10  C9  UNL     1      25.034   1.991  51.788  1.00  0.00     0.103 A 
ENDROOT
BRANCH  10  11
HETATM   11  O2  UNL     1      24.217   2.551  50.868  1.00  0.00    -0.347 OA
BRANCH  11  12
HETATM   12  C10 UNL     1      23.834   3.872  50.681  1.00  0.00     0.196 C 
BRANCH  12  13
HETATM   13  C11 UNL     1      22.441   4.066  50.124  1.00  0.00     0.156 C 
BRANCH  13  14
HETATM   14  N3  UNL     1      21.442   3.440  50.982  1.00  0.00    -0.348 N 
HETATM   15  C12 UNL     1      20.608   2.437  50.596  1.00  0.00     0.111 A 
HETATM   16  C13 UNL     1      19.817   2.113  51.672  1.00  0.00     0.135 A 
HETATM   17  N4  UNL     1      20.156   2.905  52.707  1.00  0.00    -0.255 NA
HETATM   18  C14 UNL     1      21.147   3.708  52.277  1.00  0.00     0.209 A 
ENDBRANCH  13  14
ENDBRANCH  12  13
ENDBRANCH  11  12
ENDBRANCH  10  11
BRANCH   1  19
HETATM   19  O1  UNL     1      23.099   0.535  52.206  1.00  0.00    -0.353 OA
HETATM   20  C1  UNL     1      22.407  -0.169  53.201  1.00  0.00     0.210 C 
ENDBRANCH   1  19
TORSDOF 5
ENDMDL
MODEL 9
REMARK VINA RESULT:      -6.2      2.449      4.744
REMARK  5 active torsions:
REMARK  status: ('A' for Active; 'I' for Inactive)
REMARK    1  A    between atoms: O1_2  and  C2_3 
REMARK    2  A    between atoms: C9_12  and  O2_13 
REMARK    3  A    between atoms: O2_13  and  C10_14 
REMARK    4  A    between atoms: C10_14  and  C11_15 
REMARK    5  A    between atoms: C11_15  and  N3_16 
ROOT
HETATM    1  C2  UNL     1      25.863  -0.288  53.587  1.00  0.00     0.103 A 
HETATM    2  C3  UNL     1      24.942  -0.939  54.416  1.00  0.00     0.072 A 
HETATM    3  C4  UNL     1      23.564  -0.751  54.263  1.00  0.00     0.072 A 
HETATM    4  N1  UNL     1      22.648  -1.348  55.025  1.00  0.00    -0.241 NA
HETATM    5  C5  UNL     1      21.316  -1.126  54.828  1.00  0.00     0.233 A 
HETATM    6  N2  UNL     1      20.924  -0.283  53.837  1.00  0.00    -0.253 NA
HETATM    7  C6  UNL     1      21.784   0.355  53.026  1.00  0.00     0.132 A 
HETATM    8  C7  UNL     1      23.115   0.093  53.273  1.00  0.00     0.013 A 
HETATM    9  C8  UNL     1      24.063   0.705  52.489  1.00  0.00     0.055 A 
HETATM   10  C9  UNL     1      25.426   0.569  52.581  1.00  0.00     0.103 A 
ENDROOT
BRANCH  10  11
HETATM   11  O2  UNL     1      26.469   1.095  51.901  1.00  0.00    -0.347 OA
BRANCH  11  12
HETATM   12  C10 UNL     1      26.817   2.416  51.655  1.00  0.00     0.196 C 
BRANCH  12  13
HETATM   13  C11 UNL     1      26.447   2.935  50.284  1.00  0.00     0.156 C 
BRANCH  13  14
HETATM   14  N3  UNL     1      25.072   3.419  50.261  1.00  0.00    -0.348 N 
HETATM   15  C12 UNL     1      24.491   4.151  51.249  1.00  0.00     0.111 A 
HETATM   16  C13 UNL     1      23.197   4.417  50.869  1.00  0.00     0.135 A 
HETATM   17  N4  UNL     1      22.981   3.857  49.663  1.00  0.00    -0.255 NA
HETATM   18  C14 UNL     1      24.129   3.253  49.302  1.00  0.00     0.209 A 
ENDBRANCH  13  14
ENDBRANCH  12  13
ENDBRANCH  11  12
ENDBRANCH  10  11
BRANCH   1  19
HETATM   19  O1  UNL     1      27.194  -0.568  53.854  1.00  0.00    -0.353 OA
HETATM   20  C1  UNL     1      27.864   0.179  54.833  1.00  0.00     0.210 C 
ENDBRANCH   1  19
TORSDOF 5
ENDMDL
