MODEL 1
REMARK VINA RESULT:      -9.2      0.000      0.000
REMARK  2 active torsions:
REMARK  status: ('A' for Active; 'I' for Inactive)
REMARK    1  A    between atoms: C5_6  and  O1_7 
REMARK    2  A    between atoms: C6_8  and  O2_9 
ROOT
HETATM    1  C1  UNL     1      26.500   3.882  49.403  1.00  0.00     0.067 C 
HETATM    2  C2  UNL     1      26.175   3.256  50.683  1.00  0.00     0.030 C 
HETATM    3  N1  UNL     1      27.200   2.735  51.200  1.00  0.00    -0.296 NA
HETATM    4  C3  UNL     1      27.366   2.066  52.343  1.00  0.00     0.161 C 
HETATM    5  C4  UNL     1      27.539   1.376  53.515  1.00  0.00     0.077 C 
HETATM    6  C5  UNL     1      26.909   0.554  54.380  1.00  0.00     0.082 C 
HETATM    7  C6  UNL     1      25.746  -0.233  54.786  1.00  0.00     0.091 C 
HETATM    8  C7  UNL     1      24.587  -0.549  54.336  1.00  0.00     0.017 C 
HETATM    9  C8  UNL     1      23.307  -1.228  54.463  1.00  0.00     0.069 C 
HETATM   10  C9  UNL     1      22.113  -0.593  53.924  1.00  0.00    -0.048 A 
HETATM   11  C10 UNL     1      21.074  -1.503  54.156  1.00  0.00     0.008 A 
HETATM   12  C11 UNL     1      19.764  -1.292  53.750  1.00  0.00     0.001 A 
HETATM   13  C12 UNL     1      19.446  -0.123  53.078  1.00  0.00     0.001 A 
HETATM   14  C13 UNL     1      20.422   0.776  52.839  1.00  0.00     0.007 A 
HETATM   15  C14 UNL     1      21.704   0.532  53.253  1.00  0.00    -0.050 A 
HETATM   16  C15 UNL     1      22.759   1.558  52.939  1.00  0.00     0.069 C 
HETATM   17  C16 UNL     1      23.086   1.452  51.451  1.00  0.00     0.274 C 
HETATM   18  N2  UNL     1      24.352   1.912  51.070  1.00  0.00     0.088 N 
HETATM   19  C17 UNL     1      24.728   3.268  51.191  1.00  0.00     0.323 C 
HETATM   20  H20 UNL     1      24.476   1.645  50.034  1.00  0.00     0.316 HD
ENDROOT
BRANCH   6  21
HETATM   21  O1  UNL     1      28.010   0.496  55.208  1.00  0.00    -0.362 OA
HETATM   22  H7  UNL     1      28.957   0.666  54.813  1.00  0.00     0.217 HD
ENDBRANCH   6  21
BRANCH   7  23
HETATM   23  O2  UNL     1      25.744  -0.879  55.985  1.00  0.00    -0.358 OA
HETATM   24  H8  UNL     1      26.592  -1.233  56.386  1.00  0.00     0.217 HD
ENDBRANCH   7  23
TORSDOF 2
ENDMDL
MODEL 2
REMARK VINA RESULT:      -8.6      2.623      5.052
REMARK  2 active torsions:
REMARK  status: ('A' for Active; 'I' for Inactive)
REMARK    1  A    between atoms: C5_6  and  O1_7 
REMARK    2  A    between atoms: C6_8  and  O2_9 
ROOT
HETATM    1  C1  UNL     1      28.245   0.213  54.901  1.00  0.00     0.067 C 
HETATM    2  C2  UNL     1      26.816   0.357  54.627  1.00  0.00     0.030 C 
HETATM    3  N1  UNL     1      26.167  -0.605  55.120  1.00  0.00    -0.296 NA
HETATM    4  C3  UNL     1      24.862  -0.882  55.111  1.00  0.00     0.161 C 
HETATM    5  C4  UNL     1      23.521  -1.172  55.100  1.00  0.00     0.077 C 
HETATM    6  C5  UNL     1      22.397  -1.027  54.367  1.00  0.00     0.082 C 
HETATM    7  C6  UNL     1      21.700  -0.578  53.164  1.00  0.00     0.091 C 
HETATM    8  C7  UNL     1      21.972  -0.035  52.034  1.00  0.00     0.017 C 
HETATM    9  C8  UNL     1      21.571   0.503  50.744  1.00  0.00     0.069 C 
HETATM   10  C9  UNL     1      22.279   1.656  50.207  1.00  0.00    -0.048 A 
HETATM   11  C10 UNL     1      21.701   1.895  48.954  1.00  0.00     0.008 A 
HETATM   12  C11 UNL     1      22.124   2.894  48.090  1.00  0.00     0.001 A 
HETATM   13  C12 UNL     1      23.176   3.713  48.470  1.00  0.00     0.001 A 
HETATM   14  C13 UNL     1      23.755   3.512  49.671  1.00  0.00     0.007 A 
HETATM   15  C14 UNL     1      23.311   2.513  50.495  1.00  0.00    -0.050 A 
HETATM   16  C15 UNL     1      24.010   2.317  51.813  1.00  0.00     0.069 C 
HETATM   17  C16 UNL     1      25.358   1.658  51.534  1.00  0.00     0.274 C 
HETATM   18  N2  UNL     1      25.913   0.931  52.594  1.00  0.00     0.088 N 
HETATM   19  C17 UNL     1      26.315   1.547  53.800  1.00  0.00     0.323 C 
HETATM   20  H20 UNL     1      26.778   0.425  52.199  1.00  0.00     0.316 HD
ENDROOT
BRANCH   6  21
HETATM   21  O1  UNL     1      21.634  -1.677  55.314  1.00  0.00    -0.362 OA
HETATM   22  H7  UNL     1      21.155  -1.122  56.054  1.00  0.00     0.217 HD
ENDBRANCH   6  21
BRANCH   7  23
HETATM   23  O2  UNL     1      20.347  -0.704  53.072  1.00  0.00    -0.358 OA
HETATM   24  H8  UNL     1      19.856  -1.416  53.579  1.00  0.00     0.217 HD
ENDBRANCH   7  23
TORSDOF 2
ENDMDL
MODEL 3
REMARK VINA RESULT:      -8.4      2.256      5.611
REMARK  2 active torsions:
REMARK  status: ('A' for Active; 'I' for Inactive)
REMARK    1  A    between atoms: C5_6  and  O1_7 
REMARK    2  A    between atoms: C6_8  and  O2_9 
ROOT
HETATM    1  C1  UNL     1      20.627   4.225  51.381  1.00  0.00     0.067 C 
HETATM    2  C2  UNL     1      21.204   2.972  51.861  1.00  0.00     0.030 C 
HETATM    3  N1  UNL     1      20.392   2.362  52.608  1.00  0.00    -0.296 NA
HETATM    4  C3  UNL     1      20.496   1.202  53.259  1.00  0.00     0.161 C 
HETATM    5  C4  UNL     1      20.602   0.011  53.933  1.00  0.00     0.077 C 
HETATM    6  C5  UNL     1      21.490  -0.805  54.538  1.00  0.00     0.082 C 
HETATM    7  C6  UNL     1      22.844  -1.116  54.990  1.00  0.00     0.091 C 
HETATM    8  C7  UNL     1      24.005  -0.571  55.016  1.00  0.00     0.017 C 
HETATM    9  C8  UNL     1      25.421  -0.593  55.343  1.00  0.00     0.069 C 
HETATM   10  C9  UNL     1      26.365   0.055  54.444  1.00  0.00    -0.048 A 
HETATM   11  C10 UNL     1      27.618  -0.095  55.051  1.00  0.00     0.008 A 
HETATM   12  C11 UNL     1      28.793   0.425  54.528  1.00  0.00     0.001 A 
HETATM   13  C12 UNL     1      28.745   1.136  53.339  1.00  0.00     0.001 A 
HETATM   14  C13 UNL     1      27.555   1.298  52.726  1.00  0.00     0.007 A 
HETATM   15  C14 UNL     1      26.417   0.772  53.275  1.00  0.00    -0.050 A 
HETATM   16  C15 UNL     1      25.113   1.004  52.561  1.00  0.00     0.069 C 
HETATM   17  C16 UNL     1      24.704   2.456  52.796  1.00  0.00     0.274 C 
HETATM   18  N2  UNL     1      23.335   2.730  52.685  1.00  0.00     0.088 N 
HETATM   19  C17 UNL     1      22.636   2.592  51.465  1.00  0.00     0.323 C 
HETATM   20  H20 UNL     1      23.200   3.749  53.008  1.00  0.00     0.316 HD
ENDROOT
BRANCH   6  21
HETATM   21  O1  UNL     1      20.511  -1.726  54.847  1.00  0.00    -0.362 OA
HETATM   22  H7  UNL     1      19.512  -1.483  54.690  1.00  0.00     0.217 HD
ENDBRANCH   6  21
BRANCH   7  23
HETATM   23  O2  UNL     1      23.110  -2.317  55.575  1.00  0.00    -0.358 OA
HETATM   24  H8  UNL     1      23.718  -2.384  56.369  1.00  0.00     0.217 HD
ENDBRANCH   7  23
TORSDOF 2
ENDMDL
MODEL 4
REMARK VINA RESULT:      -8.2      1.320      2.106
REMARK  2 active torsions:
REMARK  status: ('A' for Active; 'I' for Inactive)
REMARK    1  A    between atoms: C5_6  and  O1_7 
REMARK    2  A    between atoms: C6_8  and  O2_9 
ROOT
HETATM    1  C1  UNL     1      25.947   2.891  50.165  1.00  0.00     0.067 C 
HETATM    2  C2  UNL     1      25.266   2.281  51.304  1.00  0.00     0.030 C 
HETATM    3  N1  UNL     1      26.055   1.544  51.956  1.00  0.00    -0.296 NA
HETATM    4  C3  UNL     1      25.865   0.801  53.048  1.00  0.00     0.161 C 
HETATM    5  C4  UNL     1      25.673   0.034  54.169  1.00  0.00     0.077 C 
HETATM    6  C5  UNL     1      24.744  -0.689  54.829  1.00  0.00     0.082 C 
HETATM    7  C6  UNL     1      23.400  -1.250  54.943  1.00  0.00     0.091 C 
HETATM    8  C7  UNL     1      22.315  -1.311  54.261  1.00  0.00     0.017 C 
HETATM    9  C8  UNL     1      20.934  -1.731  54.090  1.00  0.00     0.069 C 
HETATM   10  C9  UNL     1      20.007  -0.848  53.395  1.00  0.00    -0.048 A 
HETATM   11  C10 UNL     1      18.794  -1.547  53.351  1.00  0.00     0.008 A 
HETATM   12  C11 UNL     1      17.652  -1.063  52.730  1.00  0.00     0.001 A 
HETATM   13  C12 UNL     1      17.693   0.176  52.112  1.00  0.00     0.001 A 
HETATM   14  C13 UNL     1      18.845   0.877  52.136  1.00  0.00     0.007 A 
HETATM   15  C14 UNL     1      19.952   0.366  52.758  1.00  0.00    -0.050 A 
HETATM   16  C15 UNL     1      21.218   1.179  52.734  1.00  0.00     0.069 C 
HETATM   17  C16 UNL     1      21.809   1.082  51.329  1.00  0.00     0.274 C 
HETATM   18  N2  UNL     1      23.188   1.303  51.230  1.00  0.00     0.088 N 
HETATM   19  C17 UNL     1      23.774   2.552  51.534  1.00  0.00     0.323 C 
HETATM   20  H20 UNL     1      23.464   1.068  50.216  1.00  0.00     0.316 HD
ENDROOT
BRANCH   6  21
HETATM   21  O1  UNL     1      25.630  -1.002  55.839  1.00  0.00    -0.362 OA
HETATM   22  H7  UNL     1      26.230  -0.254  56.242  1.00  0.00     0.217 HD
ENDBRANCH   6  21
BRANCH   7  23
HETATM   23  O2  UNL     1      23.041  -1.941  56.061  1.00  0.00    -0.358 OA
HETATM   24  H8  UNL     1      23.663  -2.607  56.481  1.00  0.00     0.217 HD
ENDBRANCH   7  23
TORSDOF 2
ENDMDL
MODEL 5
REMARK VINA RESULT:      -8.1      2.007      2.591
REMARK  2 active torsions:
REMARK  status: ('A' for Active; 'I' for Inactive)
REMARK    1  A    between atoms: C5_6  and  O1_7 
REMARK    2  A    between atoms: C6_8  and  O2_9 
ROOT
HETATM    1  C1  UNL     1      22.898   5.128  47.785  1.00  0.00     0.067 C 
HETATM    2  C2  UNL     1      23.403   4.518  49.013  1.00  0.00     0.030 C 
HETATM    3  N1  UNL     1      24.656   4.382  48.963  1.00  0.00    -0.296 NA
HETATM    4  C3  UNL     1      25.522   3.876  49.843  1.00  0.00     0.161 C 
HETATM    5  C4  UNL     1      26.415   3.354  50.745  1.00  0.00     0.077 C 
HETATM    6  C5  UNL     1      26.537   2.435  51.725  1.00  0.00     0.082 C 
HETATM    7  C6  UNL     1      25.995   1.351  52.541  1.00  0.00     0.091 C 
HETATM    8  C7  UNL     1      24.921   0.656  52.637  1.00  0.00     0.017 C 
HETATM    9  C8  UNL     1      24.121  -0.381  53.268  1.00  0.00     0.069 C 
HETATM   10  C9  UNL     1      22.682  -0.192  53.385  1.00  0.00    -0.048 A 
HETATM   11  C10 UNL     1      22.201  -1.366  53.980  1.00  0.00     0.008 A 
HETATM   12  C11 UNL     1      20.858  -1.605  54.230  1.00  0.00     0.001 A 
HETATM   13  C12 UNL     1      19.924  -0.643  53.880  1.00  0.00     0.001 A 
HETATM   14  C13 UNL     1      20.352   0.500  53.307  1.00  0.00     0.007 A 
HETATM   15  C14 UNL     1      21.686   0.699  53.073  1.00  0.00    -0.050 A 
HETATM   16  C15 UNL     1      22.106   1.983  52.409  1.00  0.00     0.069 C 
HETATM   17  C16 UNL     1      21.734   1.887  50.931  1.00  0.00     0.274 C 
HETATM   18  N2  UNL     1      22.475   2.696  50.061  1.00  0.00     0.088 N 
HETATM   19  C17 UNL     1      22.423   4.107  50.119  1.00  0.00     0.323 C 
HETATM   20  H20 UNL     1      22.189   2.414  49.062  1.00  0.00     0.316 HD
ENDROOT
BRANCH   6  21
HETATM   21  O1  UNL     1      27.851   2.782  51.957  1.00  0.00    -0.362 OA
HETATM   22  H7  UNL     1      28.310   2.486  52.843  1.00  0.00     0.217 HD
ENDBRANCH   6  21
BRANCH   7  23
HETATM   23  O2  UNL     1      26.739   0.817  53.549  1.00  0.00    -0.358 OA
HETATM   24  H8  UNL     1      27.079   1.387  54.301  1.00  0.00     0.217 HD
ENDBRANCH   7  23
TORSDOF 2
ENDMDL
MODEL 6
REMARK VINA RESULT:      -7.7      2.734      6.288
REMARK  2 active torsions:
REMARK  status: ('A' for Active; 'I' for Inactive)
REMARK    1  A    between atoms: C5_6  and  O1_7 
REMARK    2  A    between atoms: C6_8  and  O2_9 
ROOT
HETATM    1  C1  UNL     1      16.623   0.337  51.477  1.00  0.00     0.067 C 
HETATM    2  C2  UNL     1      18.033   0.033  51.711  1.00  0.00     0.030 C 
HETATM    3  N1  UNL     1      18.193  -0.515  52.835  1.00  0.00    -0.296 NA
HETATM    4  C3  UNL     1      19.293  -0.951  53.453  1.00  0.00     0.161 C 
HETATM    5  C4  UNL     1      20.422  -1.398  54.092  1.00  0.00     0.077 C 
HETATM    6  C5  UNL     1      21.745  -1.167  54.220  1.00  0.00     0.082 C 
HETATM    7  C6  UNL     1      22.947  -0.393  53.917  1.00  0.00     0.091 C 
HETATM    8  C7  UNL     1      23.281   0.661  53.266  1.00  0.00     0.017 C 
HETATM    9  C8  UNL     1      24.275   1.611  52.794  1.00  0.00     0.069 C 
HETATM   10  C9  UNL     1      24.123   2.193  51.468  1.00  0.00    -0.048 A 
HETATM   11  C10 UNL     1      25.192   3.088  51.333  1.00  0.00     0.008 A 
HETATM   12  C11 UNL     1      25.389   3.886  50.215  1.00  0.00     0.001 A 
HETATM   13  C12 UNL     1      24.490   3.807  49.163  1.00  0.00     0.001 A 
HETATM   14  C13 UNL     1      23.451   2.954  49.259  1.00  0.00     0.007 A 
HETATM   15  C14 UNL     1      23.288   2.184  50.380  1.00  0.00    -0.050 A 
HETATM   16  C15 UNL     1      22.097   1.267  50.444  1.00  0.00     0.069 C 
HETATM   17  C16 UNL     1      20.860   2.125  50.702  1.00  0.00     0.274 C 
HETATM   18  N2  UNL     1      19.778   1.471  51.303  1.00  0.00     0.088 N 
HETATM   19  C17 UNL     1      19.081   0.424  50.661  1.00  0.00     0.323 C 
HETATM   20  H20 UNL     1      19.052   2.232  51.537  1.00  0.00     0.316 HD
ENDROOT
BRANCH   6  21
HETATM   21  O1  UNL     1      21.897  -2.221  55.096  1.00  0.00    -0.362 OA
HETATM   22  H7  UNL     1      22.748  -2.817  55.038  1.00  0.00     0.217 HD
ENDBRANCH   6  21
BRANCH   7  23
HETATM   23  O2  UNL     1      24.156  -0.794  54.398  1.00  0.00    -0.358 OA
HETATM   24  H8  UNL     1      24.984  -0.738  53.834  1.00  0.00     0.217 HD
ENDBRANCH   7  23
TORSDOF 2
ENDMDL
MODEL 7
REMARK VINA RESULT:      -7.6      2.379      5.427
REMARK  2 active torsions:
REMARK  status: ('A' for Active; 'I' for Inactive)
REMARK    1  A    between atoms: C5_6  and  O1_7 
REMARK    2  A    between atoms: C6_8  and  O2_9 
ROOT
HETATM    1  C1  UNL     1      23.889   5.431  48.664  1.00  0.00     0.067 C 
HETATM    2  C2  UNL     1      23.861   4.119  49.306  1.00  0.00     0.030 C 
HETATM    3  N1  UNL     1      22.678   3.783  49.586  1.00  0.00    -0.296 NA
HETATM    4  C3  UNL     1      22.190   2.688  50.172  1.00  0.00     0.161 C 
HETATM    5  C4  UNL     1      21.685   1.564  50.777  1.00  0.00     0.077 C 
HETATM    6  C5  UNL     1      21.978   0.612  51.687  1.00  0.00     0.082 C 
HETATM    7  C6  UNL     1      22.866   0.024  52.687  1.00  0.00     0.091 C 
HETATM    8  C7  UNL     1      23.989   0.277  53.252  1.00  0.00     0.017 C 
HETATM    9  C8  UNL     1      25.058  -0.056  54.180  1.00  0.00     0.069 C 
HETATM   10  C9  UNL     1      26.431   0.273  53.825  1.00  0.00    -0.048 A 
HETATM   11  C10 UNL     1      27.203  -0.122  54.925  1.00  0.00     0.008 A 
HETATM   12  C11 UNL     1      28.576   0.059  55.005  1.00  0.00     0.001 A 
HETATM   13  C12 UNL     1      29.239   0.662  53.948  1.00  0.00     0.001 A 
HETATM   14  C13 UNL     1      28.528   1.054  52.872  1.00  0.00     0.007 A 
HETATM   15  C14 UNL     1      27.173   0.860  52.831  1.00  0.00    -0.050 A 
HETATM   16  C15 UNL     1      26.424   1.338  51.616  1.00  0.00     0.069 C 
HETATM   17  C16 UNL     1      26.330   2.861  51.695  1.00  0.00     0.274 C 
HETATM   18  N2  UNL     1      25.270   3.443  50.991  1.00  0.00     0.088 N 
HETATM   19  C17 UNL     1      25.174   3.378  49.583  1.00  0.00     0.323 C 
HETATM   20  H20 UNL     1      25.264   4.487  51.256  1.00  0.00     0.316 HD
ENDROOT
BRANCH   6  21
HETATM   21  O1  UNL     1      20.769  -0.021  51.489  1.00  0.00    -0.362 OA
HETATM   22  H7  UNL     1      19.895   0.543  51.452  1.00  0.00     0.217 HD
ENDBRANCH   6  21
BRANCH   7  23
HETATM   23  O2  UNL     1      22.535  -1.154  53.285  1.00  0.00    -0.358 OA
HETATM   24  H8  UNL     1      22.179  -1.925  52.751  1.00  0.00     0.217 HD
ENDBRANCH   7  23
TORSDOF 2
ENDMDL
MODEL 8
REMARK VINA RESULT:      -7.5      3.148      5.629
REMARK  2 active torsions:
REMARK  status: ('A' for Active; 'I' for Inactive)
REMARK    1  A    between atoms: C5_6  and  O1_7 
REMARK    2  A    between atoms: C6_8  and  O2_9 
ROOT
HETATM    1  C1  UNL     1      21.922   6.824  50.558  1.00  0.00     0.067 C 
HETATM    2  C2  UNL     1      21.826   5.379  50.755  1.00  0.00     0.030 C 
HETATM    3  N1  UNL     1      20.688   5.062  51.197  1.00  0.00    -0.296 NA
HETATM    4  C3  UNL     1      20.169   3.876  51.519  1.00  0.00     0.161 C 
HETATM    5  C4  UNL     1      19.633   2.658  51.855  1.00  0.00     0.077 C 
HETATM    6  C5  UNL     1      19.957   1.437  52.331  1.00  0.00     0.082 C 
HETATM    7  C6  UNL     1      20.930   0.483  52.856  1.00  0.00     0.091 C 
HETATM    8  C7  UNL     1      22.170   0.445  53.181  1.00  0.00     0.017 C 
HETATM    9  C8  UNL     1      23.343  -0.260  53.674  1.00  0.00     0.069 C 
HETATM   10  C9  UNL     1      24.648   0.061  53.115  1.00  0.00    -0.048 A 
HETATM   11  C10 UNL     1      25.559  -0.736  53.820  1.00  0.00     0.008 A 
HETATM   12  C11 UNL     1      26.930  -0.700  53.615  1.00  0.00     0.001 A 
HETATM   13  C12 UNL     1      27.448   0.167  52.666  1.00  0.00     0.001 A 
HETATM   14  C13 UNL     1      26.600   0.949  51.968  1.00  0.00     0.007 A 
HETATM   15  C14 UNL     1      25.252   0.886  52.199  1.00  0.00    -0.050 A 
HETATM   16  C15 UNL     1      24.353   1.798  51.409  1.00  0.00     0.069 C 
HETATM   17  C16 UNL     1      24.510   3.210  51.970  1.00  0.00     0.274 C 
HETATM   18  N2  UNL     1      23.429   4.074  51.757  1.00  0.00     0.088 N 
HETATM   19  C17 UNL     1      23.040   4.488  50.464  1.00  0.00     0.323 C 
HETATM   20  H20 UNL     1      23.636   4.967  52.322  1.00  0.00     0.316 HD
ENDROOT
BRANCH   6  21
HETATM   21  O1  UNL     1      18.651   1.002  52.248  1.00  0.00    -0.362 OA
HETATM   22  H7  UNL     1      18.279   0.669  51.335  1.00  0.00     0.217 HD
ENDBRANCH   6  21
BRANCH   7  23
HETATM   23  O2  UNL     1      20.553  -0.798  53.126  1.00  0.00    -0.358 OA
HETATM   24  H8  UNL     1      19.862  -1.264  52.568  1.00  0.00     0.217 HD
ENDBRANCH   7  23
TORSDOF 2
ENDMDL
MODEL 9
REMARK VINA RESULT:      -7.5      3.879      5.525
REMARK  2 active torsions:
REMARK  status: ('A' for Active; 'I' for Inactive)
REMARK    1  A    between atoms: C5_6  and  O1_7 
REMARK    2  A    between atoms: C6_8  and  O2_9 
ROOT
HETATM    1  C1  UNL     1      24.914   7.042  50.746  1.00  0.00     0.067 C 
HETATM    2  C2  UNL     1      23.933   5.959  50.752  1.00  0.00     0.030 C 
HETATM    3  N1  UNL     1      22.765   6.413  50.611  1.00  0.00    -0.296 NA
HETATM    4  C3  UNL     1      21.582   5.797  50.563  1.00  0.00     0.161 C 
HETATM    5  C4  UNL     1      20.364   5.167  50.517  1.00  0.00     0.077 C 
HETATM    6  C5  UNL     1      19.694   4.090  50.978  1.00  0.00     0.082 C 
HETATM    7  C6  UNL     1      19.616   2.882  51.796  1.00  0.00     0.091 C 
HETATM    8  C7  UNL     1      20.338   2.234  52.635  1.00  0.00     0.017 C 
HETATM    9  C8  UNL     1      20.559   1.113  53.535  1.00  0.00     0.069 C 
HETATM   10  C9  UNL     1      21.896   0.548  53.647  1.00  0.00    -0.048 A 
HETATM   11  C10 UNL     1      21.791  -0.463  54.610  1.00  0.00     0.008 A 
HETATM   12  C11 UNL     1      22.865  -1.227  55.043  1.00  0.00     0.001 A 
HETATM   13  C12 UNL     1      24.120  -0.992  54.503  1.00  0.00     0.001 A 
HETATM   14  C13 UNL     1      24.257  -0.026  53.572  1.00  0.00     0.007 A 
HETATM   15  C14 UNL     1      23.173   0.708  53.172  1.00  0.00    -0.050 A 
HETATM   16  C15 UNL     1      23.387   1.789  52.147  1.00  0.00     0.069 C 
HETATM   17  C16 UNL     1      24.082   2.959  52.840  1.00  0.00     0.274 C 
HETATM   18  N2  UNL     1      23.903   4.213  52.245  1.00  0.00     0.088 N 
HETATM   19  C17 UNL     1      24.397   4.512  50.956  1.00  0.00     0.323 C 
HETATM   20  H20 UNL     1      24.333   4.936  52.919  1.00  0.00     0.316 HD
ENDROOT
BRANCH   6  21
HETATM   21  O1  UNL     1      18.554   4.438  50.284  1.00  0.00    -0.362 OA
HETATM   22  H7  UNL     1      18.634   4.769  49.301  1.00  0.00     0.217 HD
ENDBRANCH   6  21
BRANCH   7  23
HETATM   23  O2  UNL     1      18.501   2.101  51.757  1.00  0.00    -0.358 OA
HETATM   24  H8  UNL     1      18.121   1.697  52.592  1.00  0.00     0.217 HD
ENDBRANCH   7  23
TORSDOF 2
ENDMDL
