MODEL 1
REMARK VINA RESULT:      -7.0      0.000      0.000
REMARK  5 active torsions:
REMARK  status: ('A' for Active; 'I' for Inactive)
REMARK    1  A    between atoms: O1_2  and  C2_3 
REMARK    2  A    between atoms: C6_9  and  N3_10 
REMARK    3  A    between atoms: N3_10  and  C7_11 
REMARK    4  A    between atoms: C7_11  and  C8_12 
REMARK    5  A    between atoms: C15_21  and  N4_22 
ROOT
HETATM    1  C8  UNL     1      26.957  -0.058  53.919  1.00  0.00    -0.070 C 
HETATM    2  C9  UNL     1      28.137  -0.332  53.801  1.00  0.00     0.006 C 
HETATM    3 CL1  UNL     1      29.829  -0.700  53.619  1.00  0.00    -0.023 Cl
ENDROOT
BRANCH   1   4
HETATM    4  C7  UNL     1      25.550   0.243  54.066  1.00  0.00     0.217 C 
BRANCH   4   5
HETATM    5  N3  UNL     1      24.960   0.660  52.825  1.00  0.00    -0.364 N 
HETATM    6  H6  UNL     1      24.763  -0.034  52.055  1.00  0.00     0.162 HD
BRANCH   5   7
HETATM    7  C6  UNL     1      24.568   1.967  52.434  1.00  0.00     0.125 C 
HETATM    8  N2  UNL     1      25.396   2.851  51.692  1.00  0.00    -0.225 NA
HETATM    9  C5  UNL     1      25.979   2.359  50.634  1.00  0.00     0.235 C 
HETATM   10  N1  UNL     1      26.810   3.232  49.882  1.00  0.00    -0.244 NA
HETATM   11  C4  UNL     1      26.464   4.367  49.407  1.00  0.00     0.067 C 
HETATM   12  C3  UNL     1      27.540   5.055  48.666  1.00  0.00     0.064 C 
HETATM   13  C13 UNL     1      25.134   4.959  49.559  1.00  0.00     0.182 C 
HETATM   14  C2  UNL     1      27.449   6.342  48.285  1.00  0.00     0.081 C 
HETATM   15  C15 UNL     1      26.212   7.029  48.651  1.00  0.00     0.284 C 
HETATM   16  C14 UNL     1      25.000   6.125  48.603  1.00  0.00     0.081 C 
HETATM   17  O2  UNL     1      24.800   5.331  50.881  1.00  0.00    -0.352 OA
HETATM   18  C12 UNL     1      23.826   4.661  51.598  1.00  0.00     0.136 C 
HETATM   19  C11 UNL     1      23.042   3.856  52.292  1.00  0.00     0.028 C 
HETATM   20  C10 UNL     1      23.397   2.517  52.711  1.00  0.00     0.052 C 
BRANCH  14  21
HETATM   21  O1  UNL     1      28.483   6.917  47.602  1.00  0.00    -0.358 OA
HETATM   22  C1  UNL     1      29.831   6.555  47.904  1.00  0.00     0.209 C 
ENDBRANCH  14  21
BRANCH  15  23
HETATM   23  N4  UNL     1      25.926   8.231  47.938  1.00  0.00     0.124 N 
HETATM   24  C16 UNL     1      25.225   8.081  46.706  1.00  0.00     0.302 C 
HETATM   25  C17 UNL     1      24.195   9.184  46.747  1.00  0.00     0.200 C 
HETATM   26  O3  UNL     1      24.211   9.746  48.013  1.00  0.00    -0.361 OA
HETATM   27  C18 UNL     1      25.325   9.281  48.690  1.00  0.00     0.441 C 
ENDBRANCH  15  23
ENDBRANCH   5   7
ENDBRANCH   4   5
ENDBRANCH   1   4
TORSDOF 5
ENDMDL
MODEL 2
REMARK VINA RESULT:      -6.9      2.686      4.159
REMARK  5 active torsions:
REMARK  status: ('A' for Active; 'I' for Inactive)
REMARK    1  A    between atoms: O1_2  and  C2_3 
REMARK    2  A    between atoms: C6_9  and  N3_10 
REMARK    3  A    between atoms: N3_10  and  C7_11 
REMARK    4  A    between atoms: C7_11  and  C8_12 
REMARK    5  A    between atoms: C15_21  and  N4_22 
ROOT
HETATM    1  C8  UNL     1      23.708   3.261  52.693  1.00  0.00    -0.070 C 
HETATM    2  C9  UNL     1      24.674   2.678  53.148  1.00  0.00     0.006 C 
HETATM    3 CL1  UNL     1      26.058   1.830  53.778  1.00  0.00    -0.023 Cl
ENDROOT
BRANCH   1   4
HETATM    4  C7  UNL     1      22.554   3.964  52.175  1.00  0.00     0.217 C 
BRANCH   4   5
HETATM    5  N3  UNL     1      22.834   4.592  50.914  1.00  0.00    -0.364 N 
HETATM    6  H6  UNL     1      22.416   4.225  50.017  1.00  0.00     0.162 HD
BRANCH   5   7
HETATM    7  C6  UNL     1      23.651   5.723  50.658  1.00  0.00     0.125 C 
HETATM    8  N2  UNL     1      25.021   5.640  50.290  1.00  0.00    -0.225 NA
HETATM    9  C5  UNL     1      25.323   4.802  49.338  1.00  0.00     0.235 C 
HETATM   10  N1  UNL     1      26.689   4.710  48.959  1.00  0.00    -0.244 NA
HETATM   11  C4  UNL     1      27.434   5.686  48.606  1.00  0.00     0.067 C 
HETATM   12  C3  UNL     1      28.815   5.288  48.267  1.00  0.00     0.064 C 
HETATM   13  C13 UNL     1      26.993   7.079  48.529  1.00  0.00     0.182 C 
HETATM   14  C2  UNL     1      29.804   6.184  48.090  1.00  0.00     0.081 C 
HETATM   15  C15 UNL     1      29.430   7.587  48.255  1.00  0.00     0.284 C 
HETATM   16  C14 UNL     1      28.028   7.884  47.771  1.00  0.00     0.081 C 
HETATM   17  O2  UNL     1      26.684   7.672  49.775  1.00  0.00    -0.352 OA
HETATM   18  C12 UNL     1      25.388   8.004  50.118  1.00  0.00     0.136 C 
HETATM   19  C11 UNL     1      24.116   8.103  50.463  1.00  0.00     0.028 C 
HETATM   20  C10 UNL     1      23.244   6.980  50.732  1.00  0.00     0.052 C 
BRANCH  14  21
HETATM   21  O1  UNL     1      31.060   5.747  47.778  1.00  0.00    -0.358 OA
HETATM   22  C1  UNL     1      32.037   5.579  48.806  1.00  0.00     0.209 C 
ENDBRANCH  14  21
BRANCH  15  23
HETATM   23  N4  UNL     1      30.328   8.546  47.699  1.00  0.00     0.124 N 
HETATM   24  C16 UNL     1      29.766   9.472  46.772  1.00  0.00     0.302 C 
HETATM   25  C17 UNL     1      30.378  10.792  47.176  1.00  0.00     0.200 C 
HETATM   26  O3  UNL     1      31.051  10.612  48.372  1.00  0.00    -0.361 OA
HETATM   27  C18 UNL     1      31.144   9.254  48.627  1.00  0.00     0.441 C 
ENDBRANCH  15  23
ENDBRANCH   5   7
ENDBRANCH   4   5
ENDBRANCH   1   4
TORSDOF 5
ENDMDL
MODEL 3
REMARK VINA RESULT:      -6.9      5.638      7.570
REMARK  5 active torsions:
REMARK  status: ('A' for Active; 'I' for Inactive)
REMARK    1  A    between atoms: O1_2  and  C2_3 
REMARK    2  A    between atoms: C6_9  and  N3_10 
REMARK    3  A    between atoms: N3_10  and  C7_11 
REMARK    4  A    between atoms: C7_11  and  C8_12 
REMARK    5  A    between atoms: C15_21  and  N4_22 
ROOT
HETATM    1  C8  UNL     1      27.316  -0.866  53.229  1.00  0.00    -0.070 C 
HETATM    2  C9  UNL     1      28.505  -0.620  53.320  1.00  0.00     0.006 C 
HETATM    3 CL1  UNL     1      30.200  -0.250  53.467  1.00  0.00    -0.023 Cl
ENDROOT
BRANCH   1   4
HETATM    4  C7  UNL     1      25.908  -1.172  53.101  1.00  0.00     0.217 C 
BRANCH   4   5
HETATM    5  N3  UNL     1      25.095   0.009  53.188  1.00  0.00    -0.364 N 
HETATM    6  H6  UNL     1      25.515   0.970  53.063  1.00  0.00     0.162 HD
BRANCH   5   7
HETATM    7  C6  UNL     1      23.701   0.100  53.435  1.00  0.00     0.125 C 
HETATM    8  N2  UNL     1      22.871   1.124  52.904  1.00  0.00    -0.225 NA
HETATM    9  C5  UNL     1      22.990   1.375  51.630  1.00  0.00     0.235 C 
HETATM   10  N1  UNL     1      22.165   2.395  51.087  1.00  0.00    -0.244 NA
HETATM   11  C4  UNL     1      20.892   2.456  51.180  1.00  0.00     0.067 C 
HETATM   12  C3  UNL     1      20.302   3.635  50.515  1.00  0.00     0.064 C 
HETATM   13  C13 UNL     1      20.064   1.467  51.872  1.00  0.00     0.182 C 
HETATM   14  C2  UNL     1      19.018   3.997  50.689  1.00  0.00     0.081 C 
HETATM   15  C15 UNL     1      18.232   3.150  51.583  1.00  0.00     0.284 C 
HETATM   16  C14 UNL     1      18.614   1.689  51.497  1.00  0.00     0.081 C 
HETATM   17  O2  UNL     1      20.238   1.426  53.275  1.00  0.00    -0.352 OA
HETATM   18  C12 UNL     1      20.832   0.347  53.900  1.00  0.00     0.136 C 
HETATM   19  C11 UNL     1      21.587  -0.611  54.406  1.00  0.00     0.028 C 
HETATM   20  C10 UNL     1      23.011  -0.746  54.181  1.00  0.00     0.052 C 
BRANCH  14  21
HETATM   21  O1  UNL     1      18.536   5.101  50.043  1.00  0.00    -0.358 OA
HETATM   22  C1  UNL     1      18.165   5.021  48.666  1.00  0.00     0.209 C 
ENDBRANCH  14  21
BRANCH  15  23
HETATM   23  N4  UNL     1      16.814   3.269  51.477  1.00  0.00     0.124 N 
HETATM   24  C16 UNL     1      16.074   2.052  51.539  1.00  0.00     0.302 C 
HETATM   25  C17 UNL     1      14.912   2.390  52.442  1.00  0.00     0.200 C 
HETATM   26  O3  UNL     1      15.139   3.639  52.994  1.00  0.00    -0.361 OA
HETATM   27  C18 UNL     1      16.198   4.232  52.327  1.00  0.00     0.441 C 
ENDBRANCH  15  23
ENDBRANCH   5   7
ENDBRANCH   4   5
ENDBRANCH   1   4
TORSDOF 5
ENDMDL
MODEL 4
REMARK VINA RESULT:      -6.8      5.052      7.485
REMARK  5 active torsions:
REMARK  status: ('A' for Active; 'I' for Inactive)
REMARK    1  A    between atoms: O1_2  and  C2_3 
REMARK    2  A    between atoms: C6_9  and  N3_10 
REMARK    3  A    between atoms: N3_10  and  C7_11 
REMARK    4  A    between atoms: C7_11  and  C8_12 
REMARK    5  A    between atoms: C15_21  and  N4_22 
ROOT
HETATM    1  C8  UNL     1      33.698   2.506  47.230  1.00  0.00    -0.070 C 
HETATM    2  C9  UNL     1      32.739   1.838  46.891  1.00  0.00     0.006 C 
HETATM    3 CL1  UNL     1      31.351   0.900  46.415  1.00  0.00    -0.023 Cl
ENDROOT
BRANCH   1   4
HETATM    4  C7  UNL     1      34.853   3.280  47.630  1.00  0.00     0.217 C 
BRANCH   4   5
HETATM    5  N3  UNL     1      34.508   4.303  48.578  1.00  0.00    -0.364 N 
HETATM    6  H6  UNL     1      34.627   4.147  49.614  1.00  0.00     0.162 HD
BRANCH   5   7
HETATM    7  C6  UNL     1      33.989   5.598  48.322  1.00  0.00     0.125 C 
HETATM    8  N2  UNL     1      32.629   5.855  48.004  1.00  0.00    -0.225 NA
HETATM    9  C5  UNL     1      31.732   5.292  48.765  1.00  0.00     0.235 C 
HETATM   10  N1  UNL     1      30.367   5.541  48.458  1.00  0.00    -0.244 NA
HETATM   11  C4  UNL     1      29.827   6.692  48.335  1.00  0.00     0.067 C 
HETATM   12  C3  UNL     1      28.387   6.642  48.012  1.00  0.00     0.064 C 
HETATM   13  C13 UNL     1      30.536   7.962  48.497  1.00  0.00     0.182 C 
HETATM   14  C2  UNL     1      27.693   7.729  47.625  1.00  0.00     0.081 C 
HETATM   15  C15 UNL     1      28.454   8.974  47.542  1.00  0.00     0.284 C 
HETATM   16  C14 UNL     1      29.524   9.083  48.605  1.00  0.00     0.081 C 
HETATM   17  O2  UNL     1      31.504   8.231  47.501  1.00  0.00    -0.352 OA
HETATM   18  C12 UNL     1      32.856   8.232  47.786  1.00  0.00     0.136 C 
HETATM   19  C11 UNL     1      34.126   8.015  48.078  1.00  0.00     0.028 C 
HETATM   20  C10 UNL     1      34.700   6.714  48.347  1.00  0.00     0.052 C 
BRANCH  14  21
HETATM   21  O1  UNL     1      26.362   7.612  47.340  1.00  0.00    -0.358 OA
HETATM   22  C1  UNL     1      25.499   6.897  48.226  1.00  0.00     0.209 C 
ENDBRANCH  14  21
BRANCH  15  23
HETATM   23  N4  UNL     1      27.688  10.178  47.525  1.00  0.00     0.124 N 
HETATM   24  C16 UNL     1      27.523  10.836  48.779  1.00  0.00     0.302 C 
HETATM   25  C17 UNL     1      27.742  12.292  48.446  1.00  0.00     0.200 C 
HETATM   26  O3  UNL     1      28.204  12.376  47.144  1.00  0.00    -0.361 OA
HETATM   27  C18 UNL     1      28.051  11.140  46.539  1.00  0.00     0.441 C 
ENDBRANCH  15  23
ENDBRANCH   5   7
ENDBRANCH   4   5
ENDBRANCH   1   4
TORSDOF 5
ENDMDL
MODEL 5
REMARK VINA RESULT:      -6.7      4.153      8.842
REMARK  5 active torsions:
REMARK  status: ('A' for Active; 'I' for Inactive)
REMARK    1  A    between atoms: O1_2  and  C2_3 
REMARK    2  A    between atoms: C6_9  and  N3_10 
REMARK    3  A    between atoms: N3_10  and  C7_11 
REMARK    4  A    between atoms: C7_11  and  C8_12 
REMARK    5  A    between atoms: C15_21  and  N4_22 
ROOT
HETATM    1  C8  UNL     1      22.076   7.904  49.244  1.00  0.00    -0.070 C 
HETATM    2  C9  UNL     1      21.017   8.398  49.584  1.00  0.00     0.006 C 
HETATM    3 CL1  UNL     1      19.510   9.104  50.096  1.00  0.00    -0.023 Cl
ENDROOT
BRANCH   1   4
HETATM    4  C7  UNL     1      23.325   7.312  48.816  1.00  0.00     0.217 C 
BRANCH   4   5
HETATM    5  N3  UNL     1      23.377   5.907  49.108  1.00  0.00    -0.364 N 
HETATM    6  H6  UNL     1      22.517   5.302  49.028  1.00  0.00     0.162 HD
BRANCH   5   7
HETATM    7  C6  UNL     1      24.495   5.136  49.521  1.00  0.00     0.125 C 
HETATM    8  N2  UNL     1      24.461   4.214  50.601  1.00  0.00    -0.225 NA
HETATM    9  C5  UNL     1      23.463   3.374  50.625  1.00  0.00     0.235 C 
HETATM   10  N1  UNL     1      23.418   2.446  51.700  1.00  0.00    -0.244 NA
HETATM   11  C4  UNL     1      24.356   1.646  52.036  1.00  0.00     0.067 C 
HETATM   12  C3  UNL     1      24.025   0.795  53.196  1.00  0.00     0.064 C 
HETATM   13  C13 UNL     1      25.649   1.553  51.356  1.00  0.00     0.182 C 
HETATM   14  C2  UNL     1      24.947   0.054  53.838  1.00  0.00     0.081 C 
HETATM   15  C15 UNL     1      26.310   0.142  53.317  1.00  0.00     0.284 C 
HETATM   16  C14 UNL     1      26.357   0.295  51.813  1.00  0.00     0.081 C 
HETATM   17  O2  UNL     1      26.474   2.693  51.494  1.00  0.00    -0.352 OA
HETATM   18  C12 UNL     1      26.750   3.521  50.423  1.00  0.00     0.136 C 
HETATM   19  C11 UNL     1      26.803   4.377  49.418  1.00  0.00     0.028 C 
HETATM   20  C10 UNL     1      25.691   5.182  48.960  1.00  0.00     0.052 C 
BRANCH  14  21
HETATM   21  O1  UNL     1      24.572  -0.712  54.905  1.00  0.00    -0.358 OA
HETATM   22  C1  UNL     1      23.235  -1.204  55.000  1.00  0.00     0.209 C 
ENDBRANCH  14  21
BRANCH  15  23
HETATM   23  N4  UNL     1      27.201  -0.901  53.709  1.00  0.00     0.124 N 
HETATM   24  C16 UNL     1      27.260  -2.035  52.847  1.00  0.00     0.302 C 
HETATM   25  C17 UNL     1      28.737  -2.334  52.755  1.00  0.00     0.200 C 
HETATM   26  O3  UNL     1      29.428  -1.295  53.355  1.00  0.00    -0.361 OA
HETATM   27  C18 UNL     1      28.527  -0.503  54.045  1.00  0.00     0.441 C 
ENDBRANCH  15  23
ENDBRANCH   5   7
ENDBRANCH   4   5
ENDBRANCH   1   4
TORSDOF 5
ENDMDL
MODEL 6
REMARK VINA RESULT:      -6.6      4.236      8.824
REMARK  5 active torsions:
REMARK  status: ('A' for Active; 'I' for Inactive)
REMARK    1  A    between atoms: O1_2  and  C2_3 
REMARK    2  A    between atoms: C6_9  and  N3_10 
REMARK    3  A    between atoms: N3_10  and  C7_11 
REMARK    4  A    between atoms: C7_11  and  C8_12 
REMARK    5  A    between atoms: C15_21  and  N4_22 
ROOT
HETATM    1  C8  UNL     1      22.223   6.989  46.264  1.00  0.00    -0.070 C 
HETATM    2  C9  UNL     1      22.332   8.097  45.772  1.00  0.00     0.006 C 
HETATM    3 CL1  UNL     1      22.468   9.690  45.083  1.00  0.00    -0.023 Cl
ENDROOT
BRANCH   1   4
HETATM    4  C7  UNL     1      22.110   5.662  46.830  1.00  0.00     0.217 C 
BRANCH   4   5
HETATM    5  N3  UNL     1      22.320   5.670  48.251  1.00  0.00    -0.364 N 
HETATM    6  H6  UNL     1      21.600   6.077  48.906  1.00  0.00     0.162 HD
BRANCH   5   7
HETATM    7  C6  UNL     1      23.435   5.176  48.977  1.00  0.00     0.125 C 
HETATM    8  N2  UNL     1      23.334   4.220  50.023  1.00  0.00    -0.225 NA
HETATM    9  C5  UNL     1      22.609   3.162  49.785  1.00  0.00     0.235 C 
HETATM   10  N1  UNL     1      22.501   2.199  50.823  1.00  0.00    -0.244 NA
HETATM   11  C4  UNL     1      23.478   1.636  51.424  1.00  0.00     0.067 C 
HETATM   12  C3  UNL     1      23.062   0.672  52.463  1.00  0.00     0.064 C 
HETATM   13  C13 UNL     1      24.889   1.895  51.136  1.00  0.00     0.182 C 
HETATM   14  C2  UNL     1      23.924   0.148  53.353  1.00  0.00     0.081 C 
HETATM   15  C15 UNL     1      25.312   0.592  53.233  1.00  0.00     0.284 C 
HETATM   16  C14 UNL     1      25.733   0.827  51.800  1.00  0.00     0.081 C 
HETATM   17  O2  UNL     1      25.334   3.193  51.475  1.00  0.00    -0.352 OA
HETATM   18  C12 UNL     1      25.681   4.117  50.508  1.00  0.00     0.136 C 
HETATM   19  C11 UNL     1      25.796   5.008  49.540  1.00  0.00     0.028 C 
HETATM   20  C10 UNL     1      24.690   5.540  48.772  1.00  0.00     0.052 C 
BRANCH  14  21
HETATM   21  O1  UNL     1      23.471  -0.738  54.289  1.00  0.00    -0.358 OA
HETATM   22  C1  UNL     1      22.087  -0.770  54.636  1.00  0.00     0.209 C 
ENDBRANCH  14  21
BRANCH  15  23
HETATM   23  N4  UNL     1      26.290  -0.221  53.880  1.00  0.00     0.124 N 
HETATM   24  C16 UNL     1      27.319  -0.750  53.047  1.00  0.00     0.302 C 
HETATM   25  C17 UNL     1      28.573  -0.549  53.863  1.00  0.00     0.200 C 
HETATM   26  O3  UNL     1      28.256   0.230  54.963  1.00  0.00    -0.361 OA
HETATM   27  C18 UNL     1      26.878   0.322  55.058  1.00  0.00     0.441 C 
ENDBRANCH  15  23
ENDBRANCH   5   7
ENDBRANCH   4   5
ENDBRANCH   1   4
TORSDOF 5
ENDMDL
MODEL 7
REMARK VINA RESULT:      -6.6      4.832      9.168
REMARK  5 active torsions:
REMARK  status: ('A' for Active; 'I' for Inactive)
REMARK    1  A    between atoms: O1_2  and  C2_3 
REMARK    2  A    between atoms: C6_9  and  N3_10 
REMARK    3  A    between atoms: N3_10  and  C7_11 
REMARK    4  A    between atoms: C7_11  and  C8_12 
REMARK    5  A    between atoms: C15_21  and  N4_22 
ROOT
HETATM    1  C8  UNL     1      20.440   9.672  49.274  1.00  0.00    -0.070 C 
HETATM    2  C9  UNL     1      20.429  10.888  49.306  1.00  0.00     0.006 C 
HETATM    3 CL1  UNL     1      20.419  12.629  49.327  1.00  0.00    -0.023 Cl
ENDROOT
BRANCH   1   4
HETATM    4  C7  UNL     1      20.453   8.225  49.261  1.00  0.00     0.217 C 
BRANCH   4   5
HETATM    5  N3  UNL     1      20.890   7.684  50.518  1.00  0.00    -0.364 N 
HETATM    6  H6  UNL     1      20.346   7.860  51.405  1.00  0.00     0.162 HD
BRANCH   5   7
HETATM    7  C6  UNL     1      22.032   6.884  50.781  1.00  0.00     0.125 C 
HETATM    8  N2  UNL     1      21.986   5.650  51.485  1.00  0.00    -0.225 NA
HETATM    9  C5  UNL     1      21.072   4.797  51.115  1.00  0.00     0.235 C 
HETATM   10  N1  UNL     1      21.016   3.560  51.810  1.00  0.00    -0.244 NA
HETATM   11  C4  UNL     1      21.989   2.748  51.970  1.00  0.00     0.067 C 
HETATM   12  C3  UNL     1      21.635   1.538  52.738  1.00  0.00     0.064 C 
HETATM   13  C13 UNL     1      23.341   2.963  51.452  1.00  0.00     0.182 C 
HETATM   14  C2  UNL     1      22.560   0.677  53.203  1.00  0.00     0.081 C 
HETATM   15  C15 UNL     1      23.950   1.013  52.901  1.00  0.00     0.284 C 
HETATM   16  C14 UNL     1      24.119   1.667  51.548  1.00  0.00     0.081 C 
HETATM   17  O2  UNL     1      24.042   4.034  52.053  1.00  0.00    -0.352 OA
HETATM   18  C12 UNL     1      24.336   5.190  51.355  1.00  0.00     0.136 C 
HETATM   19  C11 UNL     1      24.401   6.335  50.701  1.00  0.00     0.028 C 
HETATM   20  C10 UNL     1      23.265   7.184  50.409  1.00  0.00     0.052 C 
BRANCH  14  21
HETATM   21  O1  UNL     1      22.162  -0.424  53.907  1.00  0.00    -0.358 OA
HETATM   22  C1  UNL     1      20.783  -0.795  53.940  1.00  0.00     0.209 C 
ENDBRANCH  14  21
BRANCH  15  23
HETATM   23  N4  UNL     1      24.894  -0.049  53.028  1.00  0.00     0.124 N 
HETATM   24  C16 UNL     1      26.092   0.079  52.265  1.00  0.00     0.302 C 
HETATM   25  C17 UNL     1      27.173  -0.342  53.231  1.00  0.00     0.200 C 
HETATM   26  O3  UNL     1      26.606  -0.479  54.486  1.00  0.00    -0.361 OA
HETATM   27  C18 UNL     1      25.229  -0.438  54.357  1.00  0.00     0.441 C 
ENDBRANCH  15  23
ENDBRANCH   5   7
ENDBRANCH   4   5
ENDBRANCH   1   4
TORSDOF 5
ENDMDL
MODEL 8
REMARK VINA RESULT:      -6.4      3.396      4.735
REMARK  5 active torsions:
REMARK  status: ('A' for Active; 'I' for Inactive)
REMARK    1  A    between atoms: O1_2  and  C2_3 
REMARK    2  A    between atoms: C6_9  and  N3_10 
REMARK    3  A    between atoms: N3_10  and  C7_11 
REMARK    4  A    between atoms: C7_11  and  C8_12 
REMARK    5  A    between atoms: C15_21  and  N4_22 
ROOT
HETATM    1  C8  UNL     1      20.680  -0.775  53.960  1.00  0.00    -0.070 C 
HETATM    2  C9  UNL     1      19.557  -0.804  53.493  1.00  0.00     0.006 C 
HETATM    3 CL1  UNL     1      17.941  -0.855  52.846  1.00  0.00    -0.023 Cl
ENDROOT
BRANCH   1   4
HETATM    4  C7  UNL     1      22.025  -0.737  54.493  1.00  0.00     0.217 C 
BRANCH   4   5
HETATM    5  N3  UNL     1      23.013  -0.843  53.456  1.00  0.00    -0.364 N 
HETATM    6  H6  UNL     1      23.119  -1.728  52.892  1.00  0.00     0.162 HD
BRANCH   5   7
HETATM    7  C6  UNL     1      23.948   0.136  53.031  1.00  0.00     0.125 C 
HETATM    8  N2  UNL     1      23.757   0.970  51.897  1.00  0.00    -0.225 NA
HETATM    9  C5  UNL     1      22.600   1.563  51.792  1.00  0.00     0.235 C 
HETATM   10  N1  UNL     1      22.397   2.400  50.663  1.00  0.00    -0.244 NA
HETATM   11  C4  UNL     1      23.147   3.371  50.308  1.00  0.00     0.067 C 
HETATM   12  C3  UNL     1      22.686   4.066  49.089  1.00  0.00     0.064 C 
HETATM   13  C13 UNL     1      24.357   3.786  51.019  1.00  0.00     0.182 C 
HETATM   14  C2  UNL     1      23.448   4.959  48.432  1.00  0.00     0.081 C 
HETATM   15  C15 UNL     1      24.772   5.205  48.998  1.00  0.00     0.284 C 
HETATM   16  C14 UNL     1      24.788   5.145  50.509  1.00  0.00     0.081 C 
HETATM   17  O2  UNL     1      25.419   2.854  50.975  1.00  0.00    -0.352 OA
HETATM   18  C12 UNL     1      25.827   2.165  52.101  1.00  0.00     0.136 C 
HETATM   19  C11 UNL     1      26.025   1.397  53.157  1.00  0.00     0.028 C 
HETATM   20  C10 UNL     1      25.101   0.388  53.629  1.00  0.00     0.052 C 
BRANCH  14  21
HETATM   21  O1  UNL     1      22.958   5.565  47.309  1.00  0.00    -0.358 OA
HETATM   22  C1  UNL     1      21.767   5.076  46.692  1.00  0.00     0.209 C 
ENDBRANCH  14  21
BRANCH  15  23
HETATM   23  N4  UNL     1      25.426   6.400  48.571  1.00  0.00     0.124 N 
HETATM   24  C16 UNL     1      25.021   7.604  49.217  1.00  0.00     0.302 C 
HETATM   25  C17 UNL     1      26.324   8.319  49.483  1.00  0.00     0.200 C 
HETATM   26  O3  UNL     1      27.363   7.452  49.191  1.00  0.00    -0.361 OA
HETATM   27  C18 UNL     1      26.849   6.355  48.521  1.00  0.00     0.441 C 
ENDBRANCH  15  23
ENDBRANCH   5   7
ENDBRANCH   4   5
ENDBRANCH   1   4
TORSDOF 5
ENDMDL
MODEL 9
REMARK VINA RESULT:      -6.3      4.496      7.535
REMARK  5 active torsions:
REMARK  status: ('A' for Active; 'I' for Inactive)
REMARK    1  A    between atoms: O1_2  and  C2_3 
REMARK    2  A    between atoms: C6_9  and  N3_10 
REMARK    3  A    between atoms: N3_10  and  C7_11 
REMARK    4  A    between atoms: C7_11  and  C8_12 
REMARK    5  A    between atoms: C15_21  and  N4_22 
ROOT
HETATM    1  C8  UNL     1      23.699   6.957  50.848  1.00  0.00    -0.070 C 
HETATM    2  C9  UNL     1      23.005   6.047  51.261  1.00  0.00     0.006 C 
HETATM    3 CL1  UNL     1      21.995   4.750  51.835  1.00  0.00    -0.023 Cl
ENDROOT
BRANCH   1   4
HETATM    4  C7  UNL     1      24.538   8.038  50.377  1.00  0.00     0.217 C 
BRANCH   4   5
HETATM    5  N3  UNL     1      25.160   7.722  49.121  1.00  0.00    -0.364 N 
HETATM    6  H6  UNL     1      24.826   8.162  48.222  1.00  0.00     0.162 HD
BRANCH   5   7
HETATM    7  C6  UNL     1      26.242   6.839  48.874  1.00  0.00     0.125 C 
HETATM    8  N2  UNL     1      27.478   7.245  48.304  1.00  0.00    -0.225 NA
HETATM    9  C5  UNL     1      28.038   8.308  48.812  1.00  0.00     0.235 C 
HETATM   10  N1  UNL     1      29.275   8.725  48.252  1.00  0.00    -0.244 NA
HETATM   11  C4  UNL     1      30.317   7.999  48.119  1.00  0.00     0.067 C 
HETATM   12  C3  UNL     1      31.458   8.703  47.501  1.00  0.00     0.064 C 
HETATM   13  C13 UNL     1      30.409   6.598  48.531  1.00  0.00     0.182 C 
HETATM   14  C2  UNL     1      32.561   8.061  47.073  1.00  0.00     0.081 C 
HETATM   15  C15 UNL     1      32.564   6.611  47.255  1.00  0.00     0.284 C 
HETATM   16  C14 UNL     1      31.863   6.175  48.522  1.00  0.00     0.081 C 
HETATM   17  O2  UNL     1      29.605   5.706  47.784  1.00  0.00    -0.352 OA
HETATM   18  C12 UNL     1      28.507   5.079  48.341  1.00  0.00     0.136 C 
HETATM   19  C11 UNL     1      27.364   4.680  48.870  1.00  0.00     0.028 C 
HETATM   20  C10 UNL     1      26.234   5.543  49.140  1.00  0.00     0.052 C 
BRANCH  14  21
HETATM   21  O1  UNL     1      33.580   8.775  46.509  1.00  0.00    -0.358 OA
HETATM   22  C1  UNL     1      33.905  10.074  47.005  1.00  0.00     0.209 C 
ENDBRANCH  14  21
BRANCH  15  23
HETATM   23  N4  UNL     1      33.838   5.972  47.183  1.00  0.00     0.124 N 
HETATM   24  C16 UNL     1      34.287   5.327  48.372  1.00  0.00     0.302 C 
HETATM   25  C17 UNL     1      34.852   4.018  47.874  1.00  0.00     0.200 C 
HETATM   26  O3  UNL     1      34.527   3.887  46.535  1.00  0.00    -0.361 OA
HETATM   27  C18 UNL     1      34.041   5.099  46.076  1.00  0.00     0.441 C 
ENDBRANCH  15  23
ENDBRANCH   5   7
ENDBRANCH   4   5
ENDBRANCH   1   4
TORSDOF 5
ENDMDL
