MODEL 1
REMARK VINA RESULT:      -9.9      0.000      0.000
REMARK  6 active torsions:
REMARK  status: ('A' for Active; 'I' for Inactive)
REMARK    1  A    between atoms: C5_5  and  N1_6 
REMARK    2  A    between atoms: N1_6  and  C6_7 
REMARK    3  A    between atoms: N4_17  and  C14_18 
REMARK    4  A    between atoms: C14_18  and  C15_19 
REMARK    5  A    between atoms: C15_19  and  C16_20 
REMARK    6  A    between atoms: C16_20  and  C17_21 
ROOT
HETATM    1  C6  UNL     1      23.326   2.800  50.135  1.00  0.00     0.142 A 
HETATM    2  N2  UNL     1      22.569   3.333  49.174  1.00  0.00    -0.224 NA
HETATM    3  C7  UNL     1      21.281   3.083  48.939  1.00  0.00     0.236 A 
HETATM    4  N3  UNL     1      20.637   2.201  49.737  1.00  0.00    -0.241 NA
HETATM    5  C8  UNL     1      21.319   1.602  50.749  1.00  0.00     0.075 A 
HETATM    6  C9  UNL     1      20.596   0.723  51.511  1.00  0.00     0.071 A 
HETATM    7  C10 UNL     1      21.212   0.070  52.558  1.00  0.00     0.098 A 
HETATM    8  C11 UNL     1      22.538   0.338  52.790  1.00  0.00     0.071 A 
HETATM    9  C12 UNL     1      23.206   1.228  51.989  1.00  0.00     0.050 A 
HETATM   10  C13 UNL     1      22.649   1.912  50.929  1.00  0.00     0.041 A 
HETATM   11  N4  UNL     1      23.194  -0.339  53.881  1.00  0.00    -0.314 N 
HETATM   12  C21 UNL     1      22.417  -1.263  54.673  1.00  0.00     0.248 C 
HETATM   13  O2  UNL     1      22.902  -1.633  55.775  1.00  0.00    -0.271 OA
HETATM   14  C22 UNL     1      21.099  -1.746  54.193  1.00  0.00     0.279 C 
HETATM   15  O3  UNL     1      20.491  -0.810  53.324  1.00  0.00    -0.340 OA
ENDROOT
BRANCH   1  16
HETATM   16  N1  UNL     1      24.674   3.057  50.386  1.00  0.00    -0.340 N 
HETATM   17  H6  UNL     1      25.207   2.539  51.083  1.00  0.00     0.167 HD
BRANCH  16  18
HETATM   18  C5  UNL     1      25.512   4.018  49.771  1.00  0.00     0.033 A 
HETATM   19  C4  UNL     1      26.772   3.719  49.324  1.00  0.00     0.030 A 
HETATM   20  C3  UNL     1      27.615   4.633  48.723  1.00  0.00     0.009 A 
HETATM   21  C2  UNL     1      27.226   5.933  48.535  1.00  0.00    -0.062 A 
HETATM   22  C1  UNL     1      28.058   6.969  47.906  1.00  0.00     0.048 C 
HETATM   23  C24 UNL     1      25.971   6.283  48.965  1.00  0.00     0.009 A 
HETATM   24  C23 UNL     1      25.174   5.334  49.557  1.00  0.00     0.030 A 
ENDBRANCH  16  18
ENDBRANCH   1  16
BRANCH  11  25
HETATM   25  C14 UNL     1      24.573  -0.103  54.170  1.00  0.00     0.132 C 
BRANCH  25  26
HETATM   26  C15 UNL     1      25.438  -0.828  53.171  1.00  0.00     0.021 C 
BRANCH  26  27
HETATM   27  C16 UNL     1      26.793  -0.209  52.989  1.00  0.00     0.008 C 
BRANCH  27  28
HETATM   28  C17 UNL     1      27.141   0.745  54.115  1.00  0.00     0.011 C 
HETATM   29  C18 UNL     1      27.415   2.104  53.517  1.00  0.00     0.033 C 
HETATM   30  C19 UNL     1      28.901   2.266  53.649  1.00  0.00     0.168 C 
HETATM   31  O1  UNL     1      29.428   1.059  54.058  1.00  0.00    -0.391 OA
HETATM   32  C20 UNL     1      28.458   0.402  54.784  1.00  0.00     0.172 C 
ENDBRANCH  27  28
ENDBRANCH  26  27
ENDBRANCH  25  26
ENDBRANCH  11  25
TORSDOF 6
ENDMDL
MODEL 2
REMARK VINA RESULT:      -9.7      2.039      4.940
REMARK  6 active torsions:
REMARK  status: ('A' for Active; 'I' for Inactive)
REMARK    1  A    between atoms: C5_5  and  N1_6 
REMARK    2  A    between atoms: N1_6  and  C6_7 
REMARK    3  A    between atoms: N4_17  and  C14_18 
REMARK    4  A    between atoms: C14_18  and  C15_19 
REMARK    5  A    between atoms: C15_19  and  C16_20 
REMARK    6  A    between atoms: C16_20  and  C17_21 
ROOT
HETATM    1  C6  UNL     1      26.661   2.205  51.951  1.00  0.00     0.142 A 
HETATM    2  N2  UNL     1      27.915   2.499  52.297  1.00  0.00    -0.224 NA
HETATM    3  C7  UNL     1      28.582   2.039  53.356  1.00  0.00     0.236 A 
HETATM    4  N3  UNL     1      27.955   1.181  54.192  1.00  0.00    -0.241 NA
HETATM    5  C8  UNL     1      26.673   0.816  53.928  1.00  0.00     0.075 A 
HETATM    6  C9  UNL     1      26.110  -0.057  54.821  1.00  0.00     0.071 A 
HETATM    7  C10 UNL     1      24.811  -0.478  54.629  1.00  0.00     0.098 A 
HETATM    8  C11 UNL     1      24.136   0.003  53.534  1.00  0.00     0.071 A 
HETATM    9  C12 UNL     1      24.757   0.875  52.677  1.00  0.00     0.050 A 
HETATM   10  C13 UNL     1      26.050   1.333  52.814  1.00  0.00     0.041 A 
HETATM   11  N4  UNL     1      22.777  -0.429  53.322  1.00  0.00    -0.314 N 
HETATM   12  C21 UNL     1      22.199  -1.347  54.274  1.00  0.00     0.248 C 
HETATM   13  O2  UNL     1      21.133  -1.932  53.944  1.00  0.00    -0.271 OA
HETATM   14  C22 UNL     1      22.850  -1.583  55.587  1.00  0.00     0.279 C 
HETATM   15  O3  UNL     1      24.244  -1.351  55.521  1.00  0.00    -0.340 OA
ENDROOT
BRANCH   1  16
HETATM   16  N1  UNL     1      25.958   2.683  50.845  1.00  0.00    -0.340 N 
HETATM   17  H6  UNL     1      25.146   2.199  50.464  1.00  0.00     0.167 HD
BRANCH  16  18
HETATM   18  C5  UNL     1      26.210   3.851  50.084  1.00  0.00     0.033 A 
HETATM   19  C4  UNL     1      25.381   4.940  50.110  1.00  0.00     0.030 A 
HETATM   20  C3  UNL     1      25.596   6.092  49.378  1.00  0.00     0.009 A 
HETATM   21  C2  UNL     1      26.685   6.211  48.557  1.00  0.00    -0.062 A 
HETATM   22  C1  UNL     1      26.991   7.397  47.744  1.00  0.00     0.048 C 
HETATM   23  C24 UNL     1      27.548   5.145  48.495  1.00  0.00     0.009 A 
HETATM   24  C23 UNL     1      27.286   4.025  49.245  1.00  0.00     0.030 A 
ENDBRANCH  16  18
ENDBRANCH   1  16
BRANCH  11  25
HETATM   25  C14 UNL     1      22.023   0.038  52.202  1.00  0.00     0.132 C 
BRANCH  25  26
HETATM   26  C15 UNL     1      21.181   1.220  52.607  1.00  0.00     0.021 C 
BRANCH  26  27
HETATM   27  C16 UNL     1      20.861   2.147  51.471  1.00  0.00     0.008 C 
BRANCH  27  28
HETATM   28  C17 UNL     1      22.065   2.963  51.043  1.00  0.00     0.011 C 
HETATM   29  C18 UNL     1      22.515   3.796  52.220  1.00  0.00     0.033 C 
HETATM   30  C19 UNL     1      22.117   5.195  51.848  1.00  0.00     0.168 C 
HETATM   31  O1  UNL     1      21.336   5.130  50.713  1.00  0.00    -0.391 OA
HETATM   32  C20 UNL     1      21.719   4.012  50.004  1.00  0.00     0.172 C 
ENDBRANCH  27  28
ENDBRANCH  26  27
ENDBRANCH  25  26
ENDBRANCH  11  25
TORSDOF 6
ENDMDL
MODEL 3
REMARK VINA RESULT:      -9.5      2.273      6.002
REMARK  6 active torsions:
REMARK  status: ('A' for Active; 'I' for Inactive)
REMARK    1  A    between atoms: C5_5  and  N1_6 
REMARK    2  A    between atoms: N1_6  and  C6_7 
REMARK    3  A    between atoms: N4_17  and  C14_18 
REMARK    4  A    between atoms: C14_18  and  C15_19 
REMARK    5  A    between atoms: C15_19  and  C16_20 
REMARK    6  A    between atoms: C16_20  and  C17_21 
ROOT
HETATM    1  C6  UNL     1      25.673   2.732  50.989  1.00  0.00     0.142 A 
HETATM    2  N2  UNL     1      26.734   3.187  50.322  1.00  0.00    -0.224 NA
HETATM    3  C7  UNL     1      26.745   4.141  49.390  1.00  0.00     0.236 A 
HETATM    4  N3  UNL     1      25.576   4.735  49.059  1.00  0.00    -0.241 NA
HETATM    5  C8  UNL     1      24.434   4.344  49.682  1.00  0.00     0.075 A 
HETATM    6  C9  UNL     1      23.293   4.994  49.290  1.00  0.00     0.071 A 
HETATM    7  C10 UNL     1      22.089   4.657  49.872  1.00  0.00     0.098 A 
HETATM    8  C11 UNL     1      22.092   3.673  50.829  1.00  0.00     0.071 A 
HETATM    9  C12 UNL     1      23.268   3.061  51.176  1.00  0.00     0.050 A 
HETATM   10  C13 UNL     1      24.502   3.351  50.634  1.00  0.00     0.041 A 
HETATM   11  N4  UNL     1      20.839   3.311  51.445  1.00  0.00    -0.314 N 
HETATM   12  C21 UNL     1      19.647   4.006  51.019  1.00  0.00     0.248 C 
HETATM   13  O2  UNL     1      18.620   3.891  51.739  1.00  0.00    -0.271 OA
HETATM   14  C22 UNL     1      19.650   4.820  49.778  1.00  0.00     0.279 C 
HETATM   15  O3  UNL     1      20.945   5.306  49.482  1.00  0.00    -0.340 OA
ENDROOT
BRANCH   1  16
HETATM   16  N1  UNL     1      25.654   1.734  51.964  1.00  0.00    -0.340 N 
HETATM   17  H6  UNL     1      24.800   1.462  52.450  1.00  0.00     0.167 HD
BRANCH  16  18
HETATM   18  C5  UNL     1      26.735   0.954  52.441  1.00  0.00     0.033 A 
HETATM   19  C4  UNL     1      26.760  -0.411  52.340  1.00  0.00     0.030 A 
HETATM   20  C3  UNL     1      27.797  -1.200  52.798  1.00  0.00     0.009 A 
HETATM   21  C2  UNL     1      28.895  -0.643  53.398  1.00  0.00    -0.062 A 
HETATM   22  C1  UNL     1      30.041  -1.405  53.914  1.00  0.00     0.048 C 
HETATM   23  C24 UNL     1      28.918   0.724  53.523  1.00  0.00     0.009 A 
HETATM   24  C23 UNL     1      27.860   1.461  53.050  1.00  0.00     0.030 A 
ENDBRANCH  16  18
ENDBRANCH   1  16
BRANCH  11  25
HETATM   25  C14 UNL     1      20.778   2.295  52.446  1.00  0.00     0.132 C 
BRANCH  25  26
HETATM   26  C15 UNL     1      20.638   0.942  51.796  1.00  0.00     0.021 C 
BRANCH  26  27
HETATM   27  C16 UNL     1      21.552  -0.099  52.374  1.00  0.00     0.008 C 
BRANCH  27  28
HETATM   28  C17 UNL     1      22.099   0.309  53.727  1.00  0.00     0.011 C 
HETATM   29  C18 UNL     1      23.405  -0.416  53.949  1.00  0.00     0.033 C 
HETATM   30  C19 UNL     1      23.079  -1.441  54.996  1.00  0.00     0.168 C 
HETATM   31  O1  UNL     1      21.711  -1.448  55.176  1.00  0.00    -0.391 OA
HETATM   32  C20 UNL     1      21.242  -0.187  54.876  1.00  0.00     0.172 C 
ENDBRANCH  27  28
ENDBRANCH  26  27
ENDBRANCH  25  26
ENDBRANCH  11  25
TORSDOF 6
ENDMDL
MODEL 4
REMARK VINA RESULT:      -9.5      2.022      4.989
REMARK  6 active torsions:
REMARK  status: ('A' for Active; 'I' for Inactive)
REMARK    1  A    between atoms: C5_5  and  N1_6 
REMARK    2  A    between atoms: N1_6  and  C6_7 
REMARK    3  A    between atoms: N4_17  and  C14_18 
REMARK    4  A    between atoms: C14_18  and  C15_19 
REMARK    5  A    between atoms: C15_19  and  C16_20 
REMARK    6  A    between atoms: C16_20  and  C17_21 
ROOT
HETATM    1  C6  UNL     1      26.017   2.290  51.664  1.00  0.00     0.142 A 
HETATM    2  N2  UNL     1      27.311   2.224  51.978  1.00  0.00    -0.224 NA
HETATM    3  C7  UNL     1      27.874   1.433  52.892  1.00  0.00     0.236 A 
HETATM    4  N3  UNL     1      27.082   0.594  53.597  1.00  0.00    -0.241 NA
HETATM    5  C8  UNL     1      25.745   0.583  53.353  1.00  0.00     0.075 A 
HETATM    6  C9  UNL     1      25.012  -0.295  54.108  1.00  0.00     0.071 A 
HETATM    7  C10 UNL     1      23.647  -0.370  53.925  1.00  0.00     0.098 A 
HETATM    8  C11 UNL     1      23.081   0.450  52.980  1.00  0.00     0.071 A 
HETATM    9  C12 UNL     1      23.870   1.307  52.258  1.00  0.00     0.050 A 
HETATM   10  C13 UNL     1      25.237   1.430  52.392  1.00  0.00     0.041 A 
HETATM   11  N4  UNL     1      21.655   0.382  52.780  1.00  0.00    -0.314 N 
HETATM   12  C21 UNL     1      20.899  -0.547  53.585  1.00  0.00     0.248 C 
HETATM   13  O2  UNL     1      19.720  -0.804  53.223  1.00  0.00    -0.271 OA
HETATM   14  C22 UNL     1      21.503  -1.168  54.790  1.00  0.00     0.279 C 
HETATM   15  O3  UNL     1      22.911  -1.247  54.679  1.00  0.00    -0.340 OA
ENDROOT
BRANCH   1  16
HETATM   16  N1  UNL     1      25.421   3.115  50.710  1.00  0.00    -0.340 N 
HETATM   17  H6  UNL     1      24.441   3.024  50.444  1.00  0.00     0.167 HD
BRANCH  16  18
HETATM   18  C5  UNL     1      26.013   4.169  49.971  1.00  0.00     0.033 A 
HETATM   19  C4  UNL     1      25.495   5.436  49.951  1.00  0.00     0.030 A 
HETATM   20  C3  UNL     1      26.045   6.484  49.238  1.00  0.00     0.009 A 
HETATM   21  C2  UNL     1      27.176   6.307  48.487  1.00  0.00    -0.062 A 
HETATM   22  C1  UNL     1      27.827   7.364  47.699  1.00  0.00     0.048 C 
HETATM   23  C24 UNL     1      27.735   5.054  48.474  1.00  0.00     0.009 A 
HETATM   24  C23 UNL     1      27.146   4.048  49.201  1.00  0.00     0.030 A 
ENDBRANCH  16  18
ENDBRANCH   1  16
BRANCH  11  25
HETATM   25  C14 UNL     1      21.008   1.211  51.812  1.00  0.00     0.132 C 
BRANCH  25  26
HETATM   26  C15 UNL     1      21.056   0.551  50.458  1.00  0.00     0.021 C 
BRANCH  26  27
HETATM   27  C16 UNL     1      20.964   1.519  49.315  1.00  0.00     0.008 C 
BRANCH  27  28
HETATM   28  C17 UNL     1      22.315   2.101  48.949  1.00  0.00     0.011 C 
HETATM   29  C18 UNL     1      22.283   3.585  49.227  1.00  0.00     0.033 C 
HETATM   30  C19 UNL     1      22.252   4.210  47.863  1.00  0.00     0.168 C 
HETATM   31  O1  UNL     1      22.057   3.206  46.937  1.00  0.00    -0.391 OA
HETATM   32  C20 UNL     1      22.589   2.046  47.458  1.00  0.00     0.172 C 
ENDBRANCH  27  28
ENDBRANCH  26  27
ENDBRANCH  25  26
ENDBRANCH  11  25
TORSDOF 6
ENDMDL
MODEL 5
REMARK VINA RESULT:      -9.5      2.611      6.170
REMARK  6 active torsions:
REMARK  status: ('A' for Active; 'I' for Inactive)
REMARK    1  A    between atoms: C5_5  and  N1_6 
REMARK    2  A    between atoms: N1_6  and  C6_7 
REMARK    3  A    between atoms: N4_17  and  C14_18 
REMARK    4  A    between atoms: C14_18  and  C15_19 
REMARK    5  A    between atoms: C15_19  and  C16_20 
REMARK    6  A    between atoms: C16_20  and  C17_21 
ROOT
HETATM    1  C6  UNL     1      21.979  -0.462  52.790  1.00  0.00     0.142 A 
HETATM    2  N2  UNL     1      21.069  -1.083  53.541  1.00  0.00    -0.224 NA
HETATM    3  C7  UNL     1      21.260  -1.628  54.742  1.00  0.00     0.236 A 
HETATM    4  N3  UNL     1      22.495  -1.566  55.292  1.00  0.00    -0.241 NA
HETATM    5  C8  UNL     1      23.495  -0.952  54.607  1.00  0.00     0.075 A 
HETATM    6  C9  UNL     1      24.714  -0.930  55.232  1.00  0.00     0.071 A 
HETATM    7  C10 UNL     1      25.785  -0.327  54.605  1.00  0.00     0.098 A 
HETATM    8  C11 UNL     1      25.573   0.231  53.369  1.00  0.00     0.071 A 
HETATM    9  C12 UNL     1      24.329   0.175  52.798  1.00  0.00     0.050 A 
HETATM   10  C13 UNL     1      23.220  -0.411  53.370  1.00  0.00     0.041 A 
HETATM   11  N4  UNL     1      26.685   0.863  52.703  1.00  0.00    -0.314 N 
HETATM   12  C21 UNL     1      27.962   0.876  53.376  1.00  0.00     0.248 C 
HETATM   13  O2  UNL     1      28.845   1.656  52.931  1.00  0.00    -0.271 OA
HETATM   14  C22 UNL     1      28.209  -0.003  54.546  1.00  0.00     0.279 C 
HETATM   15  O3  UNL     1      27.006  -0.303  55.228  1.00  0.00    -0.340 OA
ENDROOT
BRANCH   1  16
HETATM   16  N1  UNL     1      21.786   0.111  51.532  1.00  0.00    -0.340 N 
HETATM   17  H6  UNL     1      22.264  -0.230  50.698  1.00  0.00     0.167 HD
BRANCH  16  18
HETATM   18  C5  UNL     1      20.950   1.199  51.184  1.00  0.00     0.033 A 
HETATM   19  C4  UNL     1      20.578   1.459  49.892  1.00  0.00     0.030 A 
HETATM   20  C3  UNL     1      19.768   2.513  49.518  1.00  0.00     0.009 A 
HETATM   21  C2  UNL     1      19.274   3.387  50.451  1.00  0.00    -0.062 A 
HETATM   22  C1  UNL     1      18.407   4.533  50.143  1.00  0.00     0.048 C 
HETATM   23  C24 UNL     1      19.617   3.169  51.762  1.00  0.00     0.009 A 
HETATM   24  C23 UNL     1      20.427   2.105  52.077  1.00  0.00     0.030 A 
ENDBRANCH  16  18
ENDBRANCH   1  16
BRANCH  11  25
HETATM   25  C14 UNL     1      26.528   1.460  51.415  1.00  0.00     0.132 C 
BRANCH  25  26
HETATM   26  C15 UNL     1      26.141   2.909  51.565  1.00  0.00     0.021 C 
BRANCH  26  27
HETATM   27  C16 UNL     1      25.155   3.378  50.535  1.00  0.00     0.008 C 
BRANCH  27  28
HETATM   28  C17 UNL     1      23.729   3.335  51.049  1.00  0.00     0.011 C 
HETATM   29  C18 UNL     1      22.925   4.371  50.300  1.00  0.00     0.033 C 
HETATM   30  C19 UNL     1      22.683   5.448  51.318  1.00  0.00     0.168 C 
HETATM   31  O1  UNL     1      23.449   5.165  52.430  1.00  0.00    -0.391 OA
HETATM   32  C20 UNL     1      23.614   3.798  52.488  1.00  0.00     0.172 C 
ENDBRANCH  27  28
ENDBRANCH  26  27
ENDBRANCH  25  26
ENDBRANCH  11  25
TORSDOF 6
ENDMDL
MODEL 6
REMARK VINA RESULT:      -9.3      2.230      5.944
REMARK  6 active torsions:
REMARK  status: ('A' for Active; 'I' for Inactive)
REMARK    1  A    between atoms: C5_5  and  N1_6 
REMARK    2  A    between atoms: N1_6  and  C6_7 
REMARK    3  A    between atoms: N4_17  and  C14_18 
REMARK    4  A    between atoms: C14_18  and  C15_19 
REMARK    5  A    between atoms: C15_19  and  C16_20 
REMARK    6  A    between atoms: C16_20  and  C17_21 
ROOT
HETATM    1  C6  UNL     1      23.582   0.025  53.138  1.00  0.00     0.142 A 
HETATM    2  N2  UNL     1      23.426  -0.694  54.250  1.00  0.00    -0.224 NA
HETATM    3  C7  UNL     1      22.280  -1.155  54.752  1.00  0.00     0.236 A 
HETATM    4  N3  UNL     1      21.130  -0.886  54.092  1.00  0.00    -0.241 NA
HETATM    5  C8  UNL     1      21.180  -0.159  52.945  1.00  0.00     0.075 A 
HETATM    6  C9  UNL     1      19.974   0.070  52.336  1.00  0.00     0.071 A 
HETATM    7  C10 UNL     1      19.933   0.800  51.167  1.00  0.00     0.098 A 
HETATM    8  C11 UNL     1      21.121   1.268  50.662  1.00  0.00     0.071 A 
HETATM    9  C12 UNL     1      22.294   1.005  51.319  1.00  0.00     0.050 A 
HETATM   10  C13 UNL     1      22.402   0.283  52.489  1.00  0.00     0.041 A 
HETATM   11  N4  UNL     1      21.092   2.034  49.440  1.00  0.00    -0.314 N 
HETATM   12  C21 UNL     1      19.812   2.266  48.814  1.00  0.00     0.248 C 
HETATM   13  O2  UNL     1      19.815   2.684  47.626  1.00  0.00    -0.271 OA
HETATM   14  C22 UNL     1      18.551   2.016  49.556  1.00  0.00     0.279 C 
HETATM   15  O3  UNL     1      18.728   1.031  50.556  1.00  0.00    -0.340 OA
ENDROOT
BRANCH   1  16
HETATM   16  N1  UNL     1      24.778   0.510  52.608  1.00  0.00    -0.340 N 
HETATM   17  H6  UNL     1      24.804   1.259  51.916  1.00  0.00     0.167 HD
BRANCH  16  18
HETATM   18  C5  UNL     1      26.099   0.094  52.901  1.00  0.00     0.033 A 
HETATM   19  C4  UNL     1      26.574  -1.144  52.561  1.00  0.00     0.030 A 
HETATM   20  C3  UNL     1      27.855  -1.582  52.835  1.00  0.00     0.009 A 
HETATM   21  C2  UNL     1      28.751  -0.775  53.484  1.00  0.00    -0.062 A 
HETATM   22  C1  UNL     1      30.131  -1.159  53.816  1.00  0.00     0.048 C 
HETATM   23  C24 UNL     1      28.323   0.477  53.847  1.00  0.00     0.009 A 
HETATM   24  C23 UNL     1      27.039   0.861  53.550  1.00  0.00     0.030 A 
ENDBRANCH  16  18
ENDBRANCH   1  16
BRANCH  11  25
HETATM   25  C14 UNL     1      22.294   2.548  48.866  1.00  0.00     0.132 C 
BRANCH  25  26
HETATM   26  C15 UNL     1      22.551   3.942  49.377  1.00  0.00     0.021 C 
BRANCH  26  27
HETATM   27  C16 UNL     1      23.810   4.557  48.838  1.00  0.00     0.008 C 
BRANCH  27  28
HETATM   28  C17 UNL     1      24.827   4.824  49.930  1.00  0.00     0.011 C 
HETATM   29  C18 UNL     1      26.189   4.424  49.415  1.00  0.00     0.033 C 
HETATM   30  C19 UNL     1      26.511   3.170  50.175  1.00  0.00     0.168 C 
HETATM   31  O1  UNL     1      25.378   2.784  50.861  1.00  0.00    -0.391 OA
HETATM   32  C20 UNL     1      24.645   3.919  51.132  1.00  0.00     0.172 C 
ENDBRANCH  27  28
ENDBRANCH  26  27
ENDBRANCH  25  26
ENDBRANCH  11  25
TORSDOF 6
ENDMDL
MODEL 7
REMARK VINA RESULT:      -9.1      2.464      6.378
REMARK  6 active torsions:
REMARK  status: ('A' for Active; 'I' for Inactive)
REMARK    1  A    between atoms: C5_5  and  N1_6 
REMARK    2  A    between atoms: N1_6  and  C6_7 
REMARK    3  A    between atoms: N4_17  and  C14_18 
REMARK    4  A    between atoms: C14_18  and  C15_19 
REMARK    5  A    between atoms: C15_19  and  C16_20 
REMARK    6  A    between atoms: C16_20  and  C17_21 
ROOT
HETATM    1  C6  UNL     1      21.283   2.754  49.655  1.00  0.00     0.142 A 
HETATM    2  N2  UNL     1      20.037   3.221  49.569  1.00  0.00    -0.224 NA
HETATM    3  C7  UNL     1      19.668   4.469  49.278  1.00  0.00     0.236 A 
HETATM    4  N3  UNL     1      20.631   5.389  49.039  1.00  0.00    -0.241 NA
HETATM    5  C8  UNL     1      21.936   5.014  49.102  1.00  0.00     0.075 A 
HETATM    6  C9  UNL     1      22.849   6.003  48.847  1.00  0.00     0.071 A 
HETATM    7  C10 UNL     1      24.195   5.709  48.890  1.00  0.00     0.098 A 
HETATM    8  C11 UNL     1      24.561   4.420  49.190  1.00  0.00     0.071 A 
HETATM    9  C12 UNL     1      23.597   3.476  49.436  1.00  0.00     0.050 A 
HETATM   10  C13 UNL     1      22.238   3.706  49.408  1.00  0.00     0.041 A 
HETATM   11  N4  UNL     1      25.966   4.099  49.239  1.00  0.00    -0.314 N 
HETATM   12  C21 UNL     1      26.913   5.154  48.969  1.00  0.00     0.248 C 
HETATM   13  O2  UNL     1      28.106   4.819  48.740  1.00  0.00    -0.271 OA
HETATM   14  C22 UNL     1      26.482   6.574  48.964  1.00  0.00     0.279 C 
HETATM   15  O3  UNL     1      25.112   6.697  48.635  1.00  0.00    -0.340 OA
ENDROOT
BRANCH   1  16
HETATM   16  N1  UNL     1      21.676   1.450  49.959  1.00  0.00    -0.340 N 
HETATM   17  H6  UNL     1      21.890   0.762  49.237  1.00  0.00     0.167 HD
BRANCH  16  18
HETATM   18  C5  UNL     1      21.844   0.860  51.235  1.00  0.00     0.033 A 
HETATM   19  C4  UNL     1      23.020   0.936  51.933  1.00  0.00     0.030 A 
HETATM   20  C3  UNL     1      23.218   0.370  53.177  1.00  0.00     0.009 A 
HETATM   21  C2  UNL     1      22.216  -0.323  53.803  1.00  0.00    -0.062 A 
HETATM   22  C1  UNL     1      22.338  -0.957  55.123  1.00  0.00     0.048 C 
HETATM   23  C24 UNL     1      21.016  -0.428  53.145  1.00  0.00     0.009 A 
HETATM   24  C23 UNL     1      20.874   0.155  51.909  1.00  0.00     0.030 A 
ENDBRANCH  16  18
ENDBRANCH   1  16
BRANCH  11  25
HETATM   25  C14 UNL     1      26.408   2.777  49.547  1.00  0.00     0.132 C 
BRANCH  25  26
HETATM   26  C15 UNL     1      26.616   2.638  51.033  1.00  0.00     0.021 C 
BRANCH  26  27
HETATM   27  C16 UNL     1      26.548   1.220  51.519  1.00  0.00     0.008 C 
BRANCH  27  28
HETATM   28  C17 UNL     1      27.523   0.957  52.650  1.00  0.00     0.011 C 
HETATM   29  C18 UNL     1      27.036  -0.244  53.425  1.00  0.00     0.033 C 
HETATM   30  C19 UNL     1      26.537   0.334  54.717  1.00  0.00     0.168 C 
HETATM   31  O1  UNL     1      26.529   1.708  54.595  1.00  0.00    -0.391 OA
HETATM   32  C20 UNL     1      27.514   2.055  53.696  1.00  0.00     0.172 C 
ENDBRANCH  27  28
ENDBRANCH  26  27
ENDBRANCH  25  26
ENDBRANCH  11  25
TORSDOF 6
ENDMDL
MODEL 8
REMARK VINA RESULT:      -8.9      2.134      4.810
REMARK  6 active torsions:
REMARK  status: ('A' for Active; 'I' for Inactive)
REMARK    1  A    between atoms: C5_5  and  N1_6 
REMARK    2  A    between atoms: N1_6  and  C6_7 
REMARK    3  A    between atoms: N4_17  and  C14_18 
REMARK    4  A    between atoms: C14_18  and  C15_19 
REMARK    5  A    between atoms: C15_19  and  C16_20 
REMARK    6  A    between atoms: C16_20  and  C17_21 
ROOT
HETATM    1  C6  UNL     1      26.111   2.662  50.880  1.00  0.00     0.142 A 
HETATM    2  N2  UNL     1      27.277   2.620  51.525  1.00  0.00    -0.224 NA
HETATM    3  C7  UNL     1      27.536   1.989  52.671  1.00  0.00     0.236 A 
HETATM    4  N3  UNL     1      26.536   1.307  53.274  1.00  0.00    -0.241 NA
HETATM    5  C8  UNL     1      25.305   1.287  52.697  1.00  0.00     0.075 A 
HETATM    6  C9  UNL     1      24.348   0.575  53.370  1.00  0.00     0.071 A 
HETATM    7  C10 UNL     1      23.071   0.503  52.854  1.00  0.00     0.098 A 
HETATM    8  C11 UNL     1      22.818   1.157  51.673  1.00  0.00     0.071 A 
HETATM    9  C12 UNL     1      23.821   1.853  51.050  1.00  0.00     0.050 A 
HETATM   10  C13 UNL     1      25.115   1.963  51.512  1.00  0.00     0.041 A 
HETATM   11  N4  UNL     1      21.487   1.090  51.124  1.00  0.00    -0.314 N 
HETATM   12  C21 UNL     1      20.490   0.337  51.847  1.00  0.00     0.248 C 
HETATM   13  O2  UNL     1      19.425   0.049  51.239  1.00  0.00    -0.271 OA
HETATM   14  C22 UNL     1      20.728  -0.077  53.252  1.00  0.00     0.279 C 
HETATM   15  O3  UNL     1      22.110  -0.209  53.525  1.00  0.00    -0.340 OA
ENDROOT
BRANCH   1  16
HETATM   16  N1  UNL     1      25.833   3.320  49.682  1.00  0.00    -0.340 N 
HETATM   17  H6  UNL     1      25.110   2.999  49.038  1.00  0.00     0.167 HD
BRANCH  16  18
HETATM   18  C5  UNL     1      26.452   4.479  49.155  1.00  0.00     0.033 A 
HETATM   19  C4  UNL     1      25.781   5.661  48.987  1.00  0.00     0.030 A 
HETATM   20  C3  UNL     1      26.353   6.808  48.473  1.00  0.00     0.009 A 
HETATM   21  C2  UNL     1      27.668   6.828  48.090  1.00  0.00    -0.062 A 
HETATM   22  C1  UNL     1      28.357   8.002  47.535  1.00  0.00     0.048 C 
HETATM   23  C24 UNL     1      28.385   5.668  48.239  1.00  0.00     0.009 A 
HETATM   24  C23 UNL     1      27.766   4.556  48.755  1.00  0.00     0.030 A 
ENDBRANCH  16  18
ENDBRANCH   1  16
BRANCH  11  25
HETATM   25  C14 UNL     1      21.163   1.750  49.899  1.00  0.00     0.132 C 
BRANCH  25  26
HETATM   26  C15 UNL     1      20.503   3.074  50.190  1.00  0.00     0.021 C 
BRANCH  26  27
HETATM   27  C16 UNL     1      21.331   4.259  49.785  1.00  0.00     0.008 C 
BRANCH  27  28
HETATM   28  C17 UNL     1      21.391   5.312  50.874  1.00  0.00     0.011 C 
HETATM   29  C18 UNL     1      22.675   6.090  50.710  1.00  0.00     0.033 C 
HETATM   30  C19 UNL     1      23.527   5.633  51.858  1.00  0.00     0.168 C 
HETATM   31  O1  UNL     1      22.895   4.564  52.460  1.00  0.00    -0.391 OA
HETATM   32  C20 UNL     1      21.540   4.711  52.259  1.00  0.00     0.172 C 
ENDBRANCH  27  28
ENDBRANCH  26  27
ENDBRANCH  25  26
ENDBRANCH  11  25
TORSDOF 6
ENDMDL
MODEL 9
REMARK VINA RESULT:      -8.8      2.556      6.439
REMARK  6 active torsions:
REMARK  status: ('A' for Active; 'I' for Inactive)
REMARK    1  A    between atoms: C5_5  and  N1_6 
REMARK    2  A    between atoms: N1_6  and  C6_7 
REMARK    3  A    between atoms: N4_17  and  C14_18 
REMARK    4  A    between atoms: C14_18  and  C15_19 
REMARK    5  A    between atoms: C15_19  and  C16_20 
REMARK    6  A    between atoms: C16_20  and  C17_21 
ROOT
HETATM    1  C6  UNL     1      23.668   0.284  53.441  1.00  0.00     0.142 A 
HETATM    2  N2  UNL     1      23.136  -0.608  54.278  1.00  0.00    -0.224 NA
HETATM    3  C7  UNL     1      21.943  -1.195  54.170  1.00  0.00     0.236 A 
HETATM    4  N3  UNL     1      21.160  -0.878  53.114  1.00  0.00    -0.241 NA
HETATM    5  C8  UNL     1      21.611   0.022  52.201  1.00  0.00     0.075 A 
HETATM    6  C9  UNL     1      20.759   0.288  51.161  1.00  0.00     0.071 A 
HETATM    7  C10 UNL     1      21.137   1.191  50.190  1.00  0.00     0.098 A 
HETATM    8  C11 UNL     1      22.368   1.786  50.313  1.00  0.00     0.071 A 
HETATM    9  C12 UNL     1      23.174   1.477  51.378  1.00  0.00     0.050 A 
HETATM   10  C13 UNL     1      22.854   0.586  52.380  1.00  0.00     0.041 A 
HETATM   11  N4  UNL     1      22.776   2.733  49.305  1.00  0.00    -0.314 N 
HETATM   12  C21 UNL     1      21.865   3.002  48.217  1.00  0.00     0.248 C 
HETATM   13  O2  UNL     1      22.324   3.602  47.209  1.00  0.00    -0.271 OA
HETATM   14  C22 UNL     1      20.444   2.580  48.300  1.00  0.00     0.279 C 
HETATM   15  O3  UNL     1      20.287   1.459  49.148  1.00  0.00    -0.340 OA
ENDROOT
BRANCH   1  16
HETATM   16  N1  UNL     1      24.915   0.901  53.548  1.00  0.00    -0.340 N 
HETATM   17  H6  UNL     1      25.018   1.913  53.618  1.00  0.00     0.167 HD
BRANCH  16  18
HETATM   18  C5  UNL     1      26.194   0.294  53.579  1.00  0.00     0.033 A 
HETATM   19  C4  UNL     1      26.496  -0.825  52.851  1.00  0.00     0.030 A 
HETATM   20  C3  UNL     1      27.731  -1.443  52.862  1.00  0.00     0.009 A 
HETATM   21  C2  UNL     1      28.756  -0.955  53.628  1.00  0.00    -0.062 A 
HETATM   22  C1  UNL     1      30.100  -1.548  53.700  1.00  0.00     0.048 C 
HETATM   23  C24 UNL     1      28.504   0.167  54.377  1.00  0.00     0.009 A 
HETATM   24  C23 UNL     1      27.257   0.741  54.328  1.00  0.00     0.030 A 
ENDBRANCH  16  18
ENDBRANCH   1  16
BRANCH  11  25
HETATM   25  C14 UNL     1      24.044   3.386  49.379  1.00  0.00     0.132 C 
BRANCH  25  26
HETATM   26  C15 UNL     1      23.990   4.497  50.396  1.00  0.00     0.021 C 
BRANCH  26  27
HETATM   27  C16 UNL     1      25.044   5.546  50.196  1.00  0.00     0.008 C 
BRANCH  27  28
HETATM   28  C17 UNL     1      25.525   5.606  48.759  1.00  0.00     0.011 C 
HETATM   29  C18 UNL     1      26.990   5.242  48.735  1.00  0.00     0.033 C 
HETATM   30  C19 UNL     1      27.684   6.542  48.450  1.00  0.00     0.168 C 
HETATM   31  O1  UNL     1      26.748   7.552  48.532  1.00  0.00    -0.391 OA
HETATM   32  C20 UNL     1      25.522   7.017  48.202  1.00  0.00     0.172 C 
ENDBRANCH  27  28
ENDBRANCH  26  27
ENDBRANCH  25  26
ENDBRANCH  11  25
TORSDOF 6
ENDMDL
