MODEL 1
REMARK VINA RESULT:      -8.0      0.000      0.000
REMARK  3 active torsions:
REMARK  status: ('A' for Active; 'I' for Inactive)
REMARK    1  A    between atoms: O1_2  and  C2_3 
REMARK    2  A    between atoms: C9_11  and  N1_12 
REMARK    3  A    between atoms: C19_27  and  N4_28 
ROOT
HETATM    1  C2  UNL     1      25.123   0.324  53.053  1.00  0.00     0.181 C 
HETATM    2  C3  UNL     1      23.727   0.624  52.635  1.00  0.00     0.017 C 
HETATM    3  C4  UNL     1      23.198   1.837  52.571  1.00  0.00    -0.029 C 
HETATM    4  C5  UNL     1      24.205   2.717  53.212  1.00  0.00     0.077 C 
HETATM    5  C6  UNL     1      25.350   2.669  52.270  1.00  0.00    -0.037 C 
HETATM    6  C7  UNL     1      25.925   3.071  51.102  1.00  0.00     0.059 C 
HETATM    7  C8  UNL     1      25.368   4.032  49.989  1.00  0.00     0.203 C 
HETATM    8  O2  UNL     1      25.984   4.419  48.994  1.00  0.00    -0.289 OA
HETATM    9  C9  UNL     1      24.065   4.218  50.523  1.00  0.00     0.298 C 
HETATM   10  S1  UNL     1      23.741   2.503  50.298  1.00  0.00    -0.101 SA
HETATM   11  C10 UNL     1      22.326   1.638  49.904  1.00  0.00     0.115 C 
HETATM   12  C11 UNL     1      21.250   2.388  49.193  1.00  0.00     0.106 C 
HETATM   13  N2  UNL     1      21.171   3.583  49.493  1.00  0.00    -0.264 NA
HETATM   14  C12 UNL     1      21.411   4.319  50.684  1.00  0.00     0.176 A 
HETATM   15  C13 UNL     1      20.654   5.558  50.566  1.00  0.00     0.060 A 
HETATM   16  C14 UNL     1      21.362   6.645  50.285  1.00  0.00     0.073 A 
HETATM   17 CL1  UNL     1      20.591   8.199  50.106  1.00  0.00    -0.081 Cl
HETATM   18  C15 UNL     1      22.730   6.141  50.257  1.00  0.00     0.148 A 
HETATM   19  F1  UNL     1      23.742   7.028  49.996  1.00  0.00    -0.204 F 
HETATM   20  C16 UNL     1      22.828   4.819  50.502  1.00  0.00     0.071 A 
HETATM   21  N3  UNL     1      21.234   3.559  51.942  1.00  0.00    -0.355 N 
HETATM   22  C17 UNL     1      21.949   2.329  51.953  1.00  0.00     0.034 C 
HETATM   23  C18 UNL     1      21.551   1.260  51.192  1.00  0.00     0.023 C 
HETATM   24  C19 UNL     1      26.116   1.472  52.815  1.00  0.00     0.279 C 
HETATM   25  H14 UNL     1      20.625   3.932  52.727  1.00  0.00     0.163 HD
ENDROOT
BRANCH   9  26
HETATM   26  N1  UNL     1      24.548   4.890  51.739  1.00  0.00     0.110 N 
HETATM   27  H9  UNL     1      25.537   4.853  51.952  1.00  0.00     0.315 HD
HETATM   28  H10 UNL     1      24.067   4.704  52.607  1.00  0.00     0.315 HD
ENDBRANCH   9  26
BRANCH  24  29
HETATM   29  N4  UNL     1      26.584   1.886  54.125  1.00  0.00     0.089 N 
HETATM   30  H17 UNL     1      25.782   1.845  54.808  1.00  0.00     0.313 HD
HETATM   31  H18 UNL     1      26.843   2.897  54.051  1.00  0.00     0.313 HD
ENDBRANCH  24  29
BRANCH   1  32
HETATM   32  O1  UNL     1      25.173  -0.160  54.345  1.00  0.00    -0.384 OA
HETATM   33  C1  UNL     1      24.013  -0.938  54.513  1.00  0.00     0.202 C 
ENDBRANCH   1  32
TORSDOF 3
ENDMDL
MODEL 2
REMARK VINA RESULT:      -7.6      3.169      4.586
REMARK  3 active torsions:
REMARK  status: ('A' for Active; 'I' for Inactive)
REMARK    1  A    between atoms: O1_2  and  C2_3 
REMARK    2  A    between atoms: C9_11  and  N1_12 
REMARK    3  A    between atoms: C19_27  and  N4_28 
ROOT
HETATM    1  C2  UNL     1      21.467  -0.143  54.560  1.00  0.00     0.181 C 
HETATM    2  C3  UNL     1      22.527   0.497  53.736  1.00  0.00     0.017 C 
HETATM    3  C4  UNL     1      22.461   0.684  52.427  1.00  0.00    -0.029 C 
HETATM    4  C5  UNL     1      21.259  -0.074  52.001  1.00  0.00     0.077 C 
HETATM    5  C6  UNL     1      20.143   0.677  52.627  1.00  0.00    -0.037 C 
HETATM    6  C7  UNL     1      19.309   1.754  52.627  1.00  0.00     0.059 C 
HETATM    7  C8  UNL     1      19.247   2.973  51.635  1.00  0.00     0.203 C 
HETATM    8  O2  UNL     1      18.405   3.873  51.649  1.00  0.00    -0.289 OA
HETATM    9  C9  UNL     1      20.393   2.655  50.859  1.00  0.00     0.298 C 
HETATM   10  S1  UNL     1      21.402   2.867  52.285  1.00  0.00    -0.101 SA
HETATM   11  C10 UNL     1      22.992   3.447  52.497  1.00  0.00     0.115 C 
HETATM   12  C11 UNL     1      23.535   4.341  51.435  1.00  0.00     0.106 C 
HETATM   13  N2  UNL     1      23.120   4.100  50.296  1.00  0.00    -0.264 NA
HETATM   14  C12 UNL     1      22.733   2.912  49.620  1.00  0.00     0.176 A 
HETATM   15  C13 UNL     1      22.851   3.190  48.195  1.00  0.00     0.060 A 
HETATM   16  C14 UNL     1      21.711   3.395  47.547  1.00  0.00     0.073 A 
HETATM   17 CL1  UNL     1      21.697   3.746  45.839  1.00  0.00    -0.081 Cl
HETATM   18  C15 UNL     1      20.709   3.193  48.587  1.00  0.00     0.148 A 
HETATM   19  F1  UNL     1      19.387   3.324  48.248  1.00  0.00    -0.204 F 
HETATM   20  C16 UNL     1      21.230   2.889  49.793  1.00  0.00     0.071 A 
HETATM   21  N3  UNL     1      23.380   1.672  50.103  1.00  0.00    -0.355 N 
HETATM   22  C17 UNL     1      23.281   1.507  51.512  1.00  0.00     0.034 C 
HETATM   23  C18 UNL     1      24.008   2.282  52.379  1.00  0.00     0.023 C 
HETATM   24  C19 UNL     1      20.052  -0.022  53.976  1.00  0.00     0.279 C 
HETATM   25  H14 UNL     1      23.857   1.004  49.430  1.00  0.00     0.163 HD
ENDROOT
BRANCH   9  26
HETATM   26  N1  UNL     1      19.821   1.403  50.341  1.00  0.00     0.110 N 
HETATM   27  H9  UNL     1      20.307   0.921  49.594  1.00  0.00     0.315 HD
HETATM   28  H10 UNL     1      18.844   1.396  50.088  1.00  0.00     0.315 HD
ENDBRANCH   9  26
BRANCH  24  29
HETATM   29  N4  UNL     1      19.617  -1.374  53.674  1.00  0.00     0.089 N 
HETATM   30  H17 UNL     1      19.658  -1.955  54.552  1.00  0.00     0.313 HD
HETATM   31  H18 UNL     1      20.330  -1.786  53.027  1.00  0.00     0.313 HD
ENDBRANCH  24  29
BRANCH   1  32
HETATM   32  O1  UNL     1      21.795  -1.443  54.889  1.00  0.00    -0.384 OA
HETATM   33  C1  UNL     1      23.101  -1.393  55.412  1.00  0.00     0.202 C 
ENDBRANCH   1  32
TORSDOF 3
ENDMDL
MODEL 3
REMARK VINA RESULT:      -7.6      3.429      5.864
REMARK  3 active torsions:
REMARK  status: ('A' for Active; 'I' for Inactive)
REMARK    1  A    between atoms: O1_2  and  C2_3 
REMARK    2  A    between atoms: C9_11  and  N1_12 
REMARK    3  A    between atoms: C19_27  and  N4_28 
ROOT
HETATM    1  C2  UNL     1      20.105   3.255  48.241  1.00  0.00     0.181 C 
HETATM    2  C3  UNL     1      19.996   2.108  49.182  1.00  0.00     0.017 C 
HETATM    3  C4  UNL     1      21.022   1.497  49.755  1.00  0.00    -0.029 C 
HETATM    4  C5  UNL     1      22.216   2.053  49.073  1.00  0.00     0.077 C 
HETATM    5  C6  UNL     1      22.228   3.471  49.509  1.00  0.00    -0.037 C 
HETATM    6  C7  UNL     1      22.497   4.401  50.468  1.00  0.00     0.059 C 
HETATM    7  C8  UNL     1      23.060   4.206  51.923  1.00  0.00     0.203 C 
HETATM    8  O2  UNL     1      23.359   5.108  52.709  1.00  0.00    -0.289 OA
HETATM    9  C9  UNL     1      23.060   2.786  51.946  1.00  0.00     0.298 C 
HETATM   10  S1  UNL     1      21.307   2.796  51.789  1.00  0.00    -0.101 SA
HETATM   11  C10 UNL     1      20.088   1.769  52.395  1.00  0.00     0.115 C 
HETATM   12  C11 UNL     1      20.418   0.971  53.611  1.00  0.00     0.106 C 
HETATM   13  N2  UNL     1      21.602   0.630  53.698  1.00  0.00    -0.264 NA
HETATM   14  C12 UNL     1      22.602   0.291  52.749  1.00  0.00     0.176 A 
HETATM   15  C13 UNL     1      23.591  -0.510  53.457  1.00  0.00     0.060 A 
HETATM   16  C14 UNL     1      24.726   0.107  53.763  1.00  0.00     0.073 A 
HETATM   17 CL1  UNL     1      26.000  -0.723  54.618  1.00  0.00    -0.081 Cl
HETATM   18  C15 UNL     1      24.542   1.429  53.176  1.00  0.00     0.148 A 
HETATM   19  F1  UNL     1      25.557   2.342  53.304  1.00  0.00    -0.204 F 
HETATM   20  C16 UNL     1      23.354   1.590  52.559  1.00  0.00     0.071 A 
HETATM   21  N3  UNL     1      22.098  -0.266  51.473  1.00  0.00    -0.355 N 
HETATM   22  C17 UNL     1      21.087   0.538  50.878  1.00  0.00     0.034 C 
HETATM   23  C18 UNL     1      19.823   0.608  51.403  1.00  0.00     0.023 C 
HETATM   24  C19 UNL     1      21.370   4.108  48.426  1.00  0.00     0.279 C 
HETATM   25  H14 UNL     1      22.482  -1.175  51.082  1.00  0.00     0.163 HD
ENDROOT
BRANCH   9  26
HETATM   26  N1  UNL     1      24.058   2.666  50.874  1.00  0.00     0.110 N 
HETATM   27  H9  UNL     1      23.865   3.104  49.981  1.00  0.00     0.315 HD
HETATM   28  H10 UNL     1      24.419   1.747  50.661  1.00  0.00     0.315 HD
ENDBRANCH   9  26
BRANCH  24  29
HETATM   29  N4  UNL     1      22.138   3.970  47.202  1.00  0.00     0.089 N 
HETATM   30  H17 UNL     1      22.899   4.699  47.187  1.00  0.00     0.313 HD
HETATM   31  H18 UNL     1      21.498   4.212  46.411  1.00  0.00     0.313 HD
ENDBRANCH  24  29
BRANCH   1  32
HETATM   32  O1  UNL     1      19.922   2.858  46.931  1.00  0.00    -0.384 OA
HETATM   33  C1  UNL     1      18.608   3.233  46.592  1.00  0.00     0.202 C 
ENDBRANCH   1  32
TORSDOF 3
ENDMDL
MODEL 4
REMARK VINA RESULT:      -7.6      2.444      3.499
REMARK  3 active torsions:
REMARK  status: ('A' for Active; 'I' for Inactive)
REMARK    1  A    between atoms: O1_2  and  C2_3 
REMARK    2  A    between atoms: C9_11  and  N1_12 
REMARK    3  A    between atoms: C19_27  and  N4_28 
ROOT
HETATM    1  C2  UNL     1      19.922  -0.557  52.798  1.00  0.00     0.181 C 
HETATM    2  C3  UNL     1      19.641   0.287  51.605  1.00  0.00     0.017 C 
HETATM    3  C4  UNL     1      20.010   1.551  51.466  1.00  0.00    -0.029 C 
HETATM    4  C5  UNL     1      20.518   1.942  52.804  1.00  0.00     0.077 C 
HETATM    5  C6  UNL     1      21.745   1.122  52.956  1.00  0.00    -0.037 C 
HETATM    6  C7  UNL     1      23.057   0.909  52.659  1.00  0.00     0.059 C 
HETATM    7  C8  UNL     1      24.021   1.736  51.732  1.00  0.00     0.203 C 
HETATM    8  O2  UNL     1      25.227   1.530  51.577  1.00  0.00    -0.289 OA
HETATM    9  C9  UNL     1      23.066   2.656  51.224  1.00  0.00     0.298 C 
HETATM   10  S1  UNL     1      22.210   1.324  50.457  1.00  0.00    -0.101 SA
HETATM   11  C10 UNL     1      21.327   1.204  49.003  1.00  0.00     0.115 C 
HETATM   12  C11 UNL     1      21.637   2.201  47.938  1.00  0.00     0.106 C 
HETATM   13  N2  UNL     1      21.977   3.312  48.356  1.00  0.00    -0.264 NA
HETATM   14  C12 UNL     1      21.632   4.084  49.498  1.00  0.00     0.176 A 
HETATM   15  C13 UNL     1      21.934   5.470  49.168  1.00  0.00     0.060 A 
HETATM   16  C14 UNL     1      23.033   5.971  49.719  1.00  0.00     0.073 A 
HETATM   17 CL1  UNL     1      23.527   7.614  49.410  1.00  0.00    -0.081 Cl
HETATM   18  C15 UNL     1      23.512   4.867  50.544  1.00  0.00     0.148 A 
HETATM   19  F1  UNL     1      24.656   5.054  51.276  1.00  0.00    -0.204 F 
HETATM   20  C16 UNL     1      22.738   3.765  50.479  1.00  0.00     0.071 A 
HETATM   21  N3  UNL     1      20.285   3.821  50.054  1.00  0.00    -0.355 N 
HETATM   22  C17 UNL     1      20.040   2.438  50.284  1.00  0.00     0.034 C 
HETATM   23  C18 UNL     1      19.839   1.562  49.248  1.00  0.00     0.023 C 
HETATM   24  C19 UNL     1      21.169  -0.136  53.591  1.00  0.00     0.279 C 
HETATM   25  H14 UNL     1      19.605   4.613  50.244  1.00  0.00     0.163 HD
ENDROOT
BRANCH   9  26
HETATM   26  N1  UNL     1      22.797   3.260  52.537  1.00  0.00     0.110 N 
HETATM   27  H9  UNL     1      22.112   2.822  53.141  1.00  0.00     0.315 HD
HETATM   28  H10 UNL     1      22.610   4.252  52.574  1.00  0.00     0.315 HD
ENDBRANCH   9  26
BRANCH  24  29
HETATM   29  N4  UNL     1      20.698   0.281  54.900  1.00  0.00     0.089 N 
HETATM   30  H17 UNL     1      20.182  -0.518  55.353  1.00  0.00     0.313 HD
HETATM   31  H18 UNL     1      19.983   1.029  54.743  1.00  0.00     0.313 HD
ENDBRANCH  24  29
BRANCH   1  32
HETATM   32  O1  UNL     1      18.806  -0.693  53.598  1.00  0.00    -0.384 OA
HETATM   33  C1  UNL     1      17.791  -1.199  52.765  1.00  0.00     0.202 C 
ENDBRANCH   1  32
TORSDOF 3
ENDMDL
MODEL 5
REMARK VINA RESULT:      -7.5      3.235      6.287
REMARK  3 active torsions:
REMARK  status: ('A' for Active; 'I' for Inactive)
REMARK    1  A    between atoms: O1_2  and  C2_3 
REMARK    2  A    between atoms: C9_11  and  N1_12 
REMARK    3  A    between atoms: C19_27  and  N4_28 
ROOT
HETATM    1  C2  UNL     1      21.134   6.767  48.982  1.00  0.00     0.181 C 
HETATM    2  C3  UNL     1      22.412   6.480  49.688  1.00  0.00     0.017 C 
HETATM    3  C4  UNL     1      22.567   5.569  50.636  1.00  0.00    -0.029 C 
HETATM    4  C5  UNL     1      21.188   5.122  50.954  1.00  0.00     0.077 C 
HETATM    5  C6  UNL     1      20.763   4.425  49.716  1.00  0.00    -0.037 C 
HETATM    6  C7  UNL     1      20.803   3.320  48.919  1.00  0.00     0.059 C 
HETATM    7  C8  UNL     1      21.594   1.975  49.111  1.00  0.00     0.203 C 
HETATM    8  O2  UNL     1      21.514   0.981  48.386  1.00  0.00    -0.289 OA
HETATM    9  C9  UNL     1      22.327   2.340  50.271  1.00  0.00     0.298 C 
HETATM   10  S1  UNL     1      23.144   3.593  49.345  1.00  0.00    -0.101 SA
HETATM   11  C10 UNL     1      24.722   4.236  49.414  1.00  0.00     0.115 C 
HETATM   12  C11 UNL     1      25.778   3.374  50.019  1.00  0.00     0.106 C 
HETATM   13  N2  UNL     1      25.382   2.631  50.922  1.00  0.00    -0.264 NA
HETATM   14  C12 UNL     1      24.376   2.741  51.920  1.00  0.00     0.176 A 
HETATM   15  C13 UNL     1      24.738   1.809  52.979  1.00  0.00     0.060 A 
HETATM   16  C14 UNL     1      24.033   0.686  53.029  1.00  0.00     0.073 A 
HETATM   17 CL1  UNL     1      24.358  -0.528  54.238  1.00  0.00    -0.081 Cl
HETATM   18  C15 UNL     1      23.063   0.866  51.955  1.00  0.00     0.148 A 
HETATM   19  F1  UNL     1      22.151  -0.133  51.732  1.00  0.00    -0.204 F 
HETATM   20  C16 UNL     1      23.192   2.035  51.296  1.00  0.00     0.071 A 
HETATM   21  N3  UNL     1      24.056   4.123  52.343  1.00  0.00    -0.355 N 
HETATM   22  C17 UNL     1      23.781   4.989  51.248  1.00  0.00     0.034 C 
HETATM   23  C18 UNL     1      24.775   5.423  50.409  1.00  0.00     0.023 C 
HETATM   24  C19 UNL     1      20.159   5.581  48.932  1.00  0.00     0.279 C 
HETATM   25  H14 UNL     1      24.045   4.394  53.369  1.00  0.00     0.163 HD
ENDROOT
BRANCH   9  26
HETATM   26  N1  UNL     1      21.128   2.480  51.110  1.00  0.00     0.110 N 
HETATM   27  H9  UNL     1      21.126   2.051  52.028  1.00  0.00     0.315 HD
HETATM   28  H10 UNL     1      20.232   2.264  50.698  1.00  0.00     0.315 HD
ENDBRANCH   9  26
BRANCH  24  29
HETATM   29  N4  UNL     1      18.988   5.983  49.690  1.00  0.00     0.089 N 
HETATM   30  H17 UNL     1      18.731   6.971  49.432  1.00  0.00     0.313 HD
HETATM   31  H18 UNL     1      19.273   6.017  50.696  1.00  0.00     0.313 HD
ENDBRANCH  24  29
BRANCH   1  32
HETATM   32  O1  UNL     1      20.541   7.920  49.454  1.00  0.00    -0.384 OA
HETATM   33  C1  UNL     1      21.494   8.943  49.288  1.00  0.00     0.202 C 
ENDBRANCH   1  32
TORSDOF 3
ENDMDL
MODEL 6
REMARK VINA RESULT:      -7.5      8.643     10.364
REMARK  3 active torsions:
REMARK  status: ('A' for Active; 'I' for Inactive)
REMARK    1  A    between atoms: O1_2  and  C2_3 
REMARK    2  A    between atoms: C9_11  and  N1_12 
REMARK    3  A    between atoms: C19_27  and  N4_28 
ROOT
HETATM    1  C2  UNL     1      32.725   4.141  46.763  1.00  0.00     0.181 C 
HETATM    2  C3  UNL     1      31.622   4.760  47.548  1.00  0.00     0.017 C 
HETATM    3  C4  UNL     1      31.677   5.950  48.124  1.00  0.00    -0.029 C 
HETATM    4  C5  UNL     1      33.097   6.360  48.000  1.00  0.00     0.077 C 
HETATM    5  C6  UNL     1      33.270   6.552  46.539  1.00  0.00    -0.037 C 
HETATM    6  C7  UNL     1      33.083   7.315  45.426  1.00  0.00     0.059 C 
HETATM    7  C8  UNL     1      32.366   8.706  45.274  1.00  0.00     0.203 C 
HETATM    8  O2  UNL     1      32.309   9.381  44.243  1.00  0.00    -0.289 OA
HETATM    9  C9  UNL     1      31.881   8.825  46.603  1.00  0.00     0.298 C 
HETATM   10  S1  UNL     1      30.874   7.404  46.350  1.00  0.00    -0.101 SA
HETATM   11  C10 UNL     1      29.335   6.960  46.935  1.00  0.00     0.115 C 
HETATM   12  C11 UNL     1      28.437   8.064  47.383  1.00  0.00     0.106 C 
HETATM   13  N2  UNL     1      29.020   9.036  47.874  1.00  0.00    -0.264 NA
HETATM   14  C12 UNL     1      30.207   9.190  48.639  1.00  0.00     0.176 A 
HETATM   15  C13 UNL     1      30.082  10.456  49.348  1.00  0.00     0.060 A 
HETATM   16  C14 UNL     1      30.798  11.464  48.866  1.00  0.00     0.073 A 
HETATM   17 CL1  UNL     1      30.744  13.042  49.605  1.00  0.00    -0.081 Cl
HETATM   18  C15 UNL     1      31.526  10.845  47.763  1.00  0.00     0.148 A 
HETATM   19  F1  UNL     1      32.386  11.624  47.035  1.00  0.00    -0.204 F 
HETATM   20  C16 UNL     1      31.249   9.535  47.597  1.00  0.00     0.071 A 
HETATM   21  N3  UNL     1      30.589   8.015  49.455  1.00  0.00    -0.355 N 
HETATM   22  C17 UNL     1      30.622   6.806  48.707  1.00  0.00     0.034 C 
HETATM   23  C18 UNL     1      29.472   6.196  48.276  1.00  0.00     0.023 C 
HETATM   24  C19 UNL     1      33.685   5.150  46.116  1.00  0.00     0.279 C 
HETATM   25  H14 UNL     1      30.805   8.113  50.490  1.00  0.00     0.163 HD
ENDROOT
BRANCH   9  26
HETATM   26  N1  UNL     1      33.224   8.880  47.198  1.00  0.00     0.110 N 
HETATM   27  H9  UNL     1      33.377   8.432  48.094  1.00  0.00     0.315 HD
HETATM   28  H10 UNL     1      33.683   9.778  47.253  1.00  0.00     0.315 HD
ENDBRANCH   9  26
BRANCH  24  29
HETATM   29  N4  UNL     1      34.981   4.935  46.734  1.00  0.00     0.089 N 
HETATM   30  H17 UNL     1      35.185   3.902  46.760  1.00  0.00     0.313 HD
HETATM   31  H18 UNL     1      34.895   5.233  47.734  1.00  0.00     0.313 HD
ENDBRANCH  24  29
BRANCH   1  32
HETATM   32  O1  UNL     1      33.386   3.173  47.493  1.00  0.00    -0.384 OA
HETATM   33  C1  UNL     1      32.785   1.948  47.148  1.00  0.00     0.202 C 
ENDBRANCH   1  32
TORSDOF 3
ENDMDL
MODEL 7
REMARK VINA RESULT:      -7.4      2.821      4.003
REMARK  3 active torsions:
REMARK  status: ('A' for Active; 'I' for Inactive)
REMARK    1  A    between atoms: O1_2  and  C2_3 
REMARK    2  A    between atoms: C9_11  and  N1_12 
REMARK    3  A    between atoms: C19_27  and  N4_28 
ROOT
HETATM    1  C2  UNL     1      23.555   0.417  53.758  1.00  0.00     0.181 C 
HETATM    2  C3  UNL     1      24.151   1.370  52.783  1.00  0.00     0.017 C 
HETATM    3  C4  UNL     1      23.673   1.614  51.572  1.00  0.00    -0.029 C 
HETATM    4  C5  UNL     1      22.622   0.587  51.371  1.00  0.00     0.077 C 
HETATM    5  C6  UNL     1      21.581   0.968  52.357  1.00  0.00    -0.037 C 
HETATM    6  C7  UNL     1      20.546   1.778  52.716  1.00  0.00     0.059 C 
HETATM    7  C8  UNL     1      19.912   2.994  51.947  1.00  0.00     0.203 C 
HETATM    8  O2  UNL     1      18.916   3.631  52.297  1.00  0.00    -0.289 OA
HETATM    9  C9  UNL     1      20.833   3.047  50.867  1.00  0.00     0.298 C 
HETATM   10  S1  UNL     1      22.122   3.434  52.001  1.00  0.00    -0.101 SA
HETATM   11  C10 UNL     1      23.517   4.407  51.875  1.00  0.00     0.115 C 
HETATM   12  C11 UNL     1      23.503   5.480  50.838  1.00  0.00     0.106 C 
HETATM   13  N2  UNL     1      22.854   5.207  49.823  1.00  0.00    -0.264 NA
HETATM   14  C12 UNL     1      22.592   4.004  49.115  1.00  0.00     0.176 A 
HETATM   15  C13 UNL     1      22.231   4.391  47.758  1.00  0.00     0.060 A 
HETATM   16  C14 UNL     1      20.941   4.321  47.458  1.00  0.00     0.073 A 
HETATM   17 CL1  UNL     1      20.359   4.761  45.874  1.00  0.00    -0.081 Cl
HETATM   18  C15 UNL     1      20.353   3.791  48.684  1.00  0.00     0.148 A 
HETATM   19  F1  UNL     1      18.999   3.582  48.716  1.00  0.00    -0.204 F 
HETATM   20  C16 UNL     1      21.251   3.565  49.664  1.00  0.00     0.071 A 
HETATM   21  N3  UNL     1      23.630   2.956  49.245  1.00  0.00    -0.355 N 
HETATM   22  C17 UNL     1      23.977   2.683  50.597  1.00  0.00     0.034 C 
HETATM   23  C18 UNL     1      24.708   3.569  51.344  1.00  0.00     0.023 C 
HETATM   24  C19 UNL     1      22.047   0.187  53.578  1.00  0.00     0.279 C 
HETATM   25  H14 UNL     1      24.044   2.485  48.388  1.00  0.00     0.163 HD
ENDROOT
BRANCH   9  26
HETATM   26  N1  UNL     1      20.460   1.722  50.349  1.00  0.00     0.110 N 
HETATM   27  H9  UNL     1      20.455   0.936  50.988  1.00  0.00     0.315 HD
HETATM   28  H10 UNL     1      20.912   1.396  49.508  1.00  0.00     0.315 HD
ENDBRANCH   9  26
BRANCH  24  29
HETATM   29  N4  UNL     1      21.886  -1.210  53.218  1.00  0.00     0.089 N 
HETATM   30  H17 UNL     1      21.630  -1.278  52.199  1.00  0.00     0.313 HD
HETATM   31  H18 UNL     1      21.055  -1.567  53.744  1.00  0.00     0.313 HD
ENDBRANCH  24  29
BRANCH   1  32
HETATM   32  O1  UNL     1      24.267  -0.764  53.813  1.00  0.00    -0.384 OA
HETATM   33  C1  UNL     1      25.590  -0.405  54.137  1.00  0.00     0.202 C 
ENDBRANCH   1  32
TORSDOF 3
ENDMDL
MODEL 8
REMARK VINA RESULT:      -7.2      7.940     10.522
REMARK  3 active torsions:
REMARK  status: ('A' for Active; 'I' for Inactive)
REMARK    1  A    between atoms: O1_2  and  C2_3 
REMARK    2  A    between atoms: C9_11  and  N1_12 
REMARK    3  A    between atoms: C19_27  and  N4_28 
ROOT
HETATM    1  C2  UNL     1      34.049   8.488  45.952  1.00  0.00     0.181 C 
HETATM    2  C3  UNL     1      32.782   9.243  46.149  1.00  0.00     0.017 C 
HETATM    3  C4  UNL     1      31.573   8.705  46.159  1.00  0.00    -0.029 C 
HETATM    4  C5  UNL     1      31.782   7.306  45.712  1.00  0.00     0.077 C 
HETATM    5  C6  UNL     1      32.558   6.706  46.825  1.00  0.00    -0.037 C 
HETATM    6  C7  UNL     1      32.592   6.178  48.080  1.00  0.00     0.059 C 
HETATM    7  C8  UNL     1      31.424   5.979  49.115  1.00  0.00     0.203 C 
HETATM    8  O2  UNL     1      31.514   5.413  50.206  1.00  0.00    -0.289 OA
HETATM    9  C9  UNL     1      30.398   6.634  48.383  1.00  0.00     0.298 C 
HETATM   10  S1  UNL     1      31.292   8.145  48.507  1.00  0.00    -0.101 SA
HETATM   11  C10 UNL     1      30.798   9.771  48.645  1.00  0.00     0.115 C 
HETATM   12  C11 UNL     1      29.433  10.019  49.193  1.00  0.00     0.106 C 
HETATM   13  N2  UNL     1      28.601   9.149  48.917  1.00  0.00    -0.264 NA
HETATM   14  C12 UNL     1      28.402   8.294  47.801  1.00  0.00     0.176 A 
HETATM   15  C13 UNL     1      27.002   7.894  47.829  1.00  0.00     0.060 A 
HETATM   16  C14 UNL     1      26.760   6.659  48.249  1.00  0.00     0.073 A 
HETATM   17 CL1  UNL     1      25.131   6.042  48.344  1.00  0.00    -0.081 Cl
HETATM   18  C15 UNL     1      28.099   6.130  48.484  1.00  0.00     0.148 A 
HETATM   19  F1  UNL     1      28.217   4.839  48.928  1.00  0.00    -0.204 F 
HETATM   20  C16 UNL     1      29.085   7.011  48.222  1.00  0.00     0.071 A 
HETATM   21  N3  UNL     1      28.911   8.812  46.511  1.00  0.00    -0.355 N 
HETATM   22  C17 UNL     1      30.264   9.247  46.582  1.00  0.00     0.034 C 
HETATM   23  C18 UNL     1      30.615  10.397  47.239  1.00  0.00     0.023 C 
HETATM   24  C19 UNL     1      33.980   7.014  46.378  1.00  0.00     0.279 C 
HETATM   25  H14 UNL     1      28.293   8.838  45.648  1.00  0.00     0.163 HD
ENDROOT
BRANCH   9  26
HETATM   26  N1  UNL     1      30.422   5.663  47.280  1.00  0.00     0.110 N 
HETATM   27  H9  UNL     1      29.570   5.504  46.755  1.00  0.00     0.315 HD
HETATM   28  H10 UNL     1      30.814   4.750  47.459  1.00  0.00     0.315 HD
ENDBRANCH   9  26
BRANCH  24  29
HETATM   29  N4  UNL     1      34.177   6.231  45.172  1.00  0.00     0.089 N 
HETATM   30  H17 UNL     1      34.697   6.811  44.463  1.00  0.00     0.313 HD
HETATM   31  H18 UNL     1      33.229   6.062  44.760  1.00  0.00     0.313 HD
ENDBRANCH  24  29
BRANCH   1  32
HETATM   32  O1  UNL     1      34.542   8.648  44.673  1.00  0.00    -0.384 OA
HETATM   33  C1  UNL     1      35.565   9.610  44.768  1.00  0.00     0.202 C 
ENDBRANCH   1  32
TORSDOF 3
ENDMDL
MODEL 9
REMARK VINA RESULT:      -7.1      2.520      3.311
REMARK  3 active torsions:
REMARK  status: ('A' for Active; 'I' for Inactive)
REMARK    1  A    between atoms: O1_2  and  C2_3 
REMARK    2  A    between atoms: C9_11  and  N1_12 
REMARK    3  A    between atoms: C19_27  and  N4_28 
ROOT
HETATM    1  C2  UNL     1      25.463   2.012  51.740  1.00  0.00     0.181 C 
HETATM    2  C3  UNL     1      24.173   1.613  52.365  1.00  0.00     0.017 C 
HETATM    3  C4  UNL     1      23.051   2.313  52.299  1.00  0.00    -0.029 C 
HETATM    4  C5  UNL     1      23.453   3.609  51.701  1.00  0.00     0.077 C 
HETATM    5  C6  UNL     1      23.842   3.240  50.318  1.00  0.00    -0.037 C 
HETATM    6  C7  UNL     1      23.480   2.909  49.047  1.00  0.00     0.059 C 
HETATM    7  C8  UNL     1      22.045   2.737  48.426  1.00  0.00     0.203 C 
HETATM    8  O2  UNL     1      21.794   2.518  47.239  1.00  0.00    -0.289 OA
HETATM    9  C9  UNL     1      21.293   2.900  49.619  1.00  0.00     0.298 C 
HETATM   10  S1  UNL     1      22.034   1.443  50.271  1.00  0.00    -0.101 SA
HETATM   11  C10 UNL     1      21.456   0.218  51.307  1.00  0.00     0.115 C 
HETATM   12  C11 UNL     1      19.978   0.030  51.374  1.00  0.00     0.106 C 
HETATM   13  N2  UNL     1      19.319   1.064  51.224  1.00  0.00    -0.264 NA
HETATM   14  C12 UNL     1      19.535   2.427  51.560  1.00  0.00     0.176 A 
HETATM   15  C13 UNL     1      18.222   3.054  51.613  1.00  0.00     0.060 A 
HETATM   16  C14 UNL     1      17.905   3.825  50.580  1.00  0.00     0.073 A 
HETATM   17 CL1  UNL     1      16.363   4.636  50.500  1.00  0.00    -0.081 Cl
HETATM   18  C15 UNL     1      19.112   3.780  49.762  1.00  0.00     0.148 A 
HETATM   19  F1  UNL     1      19.129   4.494  48.592  1.00  0.00    -0.204 F 
HETATM   20  C16 UNL     1      20.093   3.014  50.281  1.00  0.00     0.071 A 
HETATM   21  N3  UNL     1      20.420   2.658  52.724  1.00  0.00    -0.355 N 
HETATM   22  C17 UNL     1      21.655   1.957  52.631  1.00  0.00     0.034 C 
HETATM   23  C18 UNL     1      21.722   0.597  52.786  1.00  0.00     0.023 C 
HETATM   24  C19 UNL     1      25.317   2.924  50.513  1.00  0.00     0.279 C 
HETATM   25  H14 UNL     1      20.121   3.289  53.524  1.00  0.00     0.163 HD
ENDROOT
BRANCH   9  26
HETATM   26  N1  UNL     1      21.719   4.293  49.821  1.00  0.00     0.110 N 
HETATM   27  H9  UNL     1      21.954   4.850  49.008  1.00  0.00     0.315 HD
HETATM   28  H10 UNL     1      22.442   4.474  50.502  1.00  0.00     0.315 HD
ENDBRANCH   9  26
BRANCH  24  29
HETATM   29  N4  UNL     1      25.933   4.190  50.869  1.00  0.00     0.089 N 
HETATM   30  H17 UNL     1      25.882   4.844  50.045  1.00  0.00     0.313 HD
HETATM   31  H18 UNL     1      26.952   4.002  51.020  1.00  0.00     0.313 HD
ENDBRANCH  24  29
BRANCH   1  32
HETATM   32  O1  UNL     1      26.344   2.518  52.675  1.00  0.00    -0.384 OA
HETATM   33  C1  UNL     1      26.330   1.613  53.752  1.00  0.00     0.202 C 
ENDBRANCH   1  32
TORSDOF 3
ENDMDL
