MODEL 1
REMARK VINA RESULT:      -8.8      0.000      0.000
REMARK  3 active torsions:
REMARK  status: ('A' for Active; 'I' for Inactive)
REMARK    1  A    between atoms: O1_2  and  C2_3 
REMARK    2  A    between atoms: O2_7  and  C6_8 
REMARK    3  A    between atoms: N1_11  and  S1_12 
ROOT
HETATM    1  C2  UNL     1      27.905   1.510  52.872  1.00  0.00     0.249 C 
HETATM    2  C3  UNL     1      26.738   2.032  52.015  1.00  0.00     0.054 C 
HETATM    3  C4  UNL     1      26.476   2.899  50.990  1.00  0.00     0.037 A 
HETATM    4  C5  UNL     1      24.976   2.668  50.867  1.00  0.00    -0.045 A 
HETATM    5  O2  UNL     1      25.451   3.536  50.086  1.00  0.00     0.000 OA
HETATM    6  C12 UNL     1      24.234   1.929  51.453  1.00  0.00     0.022 C 
HETATM    7  C13 UNL     1      23.466   0.981  52.247  1.00  0.00    -0.006 A 
HETATM    8  C14 UNL     1      22.234   0.805  51.742  1.00  0.00     0.057 A 
HETATM    9  C15 UNL     1      21.200   0.025  52.182  1.00  0.00     0.139 A 
HETATM   10  F1  UNL     1      20.006  -0.088  51.599  1.00  0.00    -0.204 F 
HETATM   11  C16 UNL     1      21.627  -0.635  53.341  1.00  0.00     0.074 A 
HETATM   12 CL1  UNL     1      20.426  -1.693  54.063  1.00  0.00    -0.081 Cl
HETATM   13  C17 UNL     1      22.847  -0.535  53.944  1.00  0.00     0.057 A 
HETATM   14  C18 UNL     1      23.795   0.268  53.420  1.00  0.00     0.045 A 
HETATM   15  N2  UNL     1      25.051   0.254  54.115  1.00  0.00    -0.350 N 
HETATM   16  C19 UNL     1      26.394  -0.152  53.683  1.00  0.00     0.204 C 
HETATM   17  N3  UNL     1      27.592   0.115  53.205  1.00  0.00    -0.253 NA
HETATM   18  H22 UNL     1      24.903   0.621  55.109  1.00  0.00     0.166 HD
ENDROOT
BRANCH   5  19
HETATM   19  C6  UNL     1      25.161   4.637  49.312  1.00  0.00    -0.007 C 
HETATM   20  C7  UNL     1      23.840   4.313  48.631  1.00  0.00     0.025 C 
HETATM   21  C8  UNL     1      23.035   5.487  48.207  1.00  0.00     0.135 C 
HETATM   22  N1  UNL     1      23.101   6.501  49.191  1.00  0.00    -0.311 N 
HETATM   23  C10 UNL     1      24.351   7.000  49.537  1.00  0.00     0.135 C 
HETATM   24  C11 UNL     1      25.100   5.844  50.211  1.00  0.00     0.025 C 
BRANCH  22  25
HETATM   25  S1  UNL     1      21.674   7.185  49.735  1.00  0.00     0.224 S 
HETATM   26  C9  UNL     1      21.538   8.919  49.364  1.00  0.00     0.186 C 
HETATM   27  O3  UNL     1      20.469   6.436  49.209  1.00  0.00    -0.206 OA
HETATM   28  O4  UNL     1      21.628   7.045  51.246  1.00  0.00    -0.206 OA
ENDBRANCH  22  25
ENDBRANCH   5  19
BRANCH   1  29
HETATM   29  O1  UNL     1      28.206   2.222  53.974  1.00  0.00    -0.369 OA
HETATM   30  C1  UNL     1      29.421   1.777  54.517  1.00  0.00     0.204 C 
ENDBRANCH   1  29
TORSDOF 3
ENDMDL
MODEL 2
REMARK VINA RESULT:      -8.8      3.454      5.292
REMARK  3 active torsions:
REMARK  status: ('A' for Active; 'I' for Inactive)
REMARK    1  A    between atoms: O1_2  and  C2_3 
REMARK    2  A    between atoms: O2_7  and  C6_8 
REMARK    3  A    between atoms: N1_11  and  S1_12 
ROOT
HETATM    1  C2  UNL     1      21.127   0.628  53.110  1.00  0.00     0.249 C 
HETATM    2  C3  UNL     1      22.095   1.753  52.703  1.00  0.00     0.054 C 
HETATM    3  C4  UNL     1      22.096   3.024  52.197  1.00  0.00     0.037 A 
HETATM    4  C5  UNL     1      23.599   3.267  52.180  1.00  0.00    -0.045 A 
HETATM    5  O2  UNL     1      22.897   4.210  51.724  1.00  0.00     0.000 OA
HETATM    6  C12 UNL     1      24.519   2.584  52.533  1.00  0.00     0.022 C 
HETATM    7  C13 UNL     1      25.524   1.642  53.005  1.00  0.00    -0.006 A 
HETATM    8  C14 UNL     1      26.729   2.226  53.113  1.00  0.00     0.057 A 
HETATM    9  C15 UNL     1      27.933   1.705  53.501  1.00  0.00     0.139 A 
HETATM   10  F1  UNL     1      29.082   2.377  53.584  1.00  0.00    -0.204 F 
HETATM   11  C16 UNL     1      27.736   0.352  53.802  1.00  0.00     0.074 A 
HETATM   12 CL1  UNL     1      29.181  -0.499  54.320  1.00  0.00    -0.081 Cl
HETATM   13  C17 UNL     1      26.566  -0.346  53.728  1.00  0.00     0.057 A 
HETATM   14  C18 UNL     1      25.435   0.272  53.332  1.00  0.00     0.045 A 
HETATM   15  N2  UNL     1      24.261  -0.554  53.340  1.00  0.00    -0.350 N 
HETATM   16  C19 UNL     1      23.010  -0.454  54.103  1.00  0.00     0.204 C 
HETATM   17  N3  UNL     1      21.754  -0.080  54.233  1.00  0.00    -0.253 NA
HETATM   18  H22 UNL     1      24.392  -1.353  52.641  1.00  0.00     0.166 HD
ENDROOT
BRANCH   5  19
HETATM   19  C6  UNL     1      22.892   5.322  50.912  1.00  0.00    -0.007 C 
HETATM   20  C7  UNL     1      23.882   6.288  51.546  1.00  0.00     0.025 C 
HETATM   21  C8  UNL     1      24.482   7.285  50.622  1.00  0.00     0.135 C 
HETATM   22  N1  UNL     1      24.774   6.679  49.378  1.00  0.00    -0.311 N 
HETATM   23  C10 UNL     1      23.730   6.087  48.675  1.00  0.00     0.135 C 
HETATM   24  C11 UNL     1      23.271   4.892  49.520  1.00  0.00     0.025 C 
BRANCH  22  25
HETATM   25  S1  UNL     1      26.301   6.880  48.726  1.00  0.00     0.224 S 
HETATM   26  C9  UNL     1      27.241   5.372  48.653  1.00  0.00     0.186 C 
HETATM   27  O3  UNL     1      26.235   7.528  47.360  1.00  0.00    -0.206 OA
HETATM   28  O4  UNL     1      27.070   7.845  49.611  1.00  0.00    -0.206 OA
ENDBRANCH  22  25
ENDBRANCH   5  19
BRANCH   1  29
HETATM   29  O1  UNL     1      20.754  -0.224  52.138  1.00  0.00    -0.369 OA
HETATM   30  C1  UNL     1      19.561   0.216  51.545  1.00  0.00     0.204 C 
ENDBRANCH   1  29
TORSDOF 3
ENDMDL
MODEL 3
REMARK VINA RESULT:      -8.8      3.462      7.072
REMARK  3 active torsions:
REMARK  status: ('A' for Active; 'I' for Inactive)
REMARK    1  A    between atoms: O1_2  and  C2_3 
REMARK    2  A    between atoms: O2_7  and  C6_8 
REMARK    3  A    between atoms: N1_11  and  S1_12 
ROOT
HETATM    1  C2  UNL     1      21.887   3.690  51.353  1.00  0.00     0.249 C 
HETATM    2  C3  UNL     1      22.178   2.367  52.083  1.00  0.00     0.054 C 
HETATM    3  C4  UNL     1      23.193   1.701  52.714  1.00  0.00     0.037 A 
HETATM    4  C5  UNL     1      22.433   0.443  53.111  1.00  0.00    -0.045 A 
HETATM    5  O2  UNL     1      23.655   0.454  53.423  1.00  0.00     0.000 OA
HETATM    6  C12 UNL     1      21.286   0.125  52.963  1.00  0.00     0.022 C 
HETATM    7  C13 UNL     1      19.873  -0.115  52.709  1.00  0.00    -0.006 A 
HETATM    8  C14 UNL     1      19.426  -1.177  53.399  1.00  0.00     0.057 A 
HETATM    9  C15 UNL     1      18.182  -1.748  53.437  1.00  0.00     0.139 A 
HETATM   10  F1  UNL     1      17.834  -2.806  54.168  1.00  0.00    -0.204 F 
HETATM   11  C16 UNL     1      17.350  -1.014  52.583  1.00  0.00     0.074 A 
HETATM   12 CL1  UNL     1      15.698  -1.601  52.493  1.00  0.00    -0.081 Cl
HETATM   13  C17 UNL     1      17.691   0.075  51.834  1.00  0.00     0.057 A 
HETATM   14  C18 UNL     1      18.951   0.554  51.875  1.00  0.00     0.045 A 
HETATM   15  N2  UNL     1      19.176   1.730  51.083  1.00  0.00    -0.350 N 
HETATM   16  C19 UNL     1      19.578   3.090  51.459  1.00  0.00     0.204 C 
HETATM   17  N3  UNL     1      20.486   4.028  51.636  1.00  0.00    -0.253 NA
HETATM   18  H22 UNL     1      19.008   1.493  50.053  1.00  0.00     0.166 HD
ENDROOT
BRANCH   5  19
HETATM   19  C6  UNL     1      24.747  -0.325  53.737  1.00  0.00    -0.007 C 
HETATM   20  C7  UNL     1      25.615  -0.322  52.488  1.00  0.00     0.025 C 
HETATM   21  C8  UNL     1      27.059  -0.590  52.713  1.00  0.00     0.135 C 
HETATM   22  N1  UNL     1      27.496   0.066  53.887  1.00  0.00    -0.311 N 
HETATM   23  C10 UNL     1      26.860  -0.238  55.085  1.00  0.00     0.135 C 
HETATM   24  C11 UNL     1      25.420   0.271  54.945  1.00  0.00     0.025 C 
BRANCH  22  25
HETATM   25  S1  UNL     1      28.875   1.011  53.812  1.00  0.00     0.224 S 
HETATM   26  C9  UNL     1      30.342   0.087  53.417  1.00  0.00     0.186 C 
HETATM   27  O3  UNL     1      28.701   2.164  52.848  1.00  0.00    -0.206 OA
HETATM   28  O4  UNL     1      29.094   1.637  55.178  1.00  0.00    -0.206 OA
ENDBRANCH  22  25
ENDBRANCH   5  19
BRANCH   1  29
HETATM   29  O1  UNL     1      22.142   3.716  50.032  1.00  0.00    -0.369 OA
HETATM   30  C1  UNL     1      23.503   3.980  49.810  1.00  0.00     0.204 C 
ENDBRANCH   1  29
TORSDOF 3
ENDMDL
MODEL 4
REMARK VINA RESULT:      -8.5      2.037      2.535
REMARK  3 active torsions:
REMARK  status: ('A' for Active; 'I' for Inactive)
REMARK    1  A    between atoms: O1_2  and  C2_3 
REMARK    2  A    between atoms: O2_7  and  C6_8 
REMARK    3  A    between atoms: N1_11  and  S1_12 
ROOT
HETATM    1  C2  UNL     1      27.195   1.738  52.562  1.00  0.00     0.249 C 
HETATM    2  C3  UNL     1      25.893   2.333  51.997  1.00  0.00     0.054 C 
HETATM    3  C4  UNL     1      25.448   3.353  51.201  1.00  0.00     0.037 A 
HETATM    4  C5  UNL     1      23.956   3.056  51.257  1.00  0.00    -0.045 A 
HETATM    5  O2  UNL     1      24.275   4.078  50.592  1.00  0.00     0.000 OA
HETATM    6  C12 UNL     1      23.338   2.180  51.795  1.00  0.00     0.022 C 
HETATM    7  C13 UNL     1      22.733   1.059  52.501  1.00  0.00    -0.006 A 
HETATM    8  C14 UNL     1      21.445   0.902  52.156  1.00  0.00     0.057 A 
HETATM    9  C15 UNL     1      20.518  -0.008  52.588  1.00  0.00     0.139 A 
HETATM   10  F1  UNL     1      19.253  -0.087  52.174  1.00  0.00    -0.204 F 
HETATM   11  C16 UNL     1      21.141  -0.838  53.527  1.00  0.00     0.074 A 
HETATM   12 CL1  UNL     1      20.101  -2.080  54.206  1.00  0.00    -0.081 Cl
HETATM   13  C17 UNL     1      22.435  -0.773  53.955  1.00  0.00     0.057 A 
HETATM   14  C18 UNL     1      23.263   0.168  53.458  1.00  0.00     0.045 A 
HETATM   15  N2  UNL     1      24.611   0.106  53.949  1.00  0.00    -0.350 N 
HETATM   16  C19 UNL     1      25.885  -0.132  53.258  1.00  0.00     0.204 C 
HETATM   17  N3  UNL     1      26.984   0.289  52.669  1.00  0.00    -0.253 NA
HETATM   18  H22 UNL     1      24.605   0.278  55.005  1.00  0.00     0.166 HD
ENDROOT
BRANCH   5  19
HETATM   19  C6  UNL     1      23.832   5.281  50.088  1.00  0.00    -0.007 C 
HETATM   20  C7  UNL     1      24.170   6.312  51.155  1.00  0.00     0.025 C 
HETATM   21  C8  UNL     1      24.323   7.707  50.669  1.00  0.00     0.135 C 
HETATM   22  N1  UNL     1      25.002   7.716  49.428  1.00  0.00    -0.311 N 
HETATM   23  C10 UNL     1      24.448   7.002  48.371  1.00  0.00     0.135 C 
HETATM   24  C11 UNL     1      24.521   5.524  48.771  1.00  0.00     0.025 C 
BRANCH  22  25
HETATM   25  S1  UNL     1      26.312   8.739  49.237  1.00  0.00     0.224 S 
HETATM   26  C9  UNL     1      26.218   9.739  47.770  1.00  0.00     0.186 C 
HETATM   27  O3  UNL     1      26.513   9.610  50.458  1.00  0.00    -0.206 OA
HETATM   28  O4  UNL     1      27.564   7.888  49.119  1.00  0.00    -0.206 OA
ENDBRANCH  22  25
ENDBRANCH   5  19
BRANCH   1  29
HETATM   29  O1  UNL     1      27.639   2.257  53.722  1.00  0.00    -0.369 OA
HETATM   30  C1  UNL     1      29.025   2.070  53.834  1.00  0.00     0.204 C 
ENDBRANCH   1  29
TORSDOF 3
ENDMDL
MODEL 5
REMARK VINA RESULT:      -8.4      4.019      6.104
REMARK  3 active torsions:
REMARK  status: ('A' for Active; 'I' for Inactive)
REMARK    1  A    between atoms: O1_2  and  C2_3 
REMARK    2  A    between atoms: O2_7  and  C6_8 
REMARK    3  A    between atoms: N1_11  and  S1_12 
ROOT
HETATM    1  C2  UNL     1      25.684   0.166  54.269  1.00  0.00     0.249 C 
HETATM    2  C3  UNL     1      24.561   0.545  53.288  1.00  0.00     0.054 C 
HETATM    3  C4  UNL     1      23.242   0.289  53.031  1.00  0.00     0.037 A 
HETATM    4  C5  UNL     1      23.061   1.195  51.820  1.00  0.00    -0.045 A 
HETATM    5  O2  UNL     1      22.044   0.525  52.146  1.00  0.00     0.000 OA
HETATM    6  C12 UNL     1      23.817   1.943  51.265  1.00  0.00     0.022 C 
HETATM    7  C13 UNL     1      24.847   2.806  50.705  1.00  0.00    -0.006 A 
HETATM    8  C14 UNL     1      24.329   3.674  49.821  1.00  0.00     0.057 A 
HETATM    9  C15 UNL     1      24.940   4.637  49.064  1.00  0.00     0.139 A 
HETATM   10  F1  UNL     1      24.330   5.462  48.213  1.00  0.00    -0.204 F 
HETATM   11  C16 UNL     1      26.309   4.603  49.354  1.00  0.00     0.074 A 
HETATM   12 CL1  UNL     1      27.272   5.775  48.470  1.00  0.00    -0.081 Cl
HETATM   13  C17 UNL     1      26.946   3.770  50.227  1.00  0.00     0.057 A 
HETATM   14  C18 UNL     1      26.240   2.855  50.924  1.00  0.00     0.045 A 
HETATM   15  N2  UNL     1      27.013   2.070  51.845  1.00  0.00    -0.350 N 
HETATM   16  C19 UNL     1      26.949   1.948  53.306  1.00  0.00     0.204 C 
HETATM   17  N3  UNL     1      26.541   1.351  54.407  1.00  0.00    -0.253 NA
HETATM   18  H22 UNL     1      27.732   1.499  51.296  1.00  0.00     0.166 HD
ENDROOT
BRANCH   5  19
HETATM   19  C6  UNL     1      20.848   0.003  51.707  1.00  0.00    -0.007 C 
HETATM   20  C7  UNL     1      19.888   0.157  52.877  1.00  0.00     0.025 C 
HETATM   21  C8  UNL     1      18.447   0.207  52.519  1.00  0.00     0.135 C 
HETATM   22  N1  UNL     1      18.266   0.970  51.343  1.00  0.00    -0.311 N 
HETATM   23  C10 UNL     1      18.932   0.569  50.190  1.00  0.00     0.135 C 
HETATM   24  C11 UNL     1      20.427   0.759  50.474  1.00  0.00     0.025 C 
BRANCH  22  25
HETATM   25  S1  UNL     1      17.113   2.183  51.342  1.00  0.00     0.224 S 
HETATM   26  C9  UNL     1      15.566   1.684  52.062  1.00  0.00     0.186 C 
HETATM   27  O3  UNL     1      17.631   3.435  52.017  1.00  0.00    -0.206 OA
HETATM   28  O4  UNL     1      16.833   2.569  49.901  1.00  0.00    -0.206 OA
ENDBRANCH  22  25
ENDBRANCH   5  19
BRANCH   1  29
HETATM   29  O1  UNL     1      26.405  -0.929  53.963  1.00  0.00    -0.369 OA
HETATM   30  C1  UNL     1      26.226  -1.260  52.611  1.00  0.00     0.204 C 
ENDBRANCH   1  29
TORSDOF 3
ENDMDL
MODEL 6
REMARK VINA RESULT:      -8.3      4.398      6.695
REMARK  3 active torsions:
REMARK  status: ('A' for Active; 'I' for Inactive)
REMARK    1  A    between atoms: O1_2  and  C2_3 
REMARK    2  A    between atoms: O2_7  and  C6_8 
REMARK    3  A    between atoms: N1_11  and  S1_12 
ROOT
HETATM    1  C2  UNL     1      22.479   5.960  50.110  1.00  0.00     0.249 C 
HETATM    2  C3  UNL     1      23.964   5.608  49.909  1.00  0.00     0.054 C 
HETATM    3  C4  UNL     1      25.109   6.107  49.351  1.00  0.00     0.037 A 
HETATM    4  C5  UNL     1      26.058   4.974  49.715  1.00  0.00    -0.045 A 
HETATM    5  O2  UNL     1      26.570   5.907  49.040  1.00  0.00     0.000 OA
HETATM    6  C12 UNL     1      25.888   3.961  50.335  1.00  0.00     0.022 C 
HETATM    7  C13 UNL     1      25.525   2.780  51.106  1.00  0.00    -0.006 A 
HETATM    8  C14 UNL     1      26.613   2.096  51.494  1.00  0.00     0.057 A 
HETATM    9  C15 UNL     1      26.720   0.936  52.213  1.00  0.00     0.139 A 
HETATM   10  F1  UNL     1      27.859   0.335  52.557  1.00  0.00    -0.204 F 
HETATM   11  C16 UNL     1      25.424   0.508  52.525  1.00  0.00     0.074 A 
HETATM   12 CL1  UNL     1      25.352  -0.982  53.452  1.00  0.00    -0.081 Cl
HETATM   13  C17 UNL     1      24.250   1.116  52.186  1.00  0.00     0.057 A 
HETATM   14  C18 UNL     1      24.265   2.261  51.474  1.00  0.00     0.045 A 
HETATM   15  N2  UNL     1      22.972   2.830  51.219  1.00  0.00    -0.350 N 
HETATM   16  C19 UNL     1      22.381   4.113  51.620  1.00  0.00     0.204 C 
HETATM   17  N3  UNL     1      22.079   5.375  51.396  1.00  0.00    -0.253 NA
HETATM   18  H22 UNL     1      22.402   2.147  50.625  1.00  0.00     0.166 HD
ENDROOT
BRANCH   5  19
HETATM   19  C6  UNL     1      27.601   6.254  48.194  1.00  0.00    -0.007 C 
HETATM   20  C7  UNL     1      28.107   7.593  48.708  1.00  0.00     0.025 C 
HETATM   21  C8  UNL     1      29.515   7.918  48.361  1.00  0.00     0.135 C 
HETATM   22  N1  UNL     1      30.321   6.761  48.470  1.00  0.00    -0.311 N 
HETATM   23  C10 UNL     1      29.985   5.652  47.702  1.00  0.00     0.135 C 
HETATM   24  C11 UNL     1      28.633   5.159  48.233  1.00  0.00     0.025 C 
BRANCH  22  25
HETATM   25  S1  UNL     1      31.739   6.851  49.353  1.00  0.00     0.224 S 
HETATM   26  C9  UNL     1      33.197   6.575  48.373  1.00  0.00     0.186 C 
HETATM   27  O3  UNL     1      31.843   8.165  50.096  1.00  0.00    -0.206 OA
HETATM   28  O4  UNL     1      31.704   5.769  50.418  1.00  0.00    -0.206 OA
ENDBRANCH  22  25
ENDBRANCH   5  19
BRANCH   1  29
HETATM   29  O1  UNL     1      21.638   5.601  49.123  1.00  0.00    -0.369 OA
HETATM   30  C1  UNL     1      21.466   6.666  48.226  1.00  0.00     0.204 C 
ENDBRANCH   1  29
TORSDOF 3
ENDMDL
MODEL 7
REMARK VINA RESULT:      -8.2      3.326      5.003
REMARK  3 active torsions:
REMARK  status: ('A' for Active; 'I' for Inactive)
REMARK    1  A    between atoms: O1_2  and  C2_3 
REMARK    2  A    between atoms: O2_7  and  C6_8 
REMARK    3  A    between atoms: N1_11  and  S1_12 
ROOT
HETATM    1  C2  UNL     1      21.427   0.716  52.913  1.00  0.00     0.249 C 
HETATM    2  C3  UNL     1      22.404   1.885  52.698  1.00  0.00     0.054 C 
HETATM    3  C4  UNL     1      22.417   3.213  52.371  1.00  0.00     0.037 A 
HETATM    4  C5  UNL     1      23.919   3.455  52.439  1.00  0.00    -0.045 A 
HETATM    5  O2  UNL     1      23.230   4.452  52.093  1.00  0.00     0.000 OA
HETATM    6  C12 UNL     1      24.830   2.729  52.725  1.00  0.00     0.022 C 
HETATM    7  C13 UNL     1      25.822   1.730  53.097  1.00  0.00    -0.006 A 
HETATM    8  C14 UNL     1      27.019   2.292  53.326  1.00  0.00     0.057 A 
HETATM    9  C15 UNL     1      28.212   1.722  53.679  1.00  0.00     0.139 A 
HETATM   10  F1  UNL     1      29.355   2.374  53.892  1.00  0.00    -0.204 F 
HETATM   11  C16 UNL     1      28.009   0.340  53.783  1.00  0.00     0.074 A 
HETATM   12 CL1  UNL     1      29.440  -0.576  54.229  1.00  0.00    -0.081 Cl
HETATM   13  C17 UNL     1      26.845  -0.340  53.575  1.00  0.00     0.057 A 
HETATM   14  C18 UNL     1      25.726   0.328  53.230  1.00  0.00     0.045 A 
HETATM   15  N2  UNL     1      24.555  -0.490  53.084  1.00  0.00    -0.350 N 
HETATM   16  C19 UNL     1      23.279  -0.495  53.811  1.00  0.00     0.204 C 
HETATM   17  N3  UNL     1      22.018  -0.141  53.949  1.00  0.00    -0.253 NA
HETATM   18  H22 UNL     1      24.713  -1.186  52.287  1.00  0.00     0.166 HD
ENDROOT
BRANCH   5  19
HETATM   19  C6  UNL     1      23.248   5.666  51.442  1.00  0.00    -0.007 C 
HETATM   20  C7  UNL     1      24.083   5.438  50.192  1.00  0.00     0.025 C 
HETATM   21  C8  UNL     1      23.811   6.366  49.064  1.00  0.00     0.135 C 
HETATM   22  N1  UNL     1      22.421   6.606  48.959  1.00  0.00    -0.311 N 
HETATM   23  C10 UNL     1      21.762   7.140  50.061  1.00  0.00     0.135 C 
HETATM   24  C11 UNL     1      21.825   6.069  51.156  1.00  0.00     0.025 C 
BRANCH  22  25
HETATM   25  S1  UNL     1      21.686   6.431  47.466  1.00  0.00     0.224 S 
HETATM   26  C9  UNL     1      19.955   6.037  47.575  1.00  0.00     0.186 C 
HETATM   27  O3  UNL     1      21.897   7.654  46.601  1.00  0.00    -0.206 OA
HETATM   28  O4  UNL     1      22.361   5.282  46.739  1.00  0.00    -0.206 OA
ENDBRANCH  22  25
ENDBRANCH   5  19
BRANCH   1  29
HETATM   29  O1  UNL     1      21.089   0.005  51.821  1.00  0.00    -0.369 OA
HETATM   30  C1  UNL     1      19.739   0.222  51.505  1.00  0.00     0.204 C 
ENDBRANCH   1  29
TORSDOF 3
ENDMDL
MODEL 8
REMARK VINA RESULT:      -8.0      3.608      4.750
REMARK  3 active torsions:
REMARK  status: ('A' for Active; 'I' for Inactive)
REMARK    1  A    between atoms: O1_2  and  C2_3 
REMARK    2  A    between atoms: O2_7  and  C6_8 
REMARK    3  A    between atoms: N1_11  and  S1_12 
ROOT
HETATM    1  C2  UNL     1      25.842   4.528  49.321  1.00  0.00     0.249 C 
HETATM    2  C3  UNL     1      24.446   3.900  49.485  1.00  0.00     0.054 C 
HETATM    3  C4  UNL     1      23.199   3.921  48.924  1.00  0.00     0.037 A 
HETATM    4  C5  UNL     1      22.517   2.910  49.836  1.00  0.00    -0.045 A 
HETATM    5  O2  UNL     1      21.774   3.430  48.961  1.00  0.00     0.000 OA
HETATM    6  C12 UNL     1      22.934   2.254  50.749  1.00  0.00     0.022 C 
HETATM    7  C13 UNL     1      23.586   1.528  51.829  1.00  0.00    -0.006 A 
HETATM    8  C14 UNL     1      22.816   0.524  52.279  1.00  0.00     0.057 A 
HETATM    9  C15 UNL     1      23.038  -0.382  53.280  1.00  0.00     0.139 A 
HETATM   10  F1  UNL     1      22.205  -1.356  53.648  1.00  0.00    -0.204 F 
HETATM   11  C16 UNL     1      24.295  -0.107  53.833  1.00  0.00     0.074 A 
HETATM   12 CL1  UNL     1      24.762  -1.172  55.149  1.00  0.00    -0.081 Cl
HETATM   13  C17 UNL     1      25.160   0.881  53.462  1.00  0.00     0.057 A 
HETATM   14  C18 UNL     1      24.836   1.720  52.457  1.00  0.00     0.045 A 
HETATM   15  N2  UNL     1      25.845   2.686  52.127  1.00  0.00    -0.350 N 
HETATM   16  C19 UNL     1      26.612   2.905  50.895  1.00  0.00     0.204 C 
HETATM   17  N3  UNL     1      26.813   3.509  49.742  1.00  0.00    -0.253 NA
HETATM   18  H22 UNL     1      26.007   3.322  52.972  1.00  0.00     0.166 HD
ENDROOT
BRANCH   5  19
HETATM   19  C6  UNL     1      20.473   3.719  48.610  1.00  0.00    -0.007 C 
HETATM   20  C7  UNL     1      19.748   2.382  48.622  1.00  0.00     0.025 C 
HETATM   21  C8  UNL     1      18.279   2.454  48.835  1.00  0.00     0.135 C 
HETATM   22  N1  UNL     1      17.978   3.438  49.806  1.00  0.00    -0.311 N 
HETATM   23  C10 UNL     1      18.394   4.743  49.570  1.00  0.00     0.135 C 
HETATM   24  C11 UNL     1      19.928   4.714  49.601  1.00  0.00     0.025 C 
BRANCH  22  25
HETATM   25  S1  UNL     1      16.971   3.028  51.078  1.00  0.00     0.224 S 
HETATM   26  C9  UNL     1      15.244   3.133  50.671  1.00  0.00     0.186 C 
HETATM   27  O3  UNL     1      17.303   1.656  51.624  1.00  0.00    -0.206 OA
HETATM   28  O4  UNL     1      17.223   4.003  52.215  1.00  0.00    -0.206 OA
ENDBRANCH  22  25
ENDBRANCH   5  19
BRANCH   1  29
HETATM   29  O1  UNL     1      26.052   5.698  49.952  1.00  0.00    -0.369 OA
HETATM   30  C1  UNL     1      25.972   6.758  49.036  1.00  0.00     0.204 C 
ENDBRANCH   1  29
TORSDOF 3
ENDMDL
MODEL 9
REMARK VINA RESULT:      -7.9      4.254      8.226
REMARK  3 active torsions:
REMARK  status: ('A' for Active; 'I' for Inactive)
REMARK    1  A    between atoms: O1_2  and  C2_3 
REMARK    2  A    between atoms: O2_7  and  C6_8 
REMARK    3  A    between atoms: N1_11  and  S1_12 
ROOT
HETATM    1  C2  UNL     1      20.662   1.812  48.888  1.00  0.00     0.249 C 
HETATM    2  C3  UNL     1      21.949   2.025  49.706  1.00  0.00     0.054 C 
HETATM    3  C4  UNL     1      22.681   1.447  50.707  1.00  0.00     0.037 A 
HETATM    4  C5  UNL     1      23.816   2.459  50.778  1.00  0.00    -0.045 A 
HETATM    5  O2  UNL     1      23.881   1.519  51.615  1.00  0.00     0.000 OA
HETATM    6  C12 UNL     1      24.043   3.447  50.137  1.00  0.00     0.022 C 
HETATM    7  C13 UNL     1      24.181   4.612  49.275  1.00  0.00    -0.006 A 
HETATM    8  C14 UNL     1      25.401   5.163  49.389  1.00  0.00     0.057 A 
HETATM    9  C15 UNL     1      25.935   6.264  48.777  1.00  0.00     0.139 A 
HETATM   10  F1  UNL     1      27.172   6.729  48.952  1.00  0.00    -0.204 F 
HETATM   11  C16 UNL     1      24.955   6.800  47.933  1.00  0.00     0.074 A 
HETATM   12 CL1  UNL     1      25.455   8.236  47.054  1.00  0.00    -0.081 Cl
HETATM   13  C17 UNL     1      23.689   6.332  47.738  1.00  0.00     0.057 A 
HETATM   14  C18 UNL     1      23.267   5.233  48.397  1.00  0.00     0.045 A 
HETATM   15  N2  UNL     1      21.934   4.810  48.074  1.00  0.00    -0.350 N 
HETATM   16  C19 UNL     1      21.430   3.571  47.468  1.00  0.00     0.204 C 
HETATM   17  N3  UNL     1      20.919   2.360  47.550  1.00  0.00    -0.253 NA
HETATM   18  H22 UNL     1      21.246   5.578  48.359  1.00  0.00     0.166 HD
ENDROOT
BRANCH   5  19
HETATM   19  C6  UNL     1      24.404   1.119  52.826  1.00  0.00    -0.007 C 
HETATM   20  C7  UNL     1      25.275  -0.087  52.507  1.00  0.00     0.025 C 
HETATM   21  C8  UNL     1      26.365  -0.362  53.480  1.00  0.00     0.135 C 
HETATM   22  N1  UNL     1      26.954   0.852  53.903  1.00  0.00    -0.311 N 
HETATM   23  C10 UNL     1      26.138   1.804  54.503  1.00  0.00     0.135 C 
HETATM   24  C11 UNL     1      25.164   2.277  53.417  1.00  0.00     0.025 C 
BRANCH  22  25
HETATM   25  S1  UNL     1      28.620   0.998  53.848  1.00  0.00     0.224 S 
HETATM   26  C9  UNL     1      29.446  -0.520  53.432  1.00  0.00     0.186 C 
HETATM   27  O3  UNL     1      29.045   2.106  52.909  1.00  0.00    -0.206 OA
HETATM   28  O4  UNL     1      29.105   1.409  55.227  1.00  0.00    -0.206 OA
ENDBRANCH  22  25
ENDBRANCH   5  19
BRANCH   1  29
HETATM   29  O1  UNL     1      19.527   2.307  49.413  1.00  0.00    -0.369 OA
HETATM   30  C1  UNL     1      19.824   3.129  50.511  1.00  0.00     0.204 C 
ENDBRANCH   1  29
TORSDOF 3
ENDMDL
