MODEL 1
REMARK VINA RESULT:     -10.7      0.000      0.000
REMARK  3 active torsions:
REMARK  status: ('A' for Active; 'I' for Inactive)
REMARK    1  A    between atoms: C3_5  and  C4_6 
REMARK    2  A    between atoms: C13_18  and  N3_19 
REMARK    3  A    between atoms: N3_19  and  C14_20 
ROOT
HETATM    1  C1  UNL     1      23.204   1.452  51.215  1.00  0.00     0.161 C 
HETATM    2  N1  UNL     1      23.882   0.713  52.272  1.00  0.00    -0.301 N 
HETATM    3  C2  UNL     1      25.218   0.684  52.302  1.00  0.00     0.260 A 
HETATM    4  O1  UNL     1      25.942   1.273  51.446  1.00  0.00    -0.267 OA
HETATM    5  C3  UNL     1      25.932   0.008  53.268  1.00  0.00     0.047 A 
HETATM    6  C10 UNL     1      25.199  -0.662  54.243  1.00  0.00     0.034 A 
HETATM    7  C11 UNL     1      23.817  -0.629  54.209  1.00  0.00     0.030 A 
HETATM    8  C12 UNL     1      23.043  -1.277  55.150  1.00  0.00     0.151 A 
HETATM    9  N2  UNL     1      21.698  -1.223  55.086  1.00  0.00    -0.074 NA
HETATM   10  C13 UNL     1      21.045  -0.546  54.118  1.00  0.00     0.728 A 
HETATM   11  N4  UNL     1      21.787   0.098  53.182  1.00  0.00    -0.044 NA
HETATM   12  C21 UNL     1      23.145   0.072  53.204  1.00  0.00     0.163 A 
ENDROOT
BRANCH  10  13
HETATM   13  N3  UNL     1      19.624  -0.527  54.105  1.00  0.00    -0.188 N 
HETATM   14  H9  UNL     1      19.338  -0.347  55.089  1.00  0.00     0.184 HD
BRANCH  13  15
HETATM   15  C14 UNL     1      18.722  -0.703  53.045  1.00  0.00     0.052 C 
HETATM   16  C15 UNL     1      18.873   0.102  52.006  1.00  0.00     0.072 C 
HETATM   17  C16 UNL     1      18.018   0.050  50.823  1.00  0.00     0.115 C 
HETATM   18  F1  UNL     1      18.543   0.654  49.718  1.00  0.00    -0.206 F 
HETATM   19  C17 UNL     1      16.818  -0.495  50.672  1.00  0.00     0.019 C 
HETATM   20  C18 UNL     1      15.927  -1.221  51.588  1.00  0.00     0.057 C 
HETATM   21  C19 UNL     1      16.590  -1.960  52.662  1.00  0.00    -0.021 C 
HETATM   22  C20 UNL     1      17.760  -1.772  53.295  1.00  0.00     0.026 C 
ENDBRANCH  13  15
ENDBRANCH  10  13
BRANCH   5  23
HETATM   23  C4  UNL     1      27.373  -0.080  53.382  1.00  0.00     0.023 A 
HETATM   24  C5  UNL     1      28.165   0.972  53.816  1.00  0.00     0.046 A 
HETATM   25 CL1  UNL     1      27.346   2.458  54.235  1.00  0.00    -0.083 Cl
HETATM   26  C6  UNL     1      29.555   0.834  53.908  1.00  0.00     0.025 A 
HETATM   27  C7  UNL     1      30.167  -0.360  53.566  1.00  0.00     0.003 A 
HETATM   28  C8  UNL     1      29.371  -1.402  53.136  1.00  0.00     0.025 A 
HETATM   29  C9  UNL     1      27.997  -1.272  53.043  1.00  0.00     0.046 A 
HETATM   30 CL2  UNL     1      27.142  -2.674  52.485  1.00  0.00    -0.083 Cl
ENDBRANCH   5  23
TORSDOF 3
ENDMDL
MODEL 2
REMARK VINA RESULT:     -10.0      0.945      2.002
REMARK  3 active torsions:
REMARK  status: ('A' for Active; 'I' for Inactive)
REMARK    1  A    between atoms: C3_5  and  C4_6 
REMARK    2  A    between atoms: C13_18  and  N3_19 
REMARK    3  A    between atoms: N3_19  and  C14_20 
ROOT
HETATM    1  C1  UNL     1      24.024   2.410  50.526  1.00  0.00     0.161 C 
HETATM    2  N1  UNL     1      24.375   1.478  51.589  1.00  0.00    -0.301 N 
HETATM    3  C2  UNL     1      25.661   1.184  51.808  1.00  0.00     0.260 A 
HETATM    4  O1  UNL     1      26.609   1.679  51.129  1.00  0.00    -0.267 OA
HETATM    5  C3  UNL     1      26.074   0.313  52.793  1.00  0.00     0.047 A 
HETATM    6  C10 UNL     1      25.083  -0.268  53.578  1.00  0.00     0.034 A 
HETATM    7  C11 UNL     1      23.754   0.038  53.349  1.00  0.00     0.030 A 
HETATM    8  C12 UNL     1      22.734  -0.511  54.098  1.00  0.00     0.151 A 
HETATM    9  N2  UNL     1      21.449  -0.188  53.846  1.00  0.00    -0.074 NA
HETATM   10  C13 UNL     1      21.096   0.672  52.868  1.00  0.00     0.728 A 
HETATM   11  N4  UNL     1      22.085   1.223  52.119  1.00  0.00    -0.044 NA
HETATM   12  C21 UNL     1      23.393   0.929  52.334  1.00  0.00     0.163 A 
ENDROOT
BRANCH  10  13
HETATM   13  N3  UNL     1      19.724   0.971  52.652  1.00  0.00    -0.188 N 
HETATM   14  H9  UNL     1      19.613   1.975  52.904  1.00  0.00     0.184 HD
BRANCH  13  15
HETATM   15  C14 UNL     1      18.675   0.155  52.200  1.00  0.00     0.052 C 
HETATM   16  C15 UNL     1      18.103   0.512  51.062  1.00  0.00     0.072 C 
HETATM   17  C16 UNL     1      16.999  -0.229  50.456  1.00  0.00     0.115 C 
HETATM   18  F1  UNL     1      16.802   0.032  49.131  1.00  0.00    -0.206 F 
HETATM   19  C17 UNL     1      16.171  -1.109  51.005  1.00  0.00     0.019 C 
HETATM   20  C18 UNL     1      16.047  -1.652  52.364  1.00  0.00     0.057 C 
HETATM   21  C19 UNL     1      17.286  -1.705  53.139  1.00  0.00    -0.021 C 
HETATM   22  C20 UNL     1      18.406  -0.964  53.097  1.00  0.00     0.026 C 
ENDBRANCH  13  15
ENDBRANCH  10  13
BRANCH   5  23
HETATM   23  C4  UNL     1      27.437  -0.065  53.104  1.00  0.00     0.023 A 
HETATM   24  C5  UNL     1      27.941  -1.337  52.876  1.00  0.00     0.046 A 
HETATM   25 CL1  UNL     1      26.846  -2.509  52.180  1.00  0.00    -0.083 Cl
HETATM   26  C6  UNL     1      29.267  -1.652  53.195  1.00  0.00     0.025 A 
HETATM   27  C7  UNL     1      30.103  -0.696  53.746  1.00  0.00     0.003 A 
HETATM   28  C8  UNL     1      29.593   0.567  53.968  1.00  0.00     0.025 A 
HETATM   29  C9  UNL     1      28.285   0.885  53.655  1.00  0.00     0.046 A 
HETATM   30 CL2  UNL     1      27.800   2.514  53.997  1.00  0.00    -0.083 Cl
ENDBRANCH   5  23
TORSDOF 3
ENDMDL
MODEL 3
REMARK VINA RESULT:     -10.0      1.369      2.886
REMARK  3 active torsions:
REMARK  status: ('A' for Active; 'I' for Inactive)
REMARK    1  A    between atoms: C3_5  and  C4_6 
REMARK    2  A    between atoms: C13_18  and  N3_19 
REMARK    3  A    between atoms: N3_19  and  C14_20 
ROOT
HETATM    1  C1  UNL     1      22.648  -0.968  54.854  1.00  0.00     0.161 C 
HETATM    2  N1  UNL     1      23.575  -0.359  53.910  1.00  0.00    -0.301 N 
HETATM    3  C2  UNL     1      24.890  -0.524  54.079  1.00  0.00     0.260 A 
HETATM    4  O1  UNL     1      25.386  -1.193  55.034  1.00  0.00    -0.267 OA
HETATM    5  C3  UNL     1      25.830   0.018  53.231  1.00  0.00     0.047 A 
HETATM    6  C10 UNL     1      25.356   0.767  52.158  1.00  0.00     0.034 A 
HETATM    7  C11 UNL     1      23.994   0.936  51.984  1.00  0.00     0.030 A 
HETATM    8  C12 UNL     1      23.472   1.668  50.938  1.00  0.00     0.151 A 
HETATM    9  N2  UNL     1      22.138   1.811  50.801  1.00  0.00    -0.074 NA
HETATM   10  C13 UNL     1      21.258   1.257  51.661  1.00  0.00     0.728 A 
HETATM   11  N4  UNL     1      21.751   0.533  52.697  1.00  0.00    -0.044 NA
HETATM   12  C21 UNL     1      23.085   0.362  52.878  1.00  0.00     0.163 A 
ENDROOT
BRANCH  10  13
HETATM   13  N3  UNL     1      19.863   1.445  51.462  1.00  0.00    -0.188 N 
HETATM   14  H9  UNL     1      19.733   2.470  51.341  1.00  0.00     0.184 HD
BRANCH  13  15
HETATM   15  C14 UNL     1      18.816   0.511  51.421  1.00  0.00     0.052 C 
HETATM   16  C15 UNL     1      18.028   0.560  50.360  1.00  0.00     0.072 C 
HETATM   17  C16 UNL     1      16.894  -0.341  50.165  1.00  0.00     0.115 C 
HETATM   18  F1  UNL     1      16.447  -0.419  48.878  1.00  0.00    -0.206 F 
HETATM   19  C17 UNL     1      16.244  -1.084  51.051  1.00  0.00     0.019 C 
HETATM   20  C18 UNL     1      16.402  -1.282  52.498  1.00  0.00     0.057 C 
HETATM   21  C19 UNL     1      17.759  -1.104  53.016  1.00  0.00    -0.021 C 
HETATM   22  C20 UNL     1      18.795  -0.362  52.590  1.00  0.00     0.026 C 
ENDBRANCH  13  15
ENDBRANCH  10  13
BRANCH   5  23
HETATM   23  C4  UNL     1      27.270  -0.105  53.333  1.00  0.00     0.023 A 
HETATM   24  C5  UNL     1      27.957  -1.261  52.997  1.00  0.00     0.046 A 
HETATM   25 CL1  UNL     1      27.003  -2.611  52.426  1.00  0.00    -0.083 Cl
HETATM   26  C6  UNL     1      29.350  -1.330  53.114  1.00  0.00     0.025 A 
HETATM   27  C7  UNL     1      30.071  -0.239  53.571  1.00  0.00     0.003 A 
HETATM   28  C8  UNL     1      29.379   0.908  53.903  1.00  0.00     0.025 A 
HETATM   29  C9  UNL     1      28.003   0.982  53.789  1.00  0.00     0.046 A 
HETATM   30 CL2  UNL     1      27.286   2.493  54.247  1.00  0.00    -0.083 Cl
ENDBRANCH   5  23
TORSDOF 3
ENDMDL
MODEL 4
REMARK VINA RESULT:      -9.6      1.531      1.894
REMARK  3 active torsions:
REMARK  status: ('A' for Active; 'I' for Inactive)
REMARK    1  A    between atoms: C3_5  and  C4_6 
REMARK    2  A    between atoms: C13_18  and  N3_19 
REMARK    3  A    between atoms: N3_19  and  C14_20 
ROOT
HETATM    1  C1  UNL     1      24.198   2.672  50.495  1.00  0.00     0.161 C 
HETATM    2  N1  UNL     1      24.498   1.727  51.563  1.00  0.00    -0.301 N 
HETATM    3  C2  UNL     1      25.765   1.358  51.778  1.00  0.00     0.260 A 
HETATM    4  O1  UNL     1      26.737   1.791  51.091  1.00  0.00    -0.267 OA
HETATM    5  C3  UNL     1      26.131   0.472  52.767  1.00  0.00     0.047 A 
HETATM    6  C10 UNL     1      25.111  -0.044  53.562  1.00  0.00     0.034 A 
HETATM    7  C11 UNL     1      23.802   0.340  53.338  1.00  0.00     0.030 A 
HETATM    8  C12 UNL     1      22.754  -0.141  54.096  1.00  0.00     0.151 A 
HETATM    9  N2  UNL     1      21.490   0.256  53.848  1.00  0.00    -0.074 NA
HETATM   10  C13 UNL     1      21.184   1.129  52.866  1.00  0.00     0.728 A 
HETATM   11  N4  UNL     1      22.199   1.615  52.108  1.00  0.00    -0.044 NA
HETATM   12  C21 UNL     1      23.489   1.244  52.318  1.00  0.00     0.163 A 
ENDROOT
BRANCH  10  13
HETATM   13  N3  UNL     1      19.830   1.508  52.654  1.00  0.00    -0.188 N 
HETATM   14  H9  UNL     1      19.487   1.843  53.578  1.00  0.00     0.184 HD
BRANCH  13  15
HETATM   15  C14 UNL     1      19.047   1.474  51.491  1.00  0.00     0.052 C 
HETATM   16  C15 UNL     1      18.945   2.608  50.819  1.00  0.00     0.072 C 
HETATM   17  C16 UNL     1      18.168   2.741  49.589  1.00  0.00     0.115 C 
HETATM   18  F1  UNL     1      18.485   3.833  48.833  1.00  0.00    -0.206 F 
HETATM   19  C17 UNL     1      17.209   1.960  49.107  1.00  0.00     0.019 C 
HETATM   20  C18 UNL     1      16.587   0.723  49.597  1.00  0.00     0.057 C 
HETATM   21  C19 UNL     1      17.439  -0.126  50.430  1.00  0.00    -0.021 C 
HETATM   22  C20 UNL     1      18.477   0.155  51.235  1.00  0.00     0.026 C 
ENDBRANCH  13  15
ENDBRANCH  10  13
BRANCH   5  23
HETATM   23  C4  UNL     1      27.470   0.014  53.074  1.00  0.00     0.023 A 
HETATM   24  C5  UNL     1      28.443   0.834  53.625  1.00  0.00     0.046 A 
HETATM   25 CL1  UNL     1      27.991   2.491  53.949  1.00  0.00    -0.083 Cl
HETATM   26  C6  UNL     1      29.724   0.342  53.902  1.00  0.00     0.025 A 
HETATM   27  C7  UNL     1      30.044  -0.978  53.631  1.00  0.00     0.003 A 
HETATM   28  C8  UNL     1      29.069  -1.786  53.083  1.00  0.00     0.025 A 
HETATM   29  C9  UNL     1      27.802  -1.307  52.807  1.00  0.00     0.046 A 
HETATM   30 CL2  UNL     1      26.694  -2.450  52.120  1.00  0.00    -0.083 Cl
ENDBRANCH   5  23
TORSDOF 3
ENDMDL
MODEL 5
REMARK VINA RESULT:      -9.3      6.313      9.840
REMARK  3 active torsions:
REMARK  status: ('A' for Active; 'I' for Inactive)
REMARK    1  A    between atoms: C3_5  and  C4_6 
REMARK    2  A    between atoms: C13_18  and  N3_19 
REMARK    3  A    between atoms: N3_19  and  C14_20 
ROOT
HETATM    1  C1  UNL     1      23.039   5.584  51.670  1.00  0.00     0.161 C 
HETATM    2  N1  UNL     1      24.050   5.785  50.641  1.00  0.00    -0.301 N 
HETATM    3  C2  UNL     1      24.047   6.916  49.929  1.00  0.00     0.260 A 
HETATM    4  O1  UNL     1      23.197   7.839  50.100  1.00  0.00    -0.267 OA
HETATM    5  C3  UNL     1      24.969   7.182  48.940  1.00  0.00     0.047 A 
HETATM    6  C10 UNL     1      25.934   6.209  48.698  1.00  0.00     0.034 A 
HETATM    7  C11 UNL     1      25.935   5.041  49.437  1.00  0.00     0.030 A 
HETATM    8  C12 UNL     1      26.869   4.046  49.237  1.00  0.00     0.151 A 
HETATM    9  N2  UNL     1      26.839   2.919  49.978  1.00  0.00    -0.074 NA
HETATM   10  C13 UNL     1      25.914   2.707  50.936  1.00  0.00     0.728 A 
HETATM   11  N4  UNL     1      24.986   3.674  51.150  1.00  0.00    -0.044 NA
HETATM   12  C21 UNL     1      24.974   4.824  50.429  1.00  0.00     0.163 A 
ENDROOT
BRANCH  10  13
HETATM   13  N3  UNL     1      25.936   1.498  51.683  1.00  0.00    -0.188 N 
HETATM   14  H9  UNL     1      24.999   1.067  51.545  1.00  0.00     0.184 HD
BRANCH  13  15
HETATM   15  C14 UNL     1      26.953   0.930  52.465  1.00  0.00     0.052 C 
HETATM   16  C15 UNL     1      27.826   1.772  52.994  1.00  0.00     0.072 C 
HETATM   17  C16 UNL     1      28.944   1.343  53.831  1.00  0.00     0.115 C 
HETATM   18  F1  UNL     1      29.490   2.333  54.597  1.00  0.00    -0.206 F 
HETATM   19  C17 UNL     1      29.497   0.143  53.952  1.00  0.00     0.019 C 
HETATM   20  C18 UNL     1      29.216  -1.155  53.323  1.00  0.00     0.057 C 
HETATM   21  C19 UNL     1      27.828  -1.373  52.916  1.00  0.00    -0.021 C 
HETATM   22  C20 UNL     1      26.853  -0.523  52.550  1.00  0.00     0.026 C 
ENDBRANCH  13  15
ENDBRANCH  10  13
BRANCH   5  23
HETATM   23  C4  UNL     1      25.044   8.372  48.118  1.00  0.00     0.023 A 
HETATM   24  C5  UNL     1      24.352   8.515  46.925  1.00  0.00     0.046 A 
HETATM   25 CL1  UNL     1      23.352   7.172  46.425  1.00  0.00    -0.083 Cl
HETATM   26  C6  UNL     1      24.460   9.688  46.168  1.00  0.00     0.025 A 
HETATM   27  C7  UNL     1      25.263  10.731  46.597  1.00  0.00     0.003 A 
HETATM   28  C8  UNL     1      25.948  10.579  47.786  1.00  0.00     0.025 A 
HETATM   29  C9  UNL     1      25.846   9.424  48.539  1.00  0.00     0.046 A 
HETATM   30 CL2  UNL     1      26.770   9.394  50.005  1.00  0.00    -0.083 Cl
ENDBRANCH   5  23
TORSDOF 3
ENDMDL
MODEL 6
REMARK VINA RESULT:      -9.3      2.027      3.198
REMARK  3 active torsions:
REMARK  status: ('A' for Active; 'I' for Inactive)
REMARK    1  A    between atoms: C3_5  and  C4_6 
REMARK    2  A    between atoms: C13_18  and  N3_19 
REMARK    3  A    between atoms: N3_19  and  C14_20 
ROOT
HETATM    1  C1  UNL     1      22.477   0.017  53.993  1.00  0.00     0.161 C 
HETATM    2  N1  UNL     1      23.626   0.474  53.224  1.00  0.00    -0.301 N 
HETATM    3  C2  UNL     1      24.847   0.029  53.538  1.00  0.00     0.260 A 
HETATM    4  O1  UNL     1      25.065  -0.782  54.487  1.00  0.00    -0.267 OA
HETATM    5  C3  UNL     1      25.983   0.413  52.860  1.00  0.00     0.047 A 
HETATM    6  C10 UNL     1      25.817   1.304  51.803  1.00  0.00     0.034 A 
HETATM    7  C11 UNL     1      24.553   1.761  51.480  1.00  0.00     0.030 A 
HETATM    8  C12 UNL     1      24.334   2.645  50.443  1.00  0.00     0.151 A 
HETATM    9  N2  UNL     1      23.087   3.069  50.157  1.00  0.00    -0.074 NA
HETATM   10  C13 UNL     1      22.005   2.662  50.852  1.00  0.00     0.728 A 
HETATM   11  N4  UNL     1      22.198   1.793  51.877  1.00  0.00    -0.044 NA
HETATM   12  C21 UNL     1      23.435   1.338  52.204  1.00  0.00     0.163 A 
ENDROOT
BRANCH  10  13
HETATM   13  N3  UNL     1      20.716   3.146  50.501  1.00  0.00    -0.188 N 
HETATM   14  H9  UNL     1      20.876   4.082  50.074  1.00  0.00     0.184 HD
BRANCH  13  15
HETATM   15  C14 UNL     1      19.451   2.560  50.658  1.00  0.00     0.052 C 
HETATM   16  C15 UNL     1      18.568   3.250  51.362  1.00  0.00     0.072 C 
HETATM   17  C16 UNL     1      17.208   2.782  51.618  1.00  0.00     0.115 C 
HETATM   18  F1  UNL     1      16.336   3.758  52.002  1.00  0.00    -0.206 F 
HETATM   19  C17 UNL     1      16.707   1.556  51.531  1.00  0.00     0.019 C 
HETATM   20  C18 UNL     1      17.293   0.260  51.164  1.00  0.00     0.057 C 
HETATM   21  C19 UNL     1      18.421   0.317  50.234  1.00  0.00    -0.021 C 
HETATM   22  C20 UNL     1      19.345   1.264  49.996  1.00  0.00     0.026 C 
ENDBRANCH  13  15
ENDBRANCH  10  13
BRANCH   5  23
HETATM   23  C4  UNL     1      27.341  -0.012  53.126  1.00  0.00     0.023 A 
HETATM   24  C5  UNL     1      28.300   0.819  53.686  1.00  0.00     0.046 A 
HETATM   25 CL1  UNL     1      27.804   2.450  54.073  1.00  0.00    -0.083 Cl
HETATM   26  C6  UNL     1      29.600   0.358  53.924  1.00  0.00     0.025 A 
HETATM   27  C7  UNL     1      29.955  -0.941  53.603  1.00  0.00     0.003 A 
HETATM   28  C8  UNL     1      28.995  -1.761  53.047  1.00  0.00     0.025 A 
HETATM   29  C9  UNL     1      27.708  -1.313  52.810  1.00  0.00     0.046 A 
HETATM   30 CL2  UNL     1      26.623  -2.467  52.106  1.00  0.00    -0.083 Cl
ENDBRANCH   5  23
TORSDOF 3
ENDMDL
MODEL 7
REMARK VINA RESULT:      -9.3      6.831     10.608
REMARK  3 active torsions:
REMARK  status: ('A' for Active; 'I' for Inactive)
REMARK    1  A    between atoms: C3_5  and  C4_6 
REMARK    2  A    between atoms: C13_18  and  N3_19 
REMARK    3  A    between atoms: N3_19  and  C14_20 
ROOT
HETATM    1  C1  UNL     1      23.651   6.799  51.018  1.00  0.00     0.161 C 
HETATM    2  N1  UNL     1      24.248   5.485  50.823  1.00  0.00    -0.301 N 
HETATM    3  C2  UNL     1      23.691   4.417  51.401  1.00  0.00     0.260 A 
HETATM    4  O1  UNL     1      22.653   4.484  52.124  1.00  0.00    -0.267 OA
HETATM    5  C3  UNL     1      24.194   3.141  51.264  1.00  0.00     0.047 A 
HETATM    6  C10 UNL     1      25.335   2.993  50.481  1.00  0.00     0.034 A 
HETATM    7  C11 UNL     1      25.909   4.100  49.883  1.00  0.00     0.030 A 
HETATM    8  C12 UNL     1      27.039   4.008  49.098  1.00  0.00     0.151 A 
HETATM    9  N2  UNL     1      27.571   5.110  48.531  1.00  0.00    -0.074 NA
HETATM   10  C13 UNL     1      27.039   6.338  48.696  1.00  0.00     0.728 A 
HETATM   11  N4  UNL     1      25.927   6.451  49.465  1.00  0.00    -0.044 NA
HETATM   12  C21 UNL     1      25.355   5.371  50.058  1.00  0.00     0.163 A 
ENDROOT
BRANCH  10  13
HETATM   13  N3  UNL     1      27.647   7.461  48.072  1.00  0.00    -0.188 N 
HETATM   14  H9  UNL     1      26.877   7.959  47.580  1.00  0.00     0.184 HD
BRANCH  13  15
HETATM   15  C14 UNL     1      28.985   7.885  48.066  1.00  0.00     0.052 C 
HETATM   16  C15 UNL     1      29.313   8.805  48.958  1.00  0.00     0.072 C 
HETATM   17  C16 UNL     1      30.662   9.352  49.083  1.00  0.00     0.115 C 
HETATM   18  F1  UNL     1      30.914   9.972  50.272  1.00  0.00    -0.206 F 
HETATM   19  C17 UNL     1      31.665   9.332  48.214  1.00  0.00     0.019 C 
HETATM   20  C18 UNL     1      31.804   8.781  46.860  1.00  0.00     0.057 C 
HETATM   21  C19 UNL     1      30.970   7.616  46.563  1.00  0.00    -0.021 C 
HETATM   22  C20 UNL     1      29.784   7.210  47.048  1.00  0.00     0.026 C 
ENDBRANCH  13  15
ENDBRANCH  10  13
BRANCH   5  23
HETATM   23  C4  UNL     1      23.662   1.928  51.850  1.00  0.00     0.023 A 
HETATM   24  C5  UNL     1      22.588   1.235  51.312  1.00  0.00     0.046 A 
HETATM   25 CL1  UNL     1      21.871   1.891  49.859  1.00  0.00    -0.083 Cl
HETATM   26  C6  UNL     1      22.111   0.067  51.918  1.00  0.00     0.025 A 
HETATM   27  C7  UNL     1      22.706  -0.421  53.069  1.00  0.00     0.003 A 
HETATM   28  C8  UNL     1      23.774   0.275  53.597  1.00  0.00     0.025 A 
HETATM   29  C9  UNL     1      24.250   1.430  53.004  1.00  0.00     0.046 A 
HETATM   30 CL2  UNL     1      25.598   2.185  53.791  1.00  0.00    -0.083 Cl
ENDBRANCH   5  23
TORSDOF 3
ENDMDL
MODEL 8
REMARK VINA RESULT:      -9.3      6.343      9.791
REMARK  3 active torsions:
REMARK  status: ('A' for Active; 'I' for Inactive)
REMARK    1  A    between atoms: C3_5  and  C4_6 
REMARK    2  A    between atoms: C13_18  and  N3_19 
REMARK    3  A    between atoms: N3_19  and  C14_20 
ROOT
HETATM    1  C1  UNL     1      23.032   5.675  51.596  1.00  0.00     0.161 C 
HETATM    2  N1  UNL     1      24.055   5.843  50.573  1.00  0.00    -0.301 N 
HETATM    3  C2  UNL     1      24.060   6.949  49.822  1.00  0.00     0.260 A 
HETATM    4  O1  UNL     1      23.207   7.877  49.952  1.00  0.00    -0.267 OA
HETATM    5  C3  UNL     1      24.993   7.183  48.836  1.00  0.00     0.047 A 
HETATM    6  C10 UNL     1      25.963   6.204  48.639  1.00  0.00     0.034 A 
HETATM    7  C11 UNL     1      25.956   5.061  49.418  1.00  0.00     0.030 A 
HETATM    8  C12 UNL     1      26.893   4.061  49.263  1.00  0.00     0.151 A 
HETATM    9  N2  UNL     1      26.855   2.960  50.041  1.00  0.00    -0.074 NA
HETATM   10  C13 UNL     1      25.918   2.779  50.995  1.00  0.00     0.728 A 
HETATM   11  N4  UNL     1      24.987   3.751  51.164  1.00  0.00    -0.044 NA
HETATM   12  C21 UNL     1      24.983   4.877  50.404  1.00  0.00     0.163 A 
ENDROOT
BRANCH  10  13
HETATM   13  N3  UNL     1      25.932   1.596  51.782  1.00  0.00    -0.188 N 
HETATM   14  H9  UNL     1      24.973   1.200  51.708  1.00  0.00     0.184 HD
BRANCH  13  15
HETATM   15  C14 UNL     1      26.966   1.013  52.531  1.00  0.00     0.052 C 
HETATM   16  C15 UNL     1      27.855   1.845  53.049  1.00  0.00     0.072 C 
HETATM   17  C16 UNL     1      28.992   1.400  53.853  1.00  0.00     0.115 C 
HETATM   18  F1  UNL     1      29.560   2.376  54.619  1.00  0.00    -0.206 F 
HETATM   19  C17 UNL     1      29.543   0.196  53.942  1.00  0.00     0.019 C 
HETATM   20  C18 UNL     1      29.242  -1.091  53.302  1.00  0.00     0.057 C 
HETATM   21  C19 UNL     1      27.844  -1.299  52.926  1.00  0.00    -0.021 C 
HETATM   22  C20 UNL     1      26.863  -0.441  52.596  1.00  0.00     0.026 C 
ENDBRANCH  13  15
ENDBRANCH  10  13
BRANCH   5  23
HETATM   23  C4  UNL     1      25.078   8.345  47.976  1.00  0.00     0.023 A 
HETATM   24  C5  UNL     1      25.852   9.455  48.276  1.00  0.00     0.046 A 
HETATM   25 CL1  UNL     1      26.753   9.410  49.773  1.00  0.00    -0.083 Cl
HETATM   26  C6  UNL     1      25.900  10.554  47.410  1.00  0.00     0.025 A 
HETATM   27  C7  UNL     1      25.171  10.552  46.232  1.00  0.00     0.003 A 
HETATM   28  C8  UNL     1      24.403   9.443  45.942  1.00  0.00     0.025 A 
HETATM   29  C9  UNL     1      24.352   8.354  46.793  1.00  0.00     0.046 A 
HETATM   30 CL2  UNL     1      23.341   7.042  46.283  1.00  0.00    -0.083 Cl
ENDBRANCH   5  23
TORSDOF 3
ENDMDL
MODEL 9
REMARK VINA RESULT:      -9.2      5.529      9.067
REMARK  3 active torsions:
REMARK  status: ('A' for Active; 'I' for Inactive)
REMARK    1  A    between atoms: C3_5  and  C4_6 
REMARK    2  A    between atoms: C13_18  and  N3_19 
REMARK    3  A    between atoms: N3_19  and  C14_20 
ROOT
HETATM    1  C1  UNL     1      22.609   2.356  48.004  1.00  0.00     0.161 C 
HETATM    2  N1  UNL     1      22.613   2.492  49.454  1.00  0.00    -0.301 N 
HETATM    3  C2  UNL     1      22.128   1.500  50.209  1.00  0.00     0.260 A 
HETATM    4  O1  UNL     1      21.655   0.430  49.724  1.00  0.00    -0.267 OA
HETATM    5  C3  UNL     1      22.097   1.551  51.585  1.00  0.00     0.047 A 
HETATM    6  C10 UNL     1      22.602   2.701  52.186  1.00  0.00     0.034 A 
HETATM    7  C11 UNL     1      23.103   3.724  51.403  1.00  0.00     0.030 A 
HETATM    8  C12 UNL     1      23.613   4.884  51.948  1.00  0.00     0.151 A 
HETATM    9  N2  UNL     1      24.094   5.861  51.153  1.00  0.00    -0.074 NA
HETATM   10  C13 UNL     1      24.102   5.762  49.807  1.00  0.00     0.728 A 
HETATM   11  N4  UNL     1      23.604   4.629  49.250  1.00  0.00    -0.044 NA
HETATM   12  C21 UNL     1      23.108   3.618  50.009  1.00  0.00     0.163 A 
ENDROOT
BRANCH  10  13
HETATM   13  N3  UNL     1      24.623   6.827  49.023  1.00  0.00    -0.188 N 
HETATM   14  H9  UNL     1      23.905   7.580  49.063  1.00  0.00     0.184 HD
BRANCH  13  15
HETATM   15  C14 UNL     1      25.830   6.930  48.315  1.00  0.00     0.052 C 
HETATM   16  C15 UNL     1      26.829   6.179  48.747  1.00  0.00     0.072 C 
HETATM   17  C16 UNL     1      28.150   6.169  48.122  1.00  0.00     0.115 C 
HETATM   18  F1  UNL     1      28.914   5.081  48.430  1.00  0.00    -0.206 F 
HETATM   19  C17 UNL     1      28.705   7.057  47.308  1.00  0.00     0.019 C 
HETATM   20  C18 UNL     1      28.234   8.330  46.746  1.00  0.00     0.057 C 
HETATM   21  C19 UNL     1      26.787   8.445  46.565  1.00  0.00    -0.021 C 
HETATM   22  C20 UNL     1      25.752   7.873  47.204  1.00  0.00     0.026 C 
ENDBRANCH  13  15
ENDBRANCH  10  13
BRANCH   5  23
HETATM   23  C4  UNL     1      21.594   0.532  52.483  1.00  0.00     0.023 A 
HETATM   24  C5  UNL     1      20.243   0.342  52.732  1.00  0.00     0.046 A 
HETATM   25 CL1  UNL     1      19.128   1.404  51.903  1.00  0.00    -0.083 Cl
HETATM   26  C6  UNL     1      19.808  -0.658  53.609  1.00  0.00     0.025 A 
HETATM   27  C7  UNL     1      20.722  -1.480  54.247  1.00  0.00     0.003 A 
HETATM   28  C8  UNL     1      22.064  -1.283  53.993  1.00  0.00     0.025 A 
HETATM   29  C9  UNL     1      22.501  -0.297  53.127  1.00  0.00     0.046 A 
HETATM   30 CL2  UNL     1      24.218  -0.181  52.917  1.00  0.00    -0.083 Cl
ENDBRANCH   5  23
TORSDOF 3
ENDMDL
