MODEL 1
REMARK VINA RESULT:      -8.0      0.000      0.000
REMARK  7 active torsions:
REMARK  status: ('A' for Active; 'I' for Inactive)
REMARK    1  A    between atoms: C2_2  and  C3_3 
REMARK    2  A    between atoms: C2_2  and  S1_12 
REMARK    3  A    between atoms: C3_3  and  C4_4 
REMARK    4  A    between atoms: C10_10  and  O1_11 
REMARK    5  A    between atoms: S1_12  and  C11_13 
REMARK    6  A    between atoms: C12_14  and  N1_15 
REMARK    7  A    between atoms: N1_15  and  C13_16 
ROOT
HETATM    1  C11 UNL     1      25.736   0.700  53.568  1.00  0.00     0.121 A 
HETATM    2  C12 UNL     1      25.930   1.997  53.665  1.00  0.00     0.156 A 
HETATM    3  N2  UNL     1      27.155   2.547  54.117  1.00  0.00    -0.259 N 
HETATM    4  N3  UNL     1      28.262   1.769  54.500  1.00  0.00    -0.168 NA
HETATM    5  C19 UNL     1      28.101   0.470  54.414  1.00  0.00     0.230 A 
HETATM    6  N4  UNL     1      26.877  -0.094  53.962  1.00  0.00    -0.341 N 
HETATM    7  H16 UNL     1      27.267   3.578  54.182  1.00  0.00     0.191 HD
HETATM    8  H18 UNL     1      26.973  -1.153  53.973  1.00  0.00     0.167 HD
ENDROOT
BRANCH   1   9
HETATM    9  S1  UNL     1      24.427  -0.351  53.048  1.00  0.00    -0.074 SA
BRANCH   9  10
HETATM   10  C2  UNL     1      23.059  -0.521  54.136  1.00  0.00    -0.021 C 
HETATM   11  C1  UNL     1      22.600  -1.240  55.150  1.00  0.00     0.027 C 
BRANCH  10  12
HETATM   12  C3  UNL     1      22.128   0.566  53.636  1.00  0.00     0.073 C 
BRANCH  12  13
HETATM   13  C4  UNL     1      22.016   0.525  52.174  1.00  0.00    -0.011 C 
HETATM   14  C5  UNL     1      21.355   1.139  51.230  1.00  0.00    -0.025 A 
HETATM   15  C6  UNL     1      21.543   0.779  49.790  1.00  0.00     0.068 A 
HETATM   16  C10 UNL     1      20.413   2.199  51.592  1.00  0.00     0.071 A 
HETATM   17  C7  UNL     1      20.707   1.601  48.914  1.00  0.00    -0.022 A 
HETATM   18  C8  UNL     1      19.843   2.574  49.224  1.00  0.00    -0.001 A 
HETATM   19  C9  UNL     1      19.740   2.833  50.649  1.00  0.00     0.037 A 
BRANCH  16  20
HETATM   20  O1  UNL     1      20.144   2.619  52.871  1.00  0.00    -0.360 OA
HETATM   21  H11 UNL     1      19.532   3.432  53.022  1.00  0.00     0.217 HD
ENDBRANCH  16  20
ENDBRANCH  12  13
ENDBRANCH  10  12
ENDBRANCH   9  10
ENDBRANCH   1   9
BRANCH   2  22
HETATM   22  N1  UNL     1      24.936   2.926  53.296  1.00  0.00    -0.339 N 
HETATM   23  H12 UNL     1      24.565   3.358  54.170  1.00  0.00     0.167 HD
BRANCH  22  24
HETATM   24  C13 UNL     1      24.461   3.261  52.002  1.00  0.00     0.035 A 
HETATM   25  C14 UNL     1      24.783   2.821  50.738  1.00  0.00     0.032 A 
HETATM   26  C15 UNL     1      24.114   3.366  49.671  1.00  0.00     0.046 A 
HETATM   27  C16 UNL     1      23.133   4.334  49.795  1.00  0.00     0.138 A 
HETATM   28  F1  UNL     1      22.527   4.817  48.693  1.00  0.00    -0.204 F 
HETATM   29  C17 UNL     1      22.816   4.771  51.064  1.00  0.00     0.074 A 
HETATM   30 CL1  UNL     1      21.565   5.997  51.151  1.00  0.00    -0.081 Cl
HETATM   31  C18 UNL     1      23.480   4.234  52.170  1.00  0.00     0.056 A 
ENDBRANCH  22  24
ENDBRANCH   2  22
TORSDOF 7
ENDMDL
MODEL 2
REMARK VINA RESULT:      -7.7      3.180      5.416
REMARK  7 active torsions:
REMARK  status: ('A' for Active; 'I' for Inactive)
REMARK    1  A    between atoms: C2_2  and  C3_3 
REMARK    2  A    between atoms: C2_2  and  S1_12 
REMARK    3  A    between atoms: C3_3  and  C4_4 
REMARK    4  A    between atoms: C10_10  and  O1_11 
REMARK    5  A    between atoms: S1_12  and  C11_13 
REMARK    6  A    between atoms: C12_14  and  N1_15 
REMARK    7  A    between atoms: N1_15  and  C13_16 
ROOT
HETATM    1  C11 UNL     1      22.573   5.167  51.052  1.00  0.00     0.121 A 
HETATM    2  C12 UNL     1      23.603   5.293  51.860  1.00  0.00     0.156 A 
HETATM    3  N2  UNL     1      24.319   6.509  51.988  1.00  0.00    -0.259 N 
HETATM    4  N3  UNL     1      24.000   7.677  51.273  1.00  0.00    -0.168 NA
HETATM    5  C19 UNL     1      22.976   7.584  50.459  1.00  0.00     0.230 A 
HETATM    6  N4  UNL     1      22.250   6.371  50.322  1.00  0.00    -0.341 N 
HETATM    7  H16 UNL     1      25.129   6.567  52.636  1.00  0.00     0.191 HD
HETATM    8  H18 UNL     1      21.470   6.525  49.616  1.00  0.00     0.167 HD
ENDROOT
BRANCH   1   9
HETATM    9  S1  UNL     1      21.439   3.891  50.635  1.00  0.00    -0.074 SA
BRANCH   9  10
HETATM   10  C2  UNL     1      21.986   2.679  49.488  1.00  0.00    -0.021 C 
HETATM   11  C1  UNL     1      22.752   2.505  48.420  1.00  0.00     0.027 C 
BRANCH  10  12
HETATM   12  C3  UNL     1      21.245   1.445  49.964  1.00  0.00     0.073 C 
BRANCH  12  13
HETATM   13  C4  UNL     1      22.041   0.706  50.950  1.00  0.00    -0.011 C 
HETATM   14  C5  UNL     1      21.936   0.317  52.192  1.00  0.00    -0.025 A 
HETATM   15  C6  UNL     1      23.031  -0.458  52.858  1.00  0.00     0.068 A 
HETATM   16  C10 UNL     1      20.725   0.648  52.944  1.00  0.00     0.071 A 
HETATM   17  C7  UNL     1      22.691  -0.790  54.242  1.00  0.00    -0.022 A 
HETATM   18  C8  UNL     1      21.590  -0.501  54.946  1.00  0.00    -0.001 A 
HETATM   19  C9  UNL     1      20.601   0.257  54.199  1.00  0.00     0.037 A 
BRANCH  16  20
HETATM   20  O1  UNL     1      19.656   1.355  52.454  1.00  0.00    -0.360 OA
HETATM   21  H11 UNL     1      19.500   2.324  52.765  1.00  0.00     0.217 HD
ENDBRANCH  16  20
ENDBRANCH  12  13
ENDBRANCH  10  12
ENDBRANCH   9  10
ENDBRANCH   1   9
BRANCH   2  22
HETATM   22  N1  UNL     1      24.044   4.230  52.674  1.00  0.00    -0.339 N 
HETATM   23  H12 UNL     1      23.657   4.381  53.631  1.00  0.00     0.167 HD
BRANCH  22  24
HETATM   24  C13 UNL     1      24.871   3.128  52.336  1.00  0.00     0.035 A 
HETATM   25  C14 UNL     1      25.355   2.648  51.139  1.00  0.00     0.032 A 
HETATM   26  C15 UNL     1      26.152   1.531  51.164  1.00  0.00     0.046 A 
HETATM   27  C16 UNL     1      26.497   0.861  52.326  1.00  0.00     0.138 A 
HETATM   28  F1  UNL     1      27.285  -0.230  52.259  1.00  0.00    -0.204 F 
HETATM   29  C17 UNL     1      26.008   1.348  53.520  1.00  0.00     0.074 A 
HETATM   30 CL1  UNL     1      26.483   0.454  54.951  1.00  0.00    -0.081 Cl
HETATM   31  C18 UNL     1      25.194   2.483  53.525  1.00  0.00     0.056 A 
ENDBRANCH  22  24
ENDBRANCH   2  22
TORSDOF 7
ENDMDL
MODEL 3
REMARK VINA RESULT:      -7.6      3.917      6.365
REMARK  7 active torsions:
REMARK  status: ('A' for Active; 'I' for Inactive)
REMARK    1  A    between atoms: C2_2  and  C3_3 
REMARK    2  A    between atoms: C2_2  and  S1_12 
REMARK    3  A    between atoms: C3_3  and  C4_4 
REMARK    4  A    between atoms: C10_10  and  O1_11 
REMARK    5  A    between atoms: S1_12  and  C11_13 
REMARK    6  A    between atoms: C12_14  and  N1_15 
REMARK    7  A    between atoms: N1_15  and  C13_16 
ROOT
HETATM    1  C11 UNL     1      22.613   0.732  53.012  1.00  0.00     0.121 A 
HETATM    2  C12 UNL     1      23.722   0.069  53.262  1.00  0.00     0.156 A 
HETATM    3  N2  UNL     1      23.814  -0.885  54.306  1.00  0.00    -0.259 N 
HETATM    4  N3  UNL     1      22.744  -1.206  55.161  1.00  0.00    -0.168 NA
HETATM    5  C19 UNL     1      21.624  -0.563  54.937  1.00  0.00     0.230 A 
HETATM    6  N4  UNL     1      21.519   0.396  53.893  1.00  0.00    -0.341 N 
HETATM    7  H16 UNL     1      24.708  -1.385  54.473  1.00  0.00     0.191 HD
HETATM    8  H18 UNL     1      20.530   0.787  53.896  1.00  0.00     0.167 HD
ENDROOT
BRANCH   1   9
HETATM    9  S1  UNL     1      22.092   1.933  51.841  1.00  0.00    -0.074 SA
BRANCH   9  10
HETATM   10  C2  UNL     1      22.992   3.441  51.789  1.00  0.00    -0.021 C 
HETATM   11  C1  UNL     1      23.079   4.638  52.350  1.00  0.00     0.027 C 
BRANCH  10  12
HETATM   12  C3  UNL     1      23.966   3.182  50.656  1.00  0.00     0.073 C 
BRANCH  12  13
HETATM   13  C4  UNL     1      24.329   4.434  49.984  1.00  0.00    -0.011 C 
HETATM   14  C5  UNL     1      25.378   4.967  49.418  1.00  0.00    -0.025 A 
HETATM   15  C6  UNL     1      25.325   6.338  48.819  1.00  0.00     0.068 A 
HETATM   16  C10 UNL     1      26.627   4.206  49.371  1.00  0.00     0.071 A 
HETATM   17  C7  UNL     1      26.611   6.723  48.238  1.00  0.00    -0.022 A 
HETATM   18  C8  UNL     1      27.762   6.043  48.182  1.00  0.00    -0.001 A 
HETATM   19  C9  UNL     1      27.696   4.729  48.798  1.00  0.00     0.037 A 
BRANCH  16  20
HETATM   20  O1  UNL     1      26.810   2.948  49.887  1.00  0.00    -0.360 OA
HETATM   21  H11 UNL     1      27.555   2.346  49.511  1.00  0.00     0.217 HD
ENDBRANCH  16  20
ENDBRANCH  12  13
ENDBRANCH  10  12
ENDBRANCH   9  10
ENDBRANCH   1   9
BRANCH   2  22
HETATM   22  N1  UNL     1      24.885   0.246  52.486  1.00  0.00    -0.339 N 
HETATM   23  H12 UNL     1      24.604   0.710  51.594  1.00  0.00     0.167 HD
BRANCH  22  24
HETATM   24  C13 UNL     1      26.223  -0.121  52.782  1.00  0.00     0.035 A 
HETATM   25  C14 UNL     1      26.901  -1.318  52.739  1.00  0.00     0.032 A 
HETATM   26  C15 UNL     1      28.225  -1.326  53.100  1.00  0.00     0.046 A 
HETATM   27  C16 UNL     1      28.917  -0.196  53.504  1.00  0.00     0.138 A 
HETATM   28  F1  UNL     1      30.217  -0.294  53.842  1.00  0.00    -0.204 F 
HETATM   29  C17 UNL     1      28.230   0.999  53.545  1.00  0.00     0.074 A 
HETATM   30 CL1  UNL     1      29.163   2.389  54.063  1.00  0.00    -0.081 Cl
HETATM   31  C18 UNL     1      26.881   1.037  53.183  1.00  0.00     0.056 A 
ENDBRANCH  22  24
ENDBRANCH   2  22
TORSDOF 7
ENDMDL
MODEL 4
REMARK VINA RESULT:      -7.5      4.048      6.688
REMARK  7 active torsions:
REMARK  status: ('A' for Active; 'I' for Inactive)
REMARK    1  A    between atoms: C2_2  and  C3_3 
REMARK    2  A    between atoms: C2_2  and  S1_12 
REMARK    3  A    between atoms: C3_3  and  C4_4 
REMARK    4  A    between atoms: C10_10  and  O1_11 
REMARK    5  A    between atoms: S1_12  and  C11_13 
REMARK    6  A    between atoms: C12_14  and  N1_15 
REMARK    7  A    between atoms: N1_15  and  C13_16 
ROOT
HETATM    1  C11 UNL     1      22.534   4.799  51.562  1.00  0.00     0.121 A 
HETATM    2  C12 UNL     1      22.781   5.616  50.561  1.00  0.00     0.156 A 
HETATM    3  N2  UNL     1      21.778   6.010  49.641  1.00  0.00    -0.259 N 
HETATM    4  N3  UNL     1      20.443   5.572  49.712  1.00  0.00    -0.168 NA
HETATM    5  C19 UNL     1      20.164   4.758  50.702  1.00  0.00     0.230 A 
HETATM    6  N4  UNL     1      21.161   4.355  51.630  1.00  0.00    -0.341 N 
HETATM    7  H16 UNL     1      22.014   6.654  48.862  1.00  0.00     0.191 HD
HETATM    8  H18 UNL     1      20.714   3.701  52.339  1.00  0.00     0.167 HD
ENDROOT
BRANCH   1   9
HETATM    9  S1  UNL     1      23.453   4.110  52.891  1.00  0.00    -0.074 SA
BRANCH   9  10
HETATM   10  C2  UNL     1      23.898   2.416  52.761  1.00  0.00    -0.021 C 
HETATM   11  C1  UNL     1      23.451   1.235  52.356  1.00  0.00     0.027 C 
BRANCH  10  12
HETATM   12  C3  UNL     1      25.283   2.410  53.376  1.00  0.00     0.073 C 
BRANCH  12  13
HETATM   13  C4  UNL     1      25.931   1.107  53.190  1.00  0.00    -0.011 C 
HETATM   14  C5  UNL     1      27.121   0.584  53.317  1.00  0.00    -0.025 A 
HETATM   15  C6  UNL     1      27.370  -0.860  53.012  1.00  0.00     0.068 A 
HETATM   16  C10 UNL     1      28.228   1.430  53.762  1.00  0.00     0.071 A 
HETATM   17  C7  UNL     1      28.771  -1.223  53.231  1.00  0.00    -0.022 A 
HETATM   18  C8  UNL     1      29.796  -0.468  53.640  1.00  0.00    -0.001 A 
HETATM   19  C9  UNL     1      29.437   0.915  53.900  1.00  0.00     0.037 A 
BRANCH  16  20
HETATM   20  O1  UNL     1      28.135   2.765  54.065  1.00  0.00    -0.360 OA
HETATM   21  H11 UNL     1      28.296   3.081  55.031  1.00  0.00     0.217 HD
ENDBRANCH  16  20
ENDBRANCH  12  13
ENDBRANCH  10  12
ENDBRANCH   9  10
ENDBRANCH   1   9
BRANCH   2  22
HETATM   22  N1  UNL     1      24.059   6.173  50.354  1.00  0.00    -0.339 N 
HETATM   23  H12 UNL     1      24.019   7.175  50.643  1.00  0.00     0.167 HD
BRANCH  22  24
HETATM   24  C13 UNL     1      25.231   5.559  49.842  1.00  0.00     0.035 A 
HETATM   25  C14 UNL     1      25.723   4.274  49.903  1.00  0.00     0.032 A 
HETATM   26  C15 UNL     1      26.917   4.008  49.282  1.00  0.00     0.046 A 
HETATM   27  C16 UNL     1      27.655   4.959  48.599  1.00  0.00     0.138 A 
HETATM   28  F1  UNL     1      28.821   4.611  48.019  1.00  0.00    -0.204 F 
HETATM   29  C17 UNL     1      27.157   6.243  48.543  1.00  0.00     0.074 A 
HETATM   30 CL1  UNL     1      28.138   7.398  47.662  1.00  0.00    -0.081 Cl
HETATM   31  C18 UNL     1      25.942   6.544  49.165  1.00  0.00     0.056 A 
ENDBRANCH  22  24
ENDBRANCH   2  22
TORSDOF 7
ENDMDL
MODEL 5
REMARK VINA RESULT:      -7.4      3.594      5.610
REMARK  7 active torsions:
REMARK  status: ('A' for Active; 'I' for Inactive)
REMARK    1  A    between atoms: C2_2  and  C3_3 
REMARK    2  A    between atoms: C2_2  and  S1_12 
REMARK    3  A    between atoms: C3_3  and  C4_4 
REMARK    4  A    between atoms: C10_10  and  O1_11 
REMARK    5  A    between atoms: S1_12  and  C11_13 
REMARK    6  A    between atoms: C12_14  and  N1_15 
REMARK    7  A    between atoms: N1_15  and  C13_16 
ROOT
HETATM    1  C11 UNL     1      24.787   4.445  49.595  1.00  0.00     0.121 A 
HETATM    2  C12 UNL     1      25.933   3.813  49.724  1.00  0.00     0.156 A 
HETATM    3  N2  UNL     1      27.165   4.395  49.338  1.00  0.00    -0.259 N 
HETATM    4  N3  UNL     1      27.277   5.686  48.789  1.00  0.00    -0.168 NA
HETATM    5  C19 UNL     1      26.151   6.343  48.649  1.00  0.00     0.230 A 
HETATM    6  N4  UNL     1      24.909   5.770  49.032  1.00  0.00    -0.341 N 
HETATM    7  H16 UNL     1      28.049   3.862  49.453  1.00  0.00     0.191 HD
HETATM    8  H18 UNL     1      24.139   6.475  48.831  1.00  0.00     0.167 HD
ENDROOT
BRANCH   1   9
HETATM    9  S1  UNL     1      23.103   4.103  49.963  1.00  0.00    -0.074 SA
BRANCH   9  10
HETATM   10  C2  UNL     1      22.403   2.665  49.236  1.00  0.00    -0.021 C 
HETATM   11  C1  UNL     1      22.361   1.964  48.112  1.00  0.00     0.027 C 
BRANCH  10  12
HETATM   12  C3  UNL     1      21.547   2.131  50.368  1.00  0.00     0.073 C 
BRANCH  12  13
HETATM   13  C4  UNL     1      22.306   1.184  51.192  1.00  0.00    -0.011 C 
HETATM   14  C5  UNL     1      22.188   0.586  52.347  1.00  0.00    -0.025 A 
HETATM   15  C6  UNL     1      23.239  -0.356  52.845  1.00  0.00     0.068 A 
HETATM   16  C10 UNL     1      21.004   0.847  53.168  1.00  0.00     0.071 A 
HETATM   17  C7  UNL     1      22.891  -0.909  54.154  1.00  0.00    -0.022 A 
HETATM   18  C8  UNL     1      21.816  -0.688  54.918  1.00  0.00    -0.001 A 
HETATM   19  C9  UNL     1      20.867   0.246  54.336  1.00  0.00     0.037 A 
BRANCH  16  20
HETATM   20  O1  UNL     1      19.976   1.690  52.832  1.00  0.00    -0.360 OA
HETATM   21  H11 UNL     1      20.174   2.678  52.621  1.00  0.00     0.217 HD
ENDBRANCH  16  20
ENDBRANCH  12  13
ENDBRANCH  10  12
ENDBRANCH   9  10
ENDBRANCH   1   9
BRANCH   2  22
HETATM   22  N1  UNL     1      26.010   2.521  50.282  1.00  0.00    -0.339 N 
HETATM   23  H12 UNL     1      26.040   1.836  49.495  1.00  0.00     0.167 HD
BRANCH  22  24
HETATM   24  C13 UNL     1      26.034   2.136  51.647  1.00  0.00     0.035 A 
HETATM   25  C14 UNL     1      25.477   2.674  52.786  1.00  0.00     0.032 A 
HETATM   26  C15 UNL     1      25.700   2.035  53.980  1.00  0.00     0.046 A 
HETATM   27  C16 UNL     1      26.454   0.880  54.103  1.00  0.00     0.138 A 
HETATM   28  F1  UNL     1      26.623   0.318  55.316  1.00  0.00    -0.204 F 
HETATM   29  C17 UNL     1      27.009   0.348  52.958  1.00  0.00     0.074 A 
HETATM   30 CL1  UNL     1      27.949  -1.114  53.183  1.00  0.00    -0.081 Cl
HETATM   31  C18 UNL     1      26.798   0.977  51.728  1.00  0.00     0.056 A 
ENDBRANCH  22  24
ENDBRANCH   2  22
TORSDOF 7
ENDMDL
MODEL 6
REMARK VINA RESULT:      -7.3      3.580      6.009
REMARK  7 active torsions:
REMARK  status: ('A' for Active; 'I' for Inactive)
REMARK    1  A    between atoms: C2_2  and  C3_3 
REMARK    2  A    between atoms: C2_2  and  S1_12 
REMARK    3  A    between atoms: C3_3  and  C4_4 
REMARK    4  A    between atoms: C10_10  and  O1_11 
REMARK    5  A    between atoms: S1_12  and  C11_13 
REMARK    6  A    between atoms: C12_14  and  N1_15 
REMARK    7  A    between atoms: N1_15  and  C13_16 
ROOT
HETATM    1  C11 UNL     1      26.959   0.583  52.764  1.00  0.00     0.121 A 
HETATM    2  C12 UNL     1      26.419  -0.248  53.629  1.00  0.00     0.156 A 
HETATM    3  N2  UNL     1      26.989  -0.487  54.904  1.00  0.00    -0.259 N 
HETATM    4  N3  UNL     1      28.168   0.132  55.357  1.00  0.00    -0.168 NA
HETATM    5  C19 UNL     1      28.730   0.968  54.517  1.00  0.00     0.230 A 
HETATM    6  N4  UNL     1      28.168   1.216  53.235  1.00  0.00    -0.341 N 
HETATM    7  H16 UNL     1      26.534  -1.153  55.558  1.00  0.00     0.191 HD
HETATM    8  H18 UNL     1      28.784   1.921  52.731  1.00  0.00     0.167 HD
ENDROOT
BRANCH   1   9
HETATM    9  S1  UNL     1      26.570   1.160  51.150  1.00  0.00    -0.074 SA
BRANCH   9  10
HETATM   10  C2  UNL     1      25.766   2.717  51.031  1.00  0.00    -0.021 C 
HETATM   11  C1  UNL     1      24.705   3.392  51.451  1.00  0.00     0.027 C 
BRANCH  10  12
HETATM   12  C3  UNL     1      26.671   3.462  50.071  1.00  0.00     0.073 C 
BRANCH  12  13
HETATM   13  C4  UNL     1      25.963   4.588  49.454  1.00  0.00    -0.011 C 
HETATM   14  C5  UNL     1      26.253   5.679  48.796  1.00  0.00    -0.025 A 
HETATM   15  C6  UNL     1      25.179   6.604  48.315  1.00  0.00     0.068 A 
HETATM   16  C10 UNL     1      27.656   5.999  48.529  1.00  0.00     0.071 A 
HETATM   17  C7  UNL     1      25.737   7.753  47.601  1.00  0.00    -0.022 A 
HETATM   18  C8  UNL     1      27.012   8.062  47.343  1.00  0.00    -0.001 A 
HETATM   19  C9  UNL     1      27.965   7.096  47.861  1.00  0.00     0.037 A 
BRANCH  16  20
HETATM   20  O1  UNL     1      28.731   5.242  48.919  1.00  0.00    -0.360 OA
HETATM   21  H11 UNL     1      29.680   5.634  48.858  1.00  0.00     0.217 HD
ENDBRANCH  16  20
ENDBRANCH  12  13
ENDBRANCH  10  12
ENDBRANCH   9  10
ENDBRANCH   1   9
BRANCH   2  22
HETATM   22  N1  UNL     1      25.220  -0.935  53.352  1.00  0.00    -0.339 N 
HETATM   23  H12 UNL     1      25.442  -1.702  52.680  1.00  0.00     0.167 HD
BRANCH  22  24
HETATM   24  C13 UNL     1      23.912  -0.685  53.842  1.00  0.00     0.035 A 
HETATM   25  C14 UNL     1      23.186  -1.203  54.890  1.00  0.00     0.032 A 
HETATM   26  C15 UNL     1      21.914  -0.729  55.094  1.00  0.00     0.046 A 
HETATM   27  C16 UNL     1      21.322   0.242  54.305  1.00  0.00     0.138 A 
HETATM   28  F1  UNL     1      20.067   0.649  54.576  1.00  0.00    -0.204 F 
HETATM   29  C17 UNL     1      22.056   0.756  53.256  1.00  0.00     0.074 A 
HETATM   30 CL1  UNL     1      21.248   1.981  52.298  1.00  0.00    -0.081 Cl
HETATM   31  C18 UNL     1      23.353   0.292  53.024  1.00  0.00     0.056 A 
ENDBRANCH  22  24
ENDBRANCH   2  22
TORSDOF 7
ENDMDL
MODEL 7
REMARK VINA RESULT:      -7.3      4.027      7.232
REMARK  7 active torsions:
REMARK  status: ('A' for Active; 'I' for Inactive)
REMARK    1  A    between atoms: C2_2  and  C3_3 
REMARK    2  A    between atoms: C2_2  and  S1_12 
REMARK    3  A    between atoms: C3_3  and  C4_4 
REMARK    4  A    between atoms: C10_10  and  O1_11 
REMARK    5  A    between atoms: S1_12  and  C11_13 
REMARK    6  A    between atoms: C12_14  and  N1_15 
REMARK    7  A    between atoms: N1_15  and  C13_16 
ROOT
HETATM    1  C11 UNL     1      21.940   4.069  51.194  1.00  0.00     0.121 A 
HETATM    2  C12 UNL     1      21.232   3.157  50.563  1.00  0.00     0.156 A 
HETATM    3  N2  UNL     1      20.163   3.495  49.697  1.00  0.00    -0.259 N 
HETATM    4  N3  UNL     1      19.765   4.819  49.434  1.00  0.00    -0.168 NA
HETATM    5  C19 UNL     1      20.452   5.752  50.047  1.00  0.00     0.230 A 
HETATM    6  N4  UNL     1      21.526   5.425  50.919  1.00  0.00    -0.341 N 
HETATM    7  H16 UNL     1      19.626   2.746  49.220  1.00  0.00     0.191 HD
HETATM    8  H18 UNL     1      21.934   6.330  51.300  1.00  0.00     0.167 HD
ENDROOT
BRANCH   1   9
HETATM    9  S1  UNL     1      23.310   4.073  52.294  1.00  0.00    -0.074 SA
BRANCH   9  10
HETATM   10  C2  UNL     1      24.721   3.143  51.814  1.00  0.00    -0.021 C 
HETATM   11  C1  UNL     1      25.440   2.784  50.760  1.00  0.00     0.027 C 
BRANCH  10  12
HETATM   12  C3  UNL     1      25.186   2.578  53.142  1.00  0.00     0.073 C 
BRANCH  12  13
HETATM   13  C4  UNL     1      25.812   1.264  52.959  1.00  0.00    -0.011 C 
HETATM   14  C5  UNL     1      26.966   0.695  53.183  1.00  0.00    -0.025 A 
HETATM   15  C6  UNL     1      27.204  -0.741  52.833  1.00  0.00     0.068 A 
HETATM   16  C10 UNL     1      28.044   1.481  53.784  1.00  0.00     0.071 A 
HETATM   17  C7  UNL     1      28.563  -1.161  53.178  1.00  0.00    -0.022 A 
HETATM   18  C8  UNL     1      29.560  -0.462  53.731  1.00  0.00    -0.001 A 
HETATM   19  C9  UNL     1      29.215   0.919  54.021  1.00  0.00     0.037 A 
BRANCH  16  20
HETATM   20  O1  UNL     1      27.958   2.802  54.143  1.00  0.00    -0.360 OA
HETATM   21  H11 UNL     1      28.211   3.532  53.464  1.00  0.00     0.217 HD
ENDBRANCH  16  20
ENDBRANCH  12  13
ENDBRANCH  10  12
ENDBRANCH   9  10
ENDBRANCH   1   9
BRANCH   2  22
HETATM   22  N1  UNL     1      21.511   1.781  50.690  1.00  0.00    -0.339 N 
HETATM   23  H12 UNL     1      22.112   1.504  49.883  1.00  0.00     0.167 HD
BRANCH  22  24
HETATM   24  C13 UNL     1      21.083   0.870  51.689  1.00  0.00     0.035 A 
HETATM   25  C14 UNL     1      19.851   0.356  52.028  1.00  0.00     0.032 A 
HETATM   26  C15 UNL     1      19.784  -0.528  53.075  1.00  0.00     0.046 A 
HETATM   27  C16 UNL     1      20.886  -0.933  53.809  1.00  0.00     0.138 A 
HETATM   28  F1  UNL     1      20.729  -1.805  54.824  1.00  0.00    -0.204 F 
HETATM   29  C17 UNL     1      22.116  -0.413  53.464  1.00  0.00     0.074 A 
HETATM   30 CL1  UNL     1      23.468  -0.967  54.432  1.00  0.00    -0.081 Cl
HETATM   31  C18 UNL     1      22.215   0.489  52.402  1.00  0.00     0.056 A 
ENDBRANCH  22  24
ENDBRANCH   2  22
TORSDOF 7
ENDMDL
MODEL 8
REMARK VINA RESULT:      -7.2      1.726      1.977
REMARK  7 active torsions:
REMARK  status: ('A' for Active; 'I' for Inactive)
REMARK    1  A    between atoms: C2_2  and  C3_3 
REMARK    2  A    between atoms: C2_2  and  S1_12 
REMARK    3  A    between atoms: C3_3  and  C4_4 
REMARK    4  A    between atoms: C10_10  and  O1_11 
REMARK    5  A    between atoms: S1_12  and  C11_13 
REMARK    6  A    between atoms: C12_14  and  N1_15 
REMARK    7  A    between atoms: N1_15  and  C13_16 
ROOT
HETATM    1  C11 UNL     1      25.803   0.596  53.634  1.00  0.00     0.121 A 
HETATM    2  C12 UNL     1      26.083   1.880  53.706  1.00  0.00     0.156 A 
HETATM    3  N2  UNL     1      27.327   2.357  54.186  1.00  0.00    -0.259 N 
HETATM    4  N3  UNL     1      28.366   1.515  54.624  1.00  0.00    -0.168 NA
HETATM    5  C19 UNL     1      28.119   0.229  54.563  1.00  0.00     0.230 A 
HETATM    6  N4  UNL     1      26.874  -0.262  54.084  1.00  0.00    -0.341 N 
HETATM    7  H16 UNL     1      27.508   3.378  54.229  1.00  0.00     0.191 HD
HETATM    8  H18 UNL     1      26.896  -1.324  54.123  1.00  0.00     0.167 HD
ENDROOT
BRANCH   1   9
HETATM    9  S1  UNL     1      24.443  -0.376  53.095  1.00  0.00    -0.074 SA
BRANCH   9  10
HETATM   10  C2  UNL     1      23.126  -0.607  54.234  1.00  0.00    -0.021 C 
HETATM   11  C1  UNL     1      22.767  -1.299  55.306  1.00  0.00     0.027 C 
BRANCH  10  12
HETATM   12  C3  UNL     1      22.078   0.347  53.695  1.00  0.00     0.073 C 
BRANCH  12  13
HETATM   13  C4  UNL     1      20.751  -0.277  53.705  1.00  0.00    -0.011 C 
HETATM   14  C5  UNL     1      19.686  -0.312  52.951  1.00  0.00    -0.025 A 
HETATM   15  C6  UNL     1      18.483  -1.114  53.341  1.00  0.00     0.068 A 
HETATM   16  C10 UNL     1      19.670   0.451  51.702  1.00  0.00     0.071 A 
HETATM   17  C7  UNL     1      17.417  -1.009  52.344  1.00  0.00    -0.022 A 
HETATM   18  C8  UNL     1      17.384  -0.322  51.197  1.00  0.00    -0.001 A 
HETATM   19  C9  UNL     1      18.602   0.422  50.925  1.00  0.00     0.037 A 
BRANCH  16  20
HETATM   20  O1  UNL     1      20.699   1.229  51.234  1.00  0.00    -0.360 OA
HETATM   21  H11 UNL     1      20.510   2.190  50.922  1.00  0.00     0.217 HD
ENDBRANCH  16  20
ENDBRANCH  12  13
ENDBRANCH  10  12
ENDBRANCH   9  10
ENDBRANCH   1   9
BRANCH   2  22
HETATM   22  N1  UNL     1      25.167   2.864  53.283  1.00  0.00    -0.339 N 
HETATM   23  H12 UNL     1      24.872   3.406  54.124  1.00  0.00     0.167 HD
BRANCH  22  24
HETATM   24  C13 UNL     1      24.676   3.127  51.978  1.00  0.00     0.035 A 
HETATM   25  C14 UNL     1      25.199   2.933  50.719  1.00  0.00     0.032 A 
HETATM   26  C15 UNL     1      24.442   3.308  49.638  1.00  0.00     0.046 A 
HETATM   27  C16 UNL     1      23.181   3.870  49.742  1.00  0.00     0.138 A 
HETATM   28  F1  UNL     1      22.506   4.211  48.627  1.00  0.00    -0.204 F 
HETATM   29  C17 UNL     1      22.664   4.062  51.006  1.00  0.00     0.074 A 
HETATM   30 CL1  UNL     1      21.065   4.777  51.068  1.00  0.00    -0.081 Cl
HETATM   31  C18 UNL     1      23.413   3.690  52.126  1.00  0.00     0.056 A 
ENDBRANCH  22  24
ENDBRANCH   2  22
TORSDOF 7
ENDMDL
MODEL 9
REMARK VINA RESULT:      -7.1      3.917      5.522
REMARK  7 active torsions:
REMARK  status: ('A' for Active; 'I' for Inactive)
REMARK    1  A    between atoms: C2_2  and  C3_3 
REMARK    2  A    between atoms: C2_2  and  S1_12 
REMARK    3  A    between atoms: C3_3  and  C4_4 
REMARK    4  A    between atoms: C10_10  and  O1_11 
REMARK    5  A    between atoms: S1_12  and  C11_13 
REMARK    6  A    between atoms: C12_14  and  N1_15 
REMARK    7  A    between atoms: N1_15  and  C13_16 
ROOT
HETATM    1  C11 UNL     1      24.463   2.571  51.630  1.00  0.00     0.121 A 
HETATM    2  C12 UNL     1      25.741   2.819  51.818  1.00  0.00     0.156 A 
HETATM    3  N2  UNL     1      26.538   3.464  50.840  1.00  0.00    -0.259 N 
HETATM    4  N3  UNL     1      26.043   3.894  49.595  1.00  0.00    -0.168 NA
HETATM    5  C19 UNL     1      24.771   3.663  49.378  1.00  0.00     0.230 A 
HETATM    6  N4  UNL     1      23.962   3.017  50.351  1.00  0.00    -0.341 N 
HETATM    7  H16 UNL     1      27.544   3.639  51.025  1.00  0.00     0.191 HD
HETATM    8  H18 UNL     1      22.974   2.935  49.964  1.00  0.00     0.167 HD
ENDROOT
BRANCH   1   9
HETATM    9  S1  UNL     1      23.163   1.845  52.562  1.00  0.00    -0.074 SA
BRANCH   9  10
HETATM   10  C2  UNL     1      21.519   2.224  52.073  1.00  0.00    -0.021 C 
HETATM   11  C1  UNL     1      20.577   3.151  52.169  1.00  0.00     0.027 C 
BRANCH  10  12
HETATM   12  C3  UNL     1      21.133   0.981  51.296  1.00  0.00     0.073 C 
BRANCH  12  13
HETATM   13  C4  UNL     1      20.063   0.249  51.983  1.00  0.00    -0.011 C 
HETATM   14  C5  UNL     1      18.828  -0.110  51.756  1.00  0.00    -0.025 A 
HETATM   15  C6  UNL     1      18.049  -0.892  52.768  1.00  0.00     0.068 A 
HETATM   16  C10 UNL     1      18.197   0.262  50.490  1.00  0.00     0.071 A 
HETATM   17  C7  UNL     1      16.696  -1.186  52.297  1.00  0.00    -0.022 A 
HETATM   18  C8  UNL     1      16.101  -0.859  51.144  1.00  0.00    -0.001 A 
HETATM   19  C9  UNL     1      16.950  -0.098  50.244  1.00  0.00     0.037 A 
BRANCH  16  20
HETATM   20  O1  UNL     1      18.796   0.980  49.486  1.00  0.00    -0.360 OA
HETATM   21  H11 UNL     1      18.428   0.920  48.527  1.00  0.00     0.217 HD
ENDBRANCH  16  20
ENDBRANCH  12  13
ENDBRANCH  10  12
ENDBRANCH   9  10
ENDBRANCH   1   9
BRANCH   2  22
HETATM   22  N1  UNL     1      26.395   2.481  53.020  1.00  0.00    -0.339 N 
HETATM   23  H12 UNL     1      25.980   3.061  53.781  1.00  0.00     0.167 HD
BRANCH  22  24
HETATM   24  C13 UNL     1      27.440   1.547  53.237  1.00  0.00     0.035 A 
HETATM   25  C14 UNL     1      28.732   1.671  53.698  1.00  0.00     0.032 A 
HETATM   26  C15 UNL     1      29.499   0.537  53.790  1.00  0.00     0.046 A 
HETATM   27  C16 UNL     1      29.046  -0.725  53.445  1.00  0.00     0.138 A 
HETATM   28  F1  UNL     1      29.868  -1.786  53.565  1.00  0.00    -0.204 F 
HETATM   29  C17 UNL     1      27.752  -0.842  52.983  1.00  0.00     0.074 A 
HETATM   30 CL1  UNL     1      27.242  -2.465  52.564  1.00  0.00    -0.081 Cl
HETATM   31  C18 UNL     1      26.948   0.296  52.879  1.00  0.00     0.056 A 
ENDBRANCH  22  24
ENDBRANCH   2  22
TORSDOF 7
ENDMDL
