MODEL 1
REMARK VINA RESULT:      -9.8      0.000      0.000
REMARK  3 active torsions:
REMARK  status: ('A' for Active; 'I' for Inactive)
REMARK    1  A    between atoms: C3_4  and  C4_5 
REMARK    2  A    between atoms: C13_14  and  O1_15 
REMARK    3  A    between atoms: C14_16  and  C15_17 
ROOT
HETATM    1  N1  UNL     1      19.559  -0.143  52.646  1.00  0.00    -0.192 NA
HETATM    2  C1  UNL     1      20.283  -0.517  53.472  1.00  0.00     0.087 C 
HETATM    3  C2  UNL     1      21.156  -0.988  54.503  1.00  0.00     0.094 C 
HETATM    4  C3  UNL     1      22.454  -0.898  54.629  1.00  0.00     0.022 C 
ENDROOT
BRANCH   4   5
HETATM    5  C4  UNL     1      23.472  -0.302  53.795  1.00  0.00    -0.034 A 
HETATM    6  C5  UNL     1      23.167   0.572  52.746  1.00  0.00     0.026 A 
HETATM    7  C6  UNL     1      24.135   1.139  51.953  1.00  0.00     0.009 A 
HETATM    8  C7  UNL     1      23.709   2.028  50.897  1.00  0.00    -0.023 A 
HETATM    9  C13 UNL     1      25.464   0.861  52.166  1.00  0.00     0.087 A 
HETATM   10  C8  UNL     1      24.427   3.202  50.782  1.00  0.00     0.012 A 
HETATM   11  C12 UNL     1      22.664   1.794  50.022  1.00  0.00     0.012 A 
HETATM   12  C9  UNL     1      24.093   4.127  49.794  1.00  0.00     0.001 A 
HETATM   13  C10 UNL     1      23.051   3.906  48.911  1.00  0.00     0.000 A 
HETATM   14  C11 UNL     1      22.330   2.717  49.035  1.00  0.00     0.001 A 
HETATM   15  C14 UNL     1      25.838   0.008  53.182  1.00  0.00     0.009 A 
HETATM   16  C21 UNL     1      24.822  -0.530  53.944  1.00  0.00     0.026 A 
BRANCH   9  17
HETATM   17  O1  UNL     1      26.400   1.453  51.345  1.00  0.00    -0.359 OA
HETATM   18  H9  UNL     1      27.086   2.068  51.774  1.00  0.00     0.217 HD
ENDBRANCH   9  17
BRANCH  15  19
HETATM   19  C15 UNL     1      27.247  -0.287  53.409  1.00  0.00    -0.023 A 
HETATM   20  C16 UNL     1      27.644  -1.528  52.932  1.00  0.00     0.012 A 
HETATM   21  C17 UNL     1      28.960  -1.973  53.063  1.00  0.00     0.001 A 
HETATM   22  C18 UNL     1      29.889  -1.153  53.687  1.00  0.00     0.000 A 
HETATM   23  C19 UNL     1      29.482   0.093  54.164  1.00  0.00     0.001 A 
HETATM   24  C20 UNL     1      28.188   0.503  54.022  1.00  0.00     0.012 A 
ENDBRANCH  15  19
ENDBRANCH   4   5
TORSDOF 3
ENDMDL
MODEL 2
REMARK VINA RESULT:      -9.7      2.684      5.999
REMARK  3 active torsions:
REMARK  status: ('A' for Active; 'I' for Inactive)
REMARK    1  A    between atoms: C3_4  and  C4_5 
REMARK    2  A    between atoms: C13_14  and  O1_15 
REMARK    3  A    between atoms: C14_16  and  C15_17 
ROOT
HETATM    1  N1  UNL     1      29.459   2.130  54.931  1.00  0.00    -0.192 NA
HETATM    2  C1  UNL     1      29.186   1.140  54.392  1.00  0.00     0.087 C 
HETATM    3  C2  UNL     1      28.870  -0.092  53.735  1.00  0.00     0.094 C 
HETATM    4  C3  UNL     1      27.829  -0.436  53.023  1.00  0.00     0.022 C 
ENDROOT
BRANCH   4   5
HETATM    5  C4  UNL     1      26.635   0.280  52.639  1.00  0.00    -0.034 A 
HETATM    6  C5  UNL     1      25.354  -0.135  53.024  1.00  0.00     0.026 A 
HETATM    7  C6  UNL     1      24.218   0.545  52.659  1.00  0.00     0.009 A 
HETATM    8  C7  UNL     1      22.947   0.029  53.112  1.00  0.00    -0.023 A 
HETATM    9  C13 UNL     1      24.299   1.679  51.887  1.00  0.00     0.087 A 
HETATM   10  C8  UNL     1      22.069   0.969  53.616  1.00  0.00     0.012 A 
HETATM   11  C12 UNL     1      22.559  -1.298  53.077  1.00  0.00     0.012 A 
HETATM   12  C9  UNL     1      20.816   0.570  54.079  1.00  0.00     0.001 A 
HETATM   13  C10 UNL     1      20.416  -0.753  54.050  1.00  0.00     0.000 A 
HETATM   14  C11 UNL     1      21.309  -1.697  53.540  1.00  0.00     0.001 A 
HETATM   15  C14 UNL     1      25.528   2.146  51.470  1.00  0.00     0.009 A 
HETATM   16  C21 UNL     1      26.632   1.421  51.868  1.00  0.00     0.026 A 
BRANCH   9  17
HETATM   17  O1  UNL     1      23.132   2.328  51.544  1.00  0.00    -0.359 OA
HETATM   18  H9  UNL     1      22.577   2.731  52.294  1.00  0.00     0.217 HD
ENDBRANCH   9  17
BRANCH  15  19
HETATM   19  C15 UNL     1      25.615   3.348  50.652  1.00  0.00    -0.023 A 
HETATM   20  C16 UNL     1      26.701   3.360  49.787  1.00  0.00     0.012 A 
HETATM   21  C17 UNL     1      26.938   4.435  48.930  1.00  0.00     0.001 A 
HETATM   22  C18 UNL     1      26.067   5.514  48.945  1.00  0.00     0.000 A 
HETATM   23  C19 UNL     1      24.978   5.494  49.817  1.00  0.00     0.001 A 
HETATM   24  C20 UNL     1      24.770   4.430  50.646  1.00  0.00     0.012 A 
ENDBRANCH  15  19
ENDBRANCH   4   5
TORSDOF 3
ENDMDL
MODEL 3
REMARK VINA RESULT:      -9.6      2.070      4.513
REMARK  3 active torsions:
REMARK  status: ('A' for Active; 'I' for Inactive)
REMARK    1  A    between atoms: C3_4  and  C4_5 
REMARK    2  A    between atoms: C13_14  and  O1_15 
REMARK    3  A    between atoms: C14_16  and  C15_17 
ROOT
HETATM    1  N1  UNL     1      23.800   5.993  51.625  1.00  0.00    -0.192 NA
HETATM    2  C1  UNL     1      24.202   5.280  50.804  1.00  0.00     0.087 C 
HETATM    3  C2  UNL     1      24.698   4.418  49.774  1.00  0.00     0.094 C 
HETATM    4  C3  UNL     1      25.070   3.167  49.816  1.00  0.00     0.022 C 
ENDROOT
BRANCH   4   5
HETATM    5  C4  UNL     1      25.121   2.203  50.891  1.00  0.00    -0.034 A 
HETATM    6  C5  UNL     1      23.968   1.694  51.499  1.00  0.00     0.026 A 
HETATM    7  C6  UNL     1      24.016   0.778  52.521  1.00  0.00     0.009 A 
HETATM    8  C7  UNL     1      22.764   0.319  53.077  1.00  0.00    -0.023 A 
HETATM    9  C13 UNL     1      25.223   0.318  52.992  1.00  0.00     0.087 A 
HETATM   10  C8  UNL     1      22.667  -1.044  53.280  1.00  0.00     0.012 A 
HETATM   11  C12 UNL     1      21.689   1.123  53.409  1.00  0.00     0.012 A 
HETATM   12  C9  UNL     1      21.498  -1.586  53.812  1.00  0.00     0.001 A 
HETATM   13  C10 UNL     1      20.415  -0.793  54.149  1.00  0.00     0.000 A 
HETATM   14  C11 UNL     1      20.521   0.583  53.939  1.00  0.00     0.001 A 
HETATM   15  C14 UNL     1      26.400   0.777  52.440  1.00  0.00     0.009 A 
HETATM   16  C21 UNL     1      26.288   1.695  51.418  1.00  0.00     0.026 A 
BRANCH   9  17
HETATM   17  O1  UNL     1      25.222  -0.601  54.020  1.00  0.00    -0.359 OA
HETATM   18  H9  UNL     1      25.058  -0.257  54.962  1.00  0.00     0.217 HD
ENDBRANCH   9  17
BRANCH  15  19
HETATM   19  C15 UNL     1      27.680   0.290  52.940  1.00  0.00    -0.023 A 
HETATM   20  C16 UNL     1      27.853  -1.080  52.798  1.00  0.00     0.012 A 
HETATM   21  C17 UNL     1      29.021  -1.715  53.222  1.00  0.00     0.001 A 
HETATM   22  C18 UNL     1      30.029  -0.957  53.799  1.00  0.00     0.000 A 
HETATM   23  C19 UNL     1      29.847   0.419  53.938  1.00  0.00     0.001 A 
HETATM   24  C20 UNL     1      28.695   1.016  53.514  1.00  0.00     0.012 A 
ENDBRANCH  15  19
ENDBRANCH   4   5
TORSDOF 3
ENDMDL
MODEL 4
REMARK VINA RESULT:      -9.4      2.501      6.119
REMARK  3 active torsions:
REMARK  status: ('A' for Active; 'I' for Inactive)
REMARK    1  A    between atoms: C3_4  and  C4_5 
REMARK    2  A    between atoms: C13_14  and  O1_15 
REMARK    3  A    between atoms: C14_16  and  C15_17 
ROOT
HETATM    1  N1  UNL     1      20.195   3.631  52.424  1.00  0.00    -0.192 NA
HETATM    2  C1  UNL     1      20.448   3.434  51.310  1.00  0.00     0.087 C 
HETATM    3  C2  UNL     1      20.736   3.191  49.929  1.00  0.00     0.094 C 
HETATM    4  C3  UNL     1      21.877   3.043  49.310  1.00  0.00     0.022 C 
ENDROOT
BRANCH   4   5
HETATM    5  C4  UNL     1      23.245   3.067  49.773  1.00  0.00    -0.034 A 
HETATM    6  C5  UNL     1      23.741   2.143  50.700  1.00  0.00     0.026 A 
HETATM    7  C6  UNL     1      25.041   2.166  51.141  1.00  0.00     0.009 A 
HETATM    8  C7  UNL     1      25.448   1.164  52.099  1.00  0.00    -0.023 A 
HETATM    9  C13 UNL     1      25.920   3.116  50.678  1.00  0.00     0.087 A 
HETATM   10  C8  UNL     1      26.661   0.555  51.845  1.00  0.00     0.012 A 
HETATM   11  C12 UNL     1      24.730   0.784  53.218  1.00  0.00     0.012 A 
HETATM   12  C9  UNL     1      27.141  -0.426  52.712  1.00  0.00     0.001 A 
HETATM   13  C10 UNL     1      26.433  -0.815  53.835  1.00  0.00     0.000 A 
HETATM   14  C11 UNL     1      25.208  -0.195  54.084  1.00  0.00     0.001 A 
HETATM   15  C14 UNL     1      25.501   4.059  49.763  1.00  0.00     0.009 A 
HETATM   16  C21 UNL     1      24.185   3.985  49.358  1.00  0.00     0.026 A 
BRANCH   9  17
HETATM   17  O1  UNL     1      27.216   3.100  51.149  1.00  0.00    -0.359 OA
HETATM   18  H9  UNL     1      27.841   2.383  50.791  1.00  0.00     0.217 HD
ENDBRANCH   9  17
BRANCH  15  19
HETATM   19  C15 UNL     1      26.432   5.066  49.272  1.00  0.00    -0.023 A 
HETATM   20  C16 UNL     1      26.025   6.371  49.513  1.00  0.00     0.012 A 
HETATM   21  C17 UNL     1      26.797   7.461  49.111  1.00  0.00     0.001 A 
HETATM   22  C18 UNL     1      27.996   7.232  48.453  1.00  0.00     0.000 A 
HETATM   23  C19 UNL     1      28.398   5.918  48.214  1.00  0.00     0.001 A 
HETATM   24  C20 UNL     1      27.624   4.869  48.619  1.00  0.00     0.012 A 
ENDBRANCH  15  19
ENDBRANCH   4   5
TORSDOF 3
ENDMDL
MODEL 5
REMARK VINA RESULT:      -9.4      2.560      4.785
REMARK  3 active torsions:
REMARK  status: ('A' for Active; 'I' for Inactive)
REMARK    1  A    between atoms: C3_4  and  C4_5 
REMARK    2  A    between atoms: C13_14  and  O1_15 
REMARK    3  A    between atoms: C14_16  and  C15_17 
ROOT
HETATM    1  N1  UNL     1      24.831   7.098  50.819  1.00  0.00    -0.192 NA
HETATM    2  C1  UNL     1      25.317   6.335  50.093  1.00  0.00     0.087 C 
HETATM    3  C2  UNL     1      25.922   5.412  49.181  1.00  0.00     0.094 C 
HETATM    4  C3  UNL     1      26.079   4.117  49.258  1.00  0.00     0.022 C 
ENDROOT
BRANCH   4   5
HETATM    5  C4  UNL     1      25.710   3.151  50.267  1.00  0.00    -0.034 A 
HETATM    6  C5  UNL     1      24.379   2.926  50.640  1.00  0.00     0.026 A 
HETATM    7  C6  UNL     1      24.028   2.008  51.599  1.00  0.00     0.009 A 
HETATM    8  C7  UNL     1      22.625   1.856  51.907  1.00  0.00    -0.023 A 
HETATM    9  C13 UNL     1      24.989   1.262  52.239  1.00  0.00     0.087 A 
HETATM   10  C8  UNL     1      22.176   0.554  52.010  1.00  0.00     0.012 A 
HETATM   11  C12 UNL     1      21.727   2.890  52.100  1.00  0.00     0.012 A 
HETATM   12  C9  UNL     1      20.836   0.302  52.304  1.00  0.00     0.001 A 
HETATM   13  C10 UNL     1      19.928   1.327  52.499  1.00  0.00     0.000 A 
HETATM   14  C11 UNL     1      20.390   2.640  52.393  1.00  0.00     0.001 A 
HETATM   15  C14 UNL     1      26.320   1.431  51.922  1.00  0.00     0.009 A 
HETATM   16  C21 UNL     1      26.611   2.367  50.953  1.00  0.00     0.026 A 
BRANCH   9  17
HETATM   17  O1  UNL     1      24.589   0.353  53.195  1.00  0.00    -0.359 OA
HETATM   18  H9  UNL     1      23.866   0.640  53.849  1.00  0.00     0.217 HD
ENDBRANCH   9  17
BRANCH  15  19
HETATM   19  C15 UNL     1      27.340   0.641  52.600  1.00  0.00    -0.023 A 
HETATM   20  C16 UNL     1      28.263   1.402  53.303  1.00  0.00     0.012 A 
HETATM   21  C17 UNL     1      29.308   0.808  54.012  1.00  0.00     0.001 A 
HETATM   22  C18 UNL     1      29.424  -0.574  54.010  1.00  0.00     0.000 A 
HETATM   23  C19 UNL     1      28.492  -1.331  53.301  1.00  0.00     0.001 A 
HETATM   24  C20 UNL     1      27.479  -0.725  52.616  1.00  0.00     0.012 A 
ENDBRANCH  15  19
ENDBRANCH   4   5
TORSDOF 3
ENDMDL
MODEL 6
REMARK VINA RESULT:      -8.7      3.222      5.171
REMARK  3 active torsions:
REMARK  status: ('A' for Active; 'I' for Inactive)
REMARK    1  A    between atoms: C3_4  and  C4_5 
REMARK    2  A    between atoms: C13_14  and  O1_15 
REMARK    3  A    between atoms: C14_16  and  C15_17 
ROOT
HETATM    1  N1  UNL     1      25.408   7.838  50.009  1.00  0.00    -0.192 NA
HETATM    2  C1  UNL     1      26.064   7.027  49.501  1.00  0.00     0.087 C 
HETATM    3  C2  UNL     1      26.886   6.045  48.863  1.00  0.00     0.094 C 
HETATM    4  C3  UNL     1      26.863   4.740  48.930  1.00  0.00     0.022 C 
ENDROOT
BRANCH   4   5
HETATM    5  C4  UNL     1      26.018   3.819  49.655  1.00  0.00    -0.034 A 
HETATM    6  C5  UNL     1      24.654   3.674  49.378  1.00  0.00     0.026 A 
HETATM    7  C6  UNL     1      23.851   2.799  50.067  1.00  0.00     0.009 A 
HETATM    8  C7  UNL     1      22.455   2.729  49.700  1.00  0.00    -0.023 A 
HETATM    9  C13 UNL     1      24.369   2.017  51.073  1.00  0.00     0.087 A 
HETATM   10  C8  UNL     1      21.934   1.456  49.581  1.00  0.00     0.012 A 
HETATM   11  C12 UNL     1      21.631   3.814  49.466  1.00  0.00     0.012 A 
HETATM   12  C9  UNL     1      20.596   1.283  49.229  1.00  0.00     0.001 A 
HETATM   13  C10 UNL     1      19.760   2.359  48.993  1.00  0.00     0.000 A 
HETATM   14  C11 UNL     1      20.295   3.643  49.115  1.00  0.00     0.001 A 
HETATM   15  C14 UNL     1      25.705   2.107  51.399  1.00  0.00     0.009 A 
HETATM   16  C21 UNL     1      26.460   3.004  50.673  1.00  0.00     0.026 A 
BRANCH   9  17
HETATM   17  O1  UNL     1      23.524   1.153  51.737  1.00  0.00    -0.359 OA
HETATM   18  H9  UNL     1      23.319   0.260  51.297  1.00  0.00     0.217 HD
ENDBRANCH   9  17
BRANCH  15  19
HETATM   19  C15 UNL     1      26.255   1.279  52.465  1.00  0.00    -0.023 A 
HETATM   20  C16 UNL     1      26.836   0.101  52.016  1.00  0.00     0.012 A 
HETATM   21  C17 UNL     1      27.413  -0.810  52.902  1.00  0.00     0.001 A 
HETATM   22  C18 UNL     1      27.402  -0.529  54.260  1.00  0.00     0.000 A 
HETATM   23  C19 UNL     1      26.816   0.657  54.702  1.00  0.00     0.001 A 
HETATM   24  C20 UNL     1      26.259   1.531  53.815  1.00  0.00     0.012 A 
ENDBRANCH  15  19
ENDBRANCH   4   5
TORSDOF 3
ENDMDL
MODEL 7
REMARK VINA RESULT:      -8.6      2.400      6.761
REMARK  3 active torsions:
REMARK  status: ('A' for Active; 'I' for Inactive)
REMARK    1  A    between atoms: C3_4  and  C4_5 
REMARK    2  A    between atoms: C13_14  and  O1_15 
REMARK    3  A    between atoms: C14_16  and  C15_17 
ROOT
HETATM    1  N1  UNL     1      27.255  -0.178  54.946  1.00  0.00    -0.192 NA
HETATM    2  C1  UNL     1      27.534   0.586  54.119  1.00  0.00     0.087 C 
HETATM    3  C2  UNL     1      27.903   1.528  53.107  1.00  0.00     0.094 C 
HETATM    4  C3  UNL     1      27.188   2.103  52.177  1.00  0.00     0.022 C 
ENDROOT
BRANCH   4   5
HETATM    5  C4  UNL     1      25.790   2.009  51.828  1.00  0.00    -0.034 A 
HETATM    6  C5  UNL     1      24.884   1.229  52.557  1.00  0.00     0.026 A 
HETATM    7  C6  UNL     1      23.555   1.140  52.226  1.00  0.00     0.009 A 
HETATM    8  C7  UNL     1      22.708   0.305  53.047  1.00  0.00    -0.023 A 
HETATM    9  C13 UNL     1      23.055   1.827  51.144  1.00  0.00     0.087 A 
HETATM   10  C8  UNL     1      21.491   0.857  53.399  1.00  0.00     0.012 A 
HETATM   11  C12 UNL     1      23.020  -0.966  53.492  1.00  0.00     0.012 A 
HETATM   12  C9  UNL     1      20.603   0.130  54.191  1.00  0.00     0.001 A 
HETATM   13  C10 UNL     1      20.903  -1.143  54.642  1.00  0.00     0.000 A 
HETATM   14  C11 UNL     1      22.135  -1.692  54.282  1.00  0.00     0.001 A 
HETATM   15  C14 UNL     1      23.890   2.614  50.381  1.00  0.00     0.009 A 
HETATM   16  C21 UNL     1      25.214   2.664  50.762  1.00  0.00     0.026 A 
BRANCH   9  17
HETATM   17  O1  UNL     1      21.714   1.706  50.850  1.00  0.00    -0.359 OA
HETATM   18  H9  UNL     1      21.215   0.908  51.233  1.00  0.00     0.217 HD
ENDBRANCH   9  17
BRANCH  15  19
HETATM   19  C15 UNL     1      23.361   3.343  49.234  1.00  0.00    -0.023 A 
HETATM   20  C16 UNL     1      23.657   4.699  49.248  1.00  0.00     0.012 A 
HETATM   21  C17 UNL     1      23.229   5.548  48.226  1.00  0.00     0.001 A 
HETATM   22  C18 UNL     1      22.491   5.021  47.177  1.00  0.00     0.000 A 
HETATM   23  C19 UNL     1      22.198   3.658  47.171  1.00  0.00     0.001 A 
HETATM   24  C20 UNL     1      22.629   2.849  48.183  1.00  0.00     0.012 A 
ENDBRANCH  15  19
ENDBRANCH   4   5
TORSDOF 3
ENDMDL
MODEL 8
REMARK VINA RESULT:      -8.6      2.435      5.232
REMARK  3 active torsions:
REMARK  status: ('A' for Active; 'I' for Inactive)
REMARK    1  A    between atoms: C3_4  and  C4_5 
REMARK    2  A    between atoms: C13_14  and  O1_15 
REMARK    3  A    between atoms: C14_16  and  C15_17 
ROOT
HETATM    1  N1  UNL     1      27.319  -0.141  54.823  1.00  0.00    -0.192 NA
HETATM    2  C1  UNL     1      27.571   0.662  54.024  1.00  0.00     0.087 C 
HETATM    3  C2  UNL     1      27.905   1.652  53.046  1.00  0.00     0.094 C 
HETATM    4  C3  UNL     1      27.164   2.252  52.153  1.00  0.00     0.022 C 
ENDROOT
BRANCH   4   5
HETATM    5  C4  UNL     1      25.762   2.146  51.823  1.00  0.00    -0.034 A 
HETATM    6  C5  UNL     1      25.195   2.813  50.731  1.00  0.00     0.026 A 
HETATM    7  C6  UNL     1      23.861   2.713  50.417  1.00  0.00     0.009 A 
HETATM    8  C7  UNL     1      23.381   3.443  49.267  1.00  0.00    -0.023 A 
HETATM    9  C13 UNL     1      23.019   1.939  51.180  1.00  0.00     0.087 A 
HETATM   10  C8  UNL     1      22.543   2.740  48.423  1.00  0.00     0.012 A 
HETATM   11  C12 UNL     1      23.691   4.756  48.961  1.00  0.00     0.012 A 
HETATM   12  C9  UNL     1      22.027   3.358  47.285  1.00  0.00     0.001 A 
HETATM   13  C10 UNL     1      22.329   4.670  46.967  1.00  0.00     0.000 A 
HETATM   14  C11 UNL     1      23.177   5.373  47.825  1.00  0.00     0.001 A 
HETATM   15  C14 UNL     1      23.509   1.254  52.272  1.00  0.00     0.009 A 
HETATM   16  C21 UNL     1      24.855   1.394  52.537  1.00  0.00     0.026 A 
BRANCH   9  17
HETATM   17  O1  UNL     1      21.689   1.869  50.827  1.00  0.00    -0.359 OA
HETATM   18  H9  UNL     1      21.319   2.601  50.227  1.00  0.00     0.217 HD
ENDBRANCH   9  17
BRANCH  15  19
HETATM   19  C15 UNL     1      22.617   0.433  53.081  1.00  0.00    -0.023 A 
HETATM   20  C16 UNL     1      22.971  -0.908  53.120  1.00  0.00     0.012 A 
HETATM   21  C17 UNL     1      22.228  -1.837  53.848  1.00  0.00     0.001 A 
HETATM   22  C18 UNL     1      21.109  -1.407  54.547  1.00  0.00     0.000 A 
HETATM   23  C19 UNL     1      20.760  -0.057  54.502  1.00  0.00     0.001 A 
HETATM   24  C20 UNL     1      21.506   0.831  53.782  1.00  0.00     0.012 A 
ENDBRANCH  15  19
ENDBRANCH   4   5
TORSDOF 3
ENDMDL
MODEL 9
REMARK VINA RESULT:      -8.3      3.168      7.501
REMARK  3 active torsions:
REMARK  status: ('A' for Active; 'I' for Inactive)
REMARK    1  A    between atoms: C3_4  and  C4_5 
REMARK    2  A    between atoms: C13_14  and  O1_15 
REMARK    3  A    between atoms: C14_16  and  C15_17 
ROOT
HETATM    1  N1  UNL     1      25.169   7.510  48.659  1.00  0.00    -0.192 NA
HETATM    2  C1  UNL     1      26.024   6.730  48.582  1.00  0.00     0.087 C 
HETATM    3  C2  UNL     1      27.093   5.785  48.473  1.00  0.00     0.094 C 
HETATM    4  C3  UNL     1      27.204   4.567  48.933  1.00  0.00     0.022 C 
ENDROOT
BRANCH   4   5
HETATM    5  C4  UNL     1      26.310   3.734  49.704  1.00  0.00    -0.034 A 
HETATM    6  C5  UNL     1      26.755   2.936  50.765  1.00  0.00     0.026 A 
HETATM    7  C6  UNL     1      25.906   2.144  51.498  1.00  0.00     0.009 A 
HETATM    8  C7  UNL     1      26.471   1.361  52.573  1.00  0.00    -0.023 A 
HETATM    9  C13 UNL     1      24.562   2.105  51.210  1.00  0.00     0.087 A 
HETATM   10  C8  UNL     1      25.765   1.383  53.760  1.00  0.00     0.012 A 
HETATM   11  C12 UNL     1      27.632   0.615  52.499  1.00  0.00     0.012 A 
HETATM   12  C9  UNL     1      26.230   0.659  54.857  1.00  0.00     0.001 A 
HETATM   13  C10 UNL     1      27.390  -0.092  54.797  1.00  0.00     0.000 A 
HETATM   14  C11 UNL     1      28.097  -0.108  53.593  1.00  0.00     0.001 A 
HETATM   15  C14 UNL     1      24.054   2.864  50.178  1.00  0.00     0.009 A 
HETATM   16  C21 UNL     1      24.955   3.639  49.478  1.00  0.00     0.026 A 
BRANCH   9  17
HETATM   17  O1  UNL     1      23.749   1.295  51.973  1.00  0.00    -0.359 OA
HETATM   18  H9  UNL     1      23.667   1.504  52.964  1.00  0.00     0.217 HD
ENDBRANCH   9  17
BRANCH  15  19
HETATM   19  C15 UNL     1      22.630   2.823  49.872  1.00  0.00    -0.023 A 
HETATM   20  C16 UNL     1      22.293   1.901  48.890  1.00  0.00     0.012 A 
HETATM   21  C17 UNL     1      20.973   1.729  48.474  1.00  0.00     0.001 A 
HETATM   22  C18 UNL     1      19.977   2.500  49.055  1.00  0.00     0.000 A 
HETATM   23  C19 UNL     1      20.324   3.425  50.040  1.00  0.00     0.001 A 
HETATM   24  C20 UNL     1      21.623   3.572  50.430  1.00  0.00     0.012 A 
ENDBRANCH  15  19
ENDBRANCH   4   5
TORSDOF 3
ENDMDL
