MODEL 1
REMARK VINA RESULT:      -8.9      0.000      0.000
REMARK  9 active torsions:
REMARK  status: ('A' for Active; 'I' for Inactive)
REMARK    1  A    between atoms: C1_2  and  O2_3 
REMARK    2  A    between atoms: C1_2  and  C2_4 
REMARK    3  A    between atoms: C2_4  and  C3_5 
REMARK    4  A    between atoms: C3_5  and  C4_6 
REMARK    5  A    between atoms: C4_6  and  C5_7 
REMARK    6  A    between atoms: C6_8  and  N1_9 
REMARK    7  A    between atoms: N1_9  and  C7_10 
REMARK    8  A    between atoms: C7_10  and  C8_11 
REMARK    9  A    between atoms: C13_18  and  C14_19 
ROOT
HETATM    1  C8  UNL     1      22.525   3.969  52.055  1.00  0.00     0.010 C 
HETATM    2  C9  UNL     1      23.773   3.741  51.735  1.00  0.00     0.042 A 
HETATM    3  C10 UNL     1      24.650   4.490  50.878  1.00  0.00     0.256 A 
HETATM    4  O3  UNL     1      24.400   5.541  50.245  1.00  0.00    -0.267 OA
HETATM    5  N2  UNL     1      25.927   3.874  50.818  1.00  0.00    -0.322 N 
HETATM    6  C11 UNL     1      25.838   2.711  51.660  1.00  0.00     0.047 A 
HETATM    7  C12 UNL     1      26.865   1.805  51.896  1.00  0.00     0.042 A 
HETATM    8  C13 UNL     1      26.594   0.743  52.737  1.00  0.00    -0.024 A 
HETATM    9  C20 UNL     1      25.349   0.589  53.322  1.00  0.00     0.013 A 
HETATM   10  C21 UNL     1      24.365   1.534  53.042  1.00  0.00     0.015 A 
HETATM   11  C22 UNL     1      24.572   2.621  52.208  1.00  0.00     0.006 A 
HETATM   12  H12 UNL     1      26.768   4.210  50.262  1.00  0.00     0.169 HD
ENDROOT
BRANCH   1  13
HETATM   13  C7  UNL     1      21.696   5.085  51.594  1.00  0.00     0.148 C 
BRANCH  13  14
HETATM   14  N1  UNL     1      20.429   4.617  51.019  1.00  0.00    -0.389 N 
HETATM   15  H8  UNL     1      19.457   4.962  51.189  1.00  0.00     0.159 HD
BRANCH  14  16
HETATM   16  C6  UNL     1      20.549   3.537  50.097  1.00  0.00     0.007 C 
HETATM   17  C5  UNL     1      20.289   2.262  50.342  1.00  0.00    -0.058 C 
HETATM   18  C26 UNL     1      20.497   1.340  49.194  1.00  0.00     0.036 C 
HETATM   19  C25 UNL     1      21.894   1.531  48.644  1.00  0.00     0.005 C 
HETATM   20  C24 UNL     1      22.252   2.973  48.491  1.00  0.00     0.006 C 
HETATM   21  C23 UNL     1      21.016   3.858  48.701  1.00  0.00     0.057 C 
BRANCH  17  22
HETATM   22  C4  UNL     1      19.820   1.676  51.624  1.00  0.00     0.036 C 
BRANCH  22  23
HETATM   23  C3  UNL     1      20.802   0.584  51.995  1.00  0.00     0.015 C 
BRANCH  23  24
HETATM   24  C2  UNL     1      20.949   0.464  53.497  1.00  0.00     0.110 C 
BRANCH  24  25
HETATM   25  C1  UNL     1      21.475  -0.900  53.864  1.00  0.00     0.139 C 
HETATM   26  O1  UNL     1      22.401  -1.383  53.149  1.00  0.00    -0.650 OA
BRANCH  25  27
HETATM   27  O2  UNL     1      20.891  -1.516  54.966  1.00  0.00    -0.776 OA
HETATM   28  H1  UNL     1      19.862  -1.462  54.997  1.00  0.00     0.167 HD
ENDBRANCH  25  27
ENDBRANCH  24  25
ENDBRANCH  23  24
ENDBRANCH  22  23
ENDBRANCH  17  22
ENDBRANCH  14  16
ENDBRANCH  13  14
ENDBRANCH   1  13
BRANCH   8  29
HETATM   29  C14 UNL     1      27.666  -0.224  52.996  1.00  0.00    -0.026 A 
HETATM   30  C15 UNL     1      27.342  -1.533  52.707  1.00  0.00     0.012 A 
HETATM   31  C16 UNL     1      28.244  -2.574  52.896  1.00  0.00     0.001 A 
HETATM   32  C17 UNL     1      29.522  -2.299  53.390  1.00  0.00     0.000 A 
HETATM   33  C18 UNL     1      29.823  -0.975  53.671  1.00  0.00     0.001 A 
HETATM   34  C19 UNL     1      28.919   0.053  53.482  1.00  0.00     0.012 A 
ENDBRANCH   8  29
TORSDOF 9
ENDMDL
MODEL 2
REMARK VINA RESULT:      -8.8      3.944      6.832
REMARK  9 active torsions:
REMARK  status: ('A' for Active; 'I' for Inactive)
REMARK    1  A    between atoms: C1_2  and  O2_3 
REMARK    2  A    between atoms: C1_2  and  C2_4 
REMARK    3  A    between atoms: C2_4  and  C3_5 
REMARK    4  A    between atoms: C3_5  and  C4_6 
REMARK    5  A    between atoms: C4_6  and  C5_7 
REMARK    6  A    between atoms: C6_8  and  N1_9 
REMARK    7  A    between atoms: N1_9  and  C7_10 
REMARK    8  A    between atoms: C7_10  and  C8_11 
REMARK    9  A    between atoms: C13_18  and  C14_19 
ROOT
HETATM    1  C8  UNL     1      24.191   2.891  51.232  1.00  0.00     0.010 C 
HETATM    2  C9  UNL     1      24.429   4.112  50.824  1.00  0.00     0.042 A 
HETATM    3  C10 UNL     1      23.676   5.315  51.048  1.00  0.00     0.256 A 
HETATM    4  O3  UNL     1      22.612   5.452  51.693  1.00  0.00    -0.267 OA
HETATM    5  N2  UNL     1      24.307   6.418  50.415  1.00  0.00    -0.322 N 
HETATM    6  C11 UNL     1      25.483   5.883  49.782  1.00  0.00     0.047 A 
HETATM    7  C12 UNL     1      26.405   6.614  49.044  1.00  0.00     0.042 A 
HETATM    8  C13 UNL     1      27.477   5.927  48.508  1.00  0.00    -0.024 A 
HETATM    9  C20 UNL     1      27.627   4.564  48.701  1.00  0.00     0.013 A 
HETATM   10  C21 UNL     1      26.666   3.893  49.453  1.00  0.00     0.015 A 
HETATM   11  C22 UNL     1      25.567   4.523  50.016  1.00  0.00     0.006 A 
HETATM   12  H12 UNL     1      23.971   7.426  50.415  1.00  0.00     0.169 HD
ENDROOT
BRANCH   1  13
HETATM   13  C7  UNL     1      23.055   2.449  52.043  1.00  0.00     0.148 C 
BRANCH  13  14
HETATM   14  N1  UNL     1      22.839   1.002  51.928  1.00  0.00    -0.389 N 
HETATM   15  H8  UNL     1      22.714   0.417  51.070  1.00  0.00     0.159 HD
BRANCH  14  16
HETATM   16  C6  UNL     1      22.793   0.299  53.167  1.00  0.00     0.007 C 
HETATM   17  C5  UNL     1      23.802  -0.323  53.756  1.00  0.00    -0.058 C 
HETATM   18  C26 UNL     1      23.475  -0.976  55.051  1.00  0.00     0.036 C 
HETATM   19  C25 UNL     1      22.285  -1.893  54.865  1.00  0.00     0.005 C 
HETATM   20  C24 UNL     1      21.190  -1.250  54.079  1.00  0.00     0.006 C 
HETATM   21  C23 UNL     1      21.472   0.247  53.892  1.00  0.00     0.057 C 
BRANCH  17  22
HETATM   22  C4  UNL     1      25.198  -0.428  53.262  1.00  0.00     0.036 C 
BRANCH  22  23
HETATM   23  C3  UNL     1      25.955   0.761  53.820  1.00  0.00     0.015 C 
BRANCH  23  24
HETATM   24  C2  UNL     1      26.992   1.262  52.838  1.00  0.00     0.110 C 
BRANCH  24  25
HETATM   25  C1  UNL     1      28.176   1.832  53.575  1.00  0.00     0.139 C 
HETATM   26  O1  UNL     1      28.489   1.303  54.681  1.00  0.00    -0.650 OA
BRANCH  25  27
HETATM   27  O2  UNL     1      28.828   2.903  52.970  1.00  0.00    -0.776 OA
HETATM   28  H1  UNL     1      29.747   3.134  53.376  1.00  0.00     0.167 HD
ENDBRANCH  25  27
ENDBRANCH  24  25
ENDBRANCH  23  24
ENDBRANCH  22  23
ENDBRANCH  17  22
ENDBRANCH  14  16
ENDBRANCH  13  14
ENDBRANCH   1  13
BRANCH   8  29
HETATM   29  C14 UNL     1      28.460   6.682  47.724  1.00  0.00    -0.026 A 
HETATM   30  C15 UNL     1      29.760   6.239  47.850  1.00  0.00     0.012 A 
HETATM   31  C16 UNL     1      30.814   6.844  47.173  1.00  0.00     0.001 A 
HETATM   32  C17 UNL     1      30.561   7.935  46.336  1.00  0.00     0.000 A 
HETATM   33  C18 UNL     1      29.246   8.360  46.227  1.00  0.00     0.001 A 
HETATM   34  C19 UNL     1      28.205   7.752  46.904  1.00  0.00     0.012 A 
ENDBRANCH   8  29
TORSDOF 9
ENDMDL
MODEL 3
REMARK VINA RESULT:      -8.5      4.608      8.142
REMARK  9 active torsions:
REMARK  status: ('A' for Active; 'I' for Inactive)
REMARK    1  A    between atoms: C1_2  and  O2_3 
REMARK    2  A    between atoms: C1_2  and  C2_4 
REMARK    3  A    between atoms: C2_4  and  C3_5 
REMARK    4  A    between atoms: C3_5  and  C4_6 
REMARK    5  A    between atoms: C4_6  and  C5_7 
REMARK    6  A    between atoms: C6_8  and  N1_9 
REMARK    7  A    between atoms: N1_9  and  C7_10 
REMARK    8  A    between atoms: C7_10  and  C8_11 
REMARK    9  A    between atoms: C13_18  and  C14_19 
ROOT
HETATM    1  C8  UNL     1      27.260   4.328  49.204  1.00  0.00     0.010 C 
HETATM    2  C9  UNL     1      26.043   4.221  49.673  1.00  0.00     0.042 A 
HETATM    3  C10 UNL     1      24.895   5.054  49.441  1.00  0.00     0.256 A 
HETATM    4  O3  UNL     1      24.817   6.080  48.727  1.00  0.00    -0.267 OA
HETATM    5  N2  UNL     1      23.773   4.561  50.156  1.00  0.00    -0.322 N 
HETATM    6  C11 UNL     1      24.239   3.390  50.851  1.00  0.00     0.047 A 
HETATM    7  C12 UNL     1      23.468   2.584  51.679  1.00  0.00     0.042 A 
HETATM    8  C13 UNL     1      24.089   1.497  52.264  1.00  0.00    -0.024 A 
HETATM    9  C20 UNL     1      25.427   1.222  52.032  1.00  0.00     0.013 A 
HETATM   10  C21 UNL     1      26.140   2.072  51.190  1.00  0.00     0.015 A 
HETATM   11  C22 UNL     1      25.576   3.178  50.574  1.00  0.00     0.006 A 
HETATM   12  H12 UNL     1      22.796   4.978  50.170  1.00  0.00     0.169 HD
ENDROOT
BRANCH   1  13
HETATM   13  C7  UNL     1      27.757   5.366  48.299  1.00  0.00     0.148 C 
BRANCH  13  14
HETATM   14  N1  UNL     1      28.061   6.610  49.017  1.00  0.00    -0.389 N 
HETATM   15  H8  UNL     1      28.214   6.765  50.039  1.00  0.00     0.159 HD
BRANCH  14  16
HETATM   16  C6  UNL     1      28.159   7.771  48.195  1.00  0.00     0.007 C 
HETATM   17  C5  UNL     1      29.083   8.715  48.275  1.00  0.00    -0.058 C 
HETATM   18  C26 UNL     1      28.950   9.819  47.288  1.00  0.00     0.036 C 
HETATM   19  C25 UNL     1      27.553  10.396  47.367  1.00  0.00     0.005 C 
HETATM   20  C24 UNL     1      26.502   9.336  47.417  1.00  0.00     0.006 C 
HETATM   21  C23 UNL     1      27.115   7.960  47.124  1.00  0.00     0.057 C 
BRANCH  17  22
HETATM   22  C4  UNL     1      30.217   8.776  49.232  1.00  0.00     0.036 C 
BRANCH  22  23
HETATM   23  C3  UNL     1      31.389   8.076  48.574  1.00  0.00     0.015 C 
BRANCH  23  24
HETATM   24  C2  UNL     1      32.203   7.297  49.585  1.00  0.00     0.110 C 
BRANCH  24  25
HETATM   25  C1  UNL     1      31.576   5.950  49.834  1.00  0.00     0.139 C 
HETATM   26  O1  UNL     1      31.069   5.347  48.843  1.00  0.00    -0.650 OA
BRANCH  25  27
HETATM   27  O2  UNL     1      31.607   5.482  51.144  1.00  0.00    -0.776 OA
HETATM   28  H1  UNL     1      32.445   4.933  51.386  1.00  0.00     0.167 HD
ENDBRANCH  25  27
ENDBRANCH  24  25
ENDBRANCH  23  24
ENDBRANCH  22  23
ENDBRANCH  17  22
ENDBRANCH  14  16
ENDBRANCH  13  14
ENDBRANCH   1  13
BRANCH   8  29
HETATM   29  C14 UNL     1      23.292   0.636  53.143  1.00  0.00    -0.026 A 
HETATM   30  C15 UNL     1      21.954   0.964  53.212  1.00  0.00     0.012 A 
HETATM   31  C16 UNL     1      21.058   0.249  53.999  1.00  0.00     0.001 A 
HETATM   32  C17 UNL     1      21.515  -0.839  54.748  1.00  0.00     0.000 A 
HETATM   33  C18 UNL     1      22.863  -1.150  54.661  1.00  0.00     0.001 A 
HETATM   34  C19 UNL     1      23.746  -0.431  53.876  1.00  0.00     0.012 A 
ENDBRANCH   8  29
TORSDOF 9
ENDMDL
MODEL 4
REMARK VINA RESULT:      -8.4      4.695      7.700
REMARK  9 active torsions:
REMARK  status: ('A' for Active; 'I' for Inactive)
REMARK    1  A    between atoms: C1_2  and  O2_3 
REMARK    2  A    between atoms: C1_2  and  C2_4 
REMARK    3  A    between atoms: C2_4  and  C3_5 
REMARK    4  A    between atoms: C3_5  and  C4_6 
REMARK    5  A    between atoms: C4_6  and  C5_7 
REMARK    6  A    between atoms: C6_8  and  N1_9 
REMARK    7  A    between atoms: N1_9  and  C7_10 
REMARK    8  A    between atoms: C7_10  and  C8_11 
REMARK    9  A    between atoms: C13_18  and  C14_19 
ROOT
HETATM    1  C8  UNL     1      25.169   4.467  49.108  1.00  0.00     0.010 C 
HETATM    2  C9  UNL     1      25.324   5.622  49.704  1.00  0.00     0.042 A 
HETATM    3  C10 UNL     1      24.607   6.182  50.816  1.00  0.00     0.256 A 
HETATM    4  O3  UNL     1      23.663   5.672  51.462  1.00  0.00    -0.267 OA
HETATM    5  N2  UNL     1      25.114   7.469  51.134  1.00  0.00    -0.322 N 
HETATM    6  C11 UNL     1      26.174   7.712  50.193  1.00  0.00     0.047 A 
HETATM    7  C12 UNL     1      26.954   8.860  50.136  1.00  0.00     0.042 A 
HETATM    8  C13 UNL     1      27.930   8.917  49.160  1.00  0.00    -0.024 A 
HETATM    9  C20 UNL     1      28.123   7.871  48.274  1.00  0.00     0.013 A 
HETATM   10  C21 UNL     1      27.305   6.750  48.387  1.00  0.00     0.015 A 
HETATM   11  C22 UNL     1      26.309   6.630  49.344  1.00  0.00     0.006 A 
HETATM   12  H12 UNL     1      24.773   8.111  51.909  1.00  0.00     0.169 HD
ENDROOT
BRANCH   1  13
HETATM   13  C7  UNL     1      24.187   3.435  49.447  1.00  0.00     0.148 C 
BRANCH  13  14
HETATM   14  N1  UNL     1      24.602   2.659  50.621  1.00  0.00    -0.389 N 
HETATM   15  H8  UNL     1      25.563   2.483  50.994  1.00  0.00     0.159 HD
BRANCH  14  16
HETATM   16  C6  UNL     1      23.537   2.059  51.354  1.00  0.00     0.007 C 
HETATM   17  C5  UNL     1      23.641   1.410  52.503  1.00  0.00    -0.058 C 
HETATM   18  C26 UNL     1      22.363   0.886  53.054  1.00  0.00     0.036 C 
HETATM   19  C25 UNL     1      21.668   0.050  52.000  1.00  0.00     0.005 C 
HETATM   20  C24 UNL     1      21.665   0.712  50.661  1.00  0.00     0.006 C 
HETATM   21  C23 UNL     1      22.147   2.164  50.780  1.00  0.00     0.057 C 
BRANCH  17  22
HETATM   22  C4  UNL     1      24.882   1.162  53.281  1.00  0.00     0.036 C 
BRANCH  22  23
HETATM   23  C3  UNL     1      25.801   0.345  52.395  1.00  0.00     0.015 C 
BRANCH  23  24
HETATM   24  C2  UNL     1      27.254   0.584  52.742  1.00  0.00     0.110 C 
BRANCH  24  25
HETATM   25  C1  UNL     1      27.523   2.060  52.881  1.00  0.00     0.139 C 
HETATM   26  O1  UNL     1      27.846   2.492  54.026  1.00  0.00    -0.650 OA
BRANCH  25  27
HETATM   27  O2  UNL     1      27.389   2.828  51.728  1.00  0.00    -0.776 OA
HETATM   28  H1  UNL     1      27.584   3.832  51.853  1.00  0.00     0.167 HD
ENDBRANCH  25  27
ENDBRANCH  24  25
ENDBRANCH  23  24
ENDBRANCH  22  23
ENDBRANCH  17  22
ENDBRANCH  14  16
ENDBRANCH  13  14
ENDBRANCH   1  13
BRANCH   8  29
HETATM   29  C14 UNL     1      28.762  10.123  49.084  1.00  0.00    -0.026 A 
HETATM   30  C15 UNL     1      28.059  11.298  48.916  1.00  0.00     0.012 A 
HETATM   31  C16 UNL     1      28.695  12.531  48.825  1.00  0.00     0.001 A 
HETATM   32  C17 UNL     1      30.089  12.596  48.907  1.00  0.00     0.000 A 
HETATM   33  C18 UNL     1      30.772  11.401  49.077  1.00  0.00     0.001 A 
HETATM   34  C19 UNL     1      30.130  10.180  49.164  1.00  0.00     0.012 A 
ENDBRANCH   8  29
TORSDOF 9
ENDMDL
MODEL 5
REMARK VINA RESULT:      -8.2      4.860      8.455
REMARK  9 active torsions:
REMARK  status: ('A' for Active; 'I' for Inactive)
REMARK    1  A    between atoms: C1_2  and  O2_3 
REMARK    2  A    between atoms: C1_2  and  C2_4 
REMARK    3  A    between atoms: C2_4  and  C3_5 
REMARK    4  A    between atoms: C3_5  and  C4_6 
REMARK    5  A    between atoms: C4_6  and  C5_7 
REMARK    6  A    between atoms: C6_8  and  N1_9 
REMARK    7  A    between atoms: N1_9  and  C7_10 
REMARK    8  A    between atoms: C7_10  and  C8_11 
REMARK    9  A    between atoms: C13_18  and  C14_19 
ROOT
HETATM    1  C8  UNL     1      25.645   6.354  49.593  1.00  0.00     0.010 C 
HETATM    2  C9  UNL     1      25.793   5.078  49.838  1.00  0.00     0.042 A 
HETATM    3  C10 UNL     1      26.799   4.165  49.368  1.00  0.00     0.256 A 
HETATM    4  O3  UNL     1      27.766   4.405  48.608  1.00  0.00    -0.267 OA
HETATM    5  N2  UNL     1      26.571   2.865  49.890  1.00  0.00    -0.322 N 
HETATM    6  C11 UNL     1      25.391   2.976  50.706  1.00  0.00     0.047 A 
HETATM    7  C12 UNL     1      24.801   1.938  51.416  1.00  0.00     0.042 A 
HETATM    8  C13 UNL     1      23.667   2.233  52.147  1.00  0.00    -0.024 A 
HETATM    9  C20 UNL     1      23.140   3.513  52.173  1.00  0.00     0.013 A 
HETATM   10  C21 UNL     1      23.782   4.507  51.439  1.00  0.00     0.015 A 
HETATM   11  C22 UNL     1      24.923   4.276  50.684  1.00  0.00     0.006 A 
HETATM   12  H12 UNL     1      27.156   1.997  49.709  1.00  0.00     0.169 HD
ENDROOT
BRANCH   1  13
HETATM   13  C7  UNL     1      26.504   7.185  48.745  1.00  0.00     0.148 C 
BRANCH  13  14
HETATM   14  N1  UNL     1      27.829   7.382  49.346  1.00  0.00    -0.389 N 
HETATM   15  H8  UNL     1      28.269   6.889  50.156  1.00  0.00     0.159 HD
BRANCH  14  16
HETATM   16  C6  UNL     1      28.624   8.392  48.731  1.00  0.00     0.007 C 
HETATM   17  C5  UNL     1      29.382   8.250  47.656  1.00  0.00    -0.058 C 
HETATM   18  C26 UNL     1      30.107   9.475  47.225  1.00  0.00     0.036 C 
HETATM   19  C25 UNL     1      30.893  10.031  48.393  1.00  0.00     0.005 C 
HETATM   20  C24 UNL     1      30.089  10.068  49.652  1.00  0.00     0.006 C 
HETATM   21  C23 UNL     1      28.614   9.765  49.354  1.00  0.00     0.057 C 
BRANCH  17  22
HETATM   22  C4  UNL     1      29.575   7.015  46.854  1.00  0.00     0.036 C 
BRANCH  22  23
HETATM   23  C3  UNL     1      30.981   6.524  47.130  1.00  0.00     0.015 C 
BRANCH  23  24
HETATM   24  C2  UNL     1      30.996   5.491  48.237  1.00  0.00     0.110 C 
BRANCH  24  25
HETATM   25  C1  UNL     1      31.766   6.008  49.424  1.00  0.00     0.139 C 
HETATM   26  O1  UNL     1      32.649   6.889  49.211  1.00  0.00    -0.650 OA
BRANCH  25  27
HETATM   27  O2  UNL     1      31.438   5.465  50.662  1.00  0.00    -0.776 OA
HETATM   28  H1  UNL     1      31.968   5.851  51.457  1.00  0.00     0.167 HD
ENDBRANCH  25  27
ENDBRANCH  24  25
ENDBRANCH  23  24
ENDBRANCH  22  23
ENDBRANCH  17  22
ENDBRANCH  14  16
ENDBRANCH  13  14
ENDBRANCH   1  13
BRANCH   8  29
HETATM   29  C14 UNL     1      23.029   1.149  52.901  1.00  0.00    -0.026 A 
HETATM   30  C15 UNL     1      21.665   1.283  53.062  1.00  0.00     0.012 A 
HETATM   31  C16 UNL     1      20.908   0.343  53.752  1.00  0.00     0.001 A 
HETATM   32  C17 UNL     1      21.535  -0.779  54.302  1.00  0.00     0.000 A 
HETATM   33  C18 UNL     1      22.906  -0.891  54.126  1.00  0.00     0.001 A 
HETATM   34  C19 UNL     1      23.650   0.050  53.440  1.00  0.00     0.012 A 
ENDBRANCH   8  29
TORSDOF 9
ENDMDL
MODEL 6
REMARK VINA RESULT:      -8.2      2.696      8.680
REMARK  9 active torsions:
REMARK  status: ('A' for Active; 'I' for Inactive)
REMARK    1  A    between atoms: C1_2  and  O2_3 
REMARK    2  A    between atoms: C1_2  and  C2_4 
REMARK    3  A    between atoms: C2_4  and  C3_5 
REMARK    4  A    between atoms: C3_5  and  C4_6 
REMARK    5  A    between atoms: C4_6  and  C5_7 
REMARK    6  A    between atoms: C6_8  and  N1_9 
REMARK    7  A    between atoms: N1_9  and  C7_10 
REMARK    8  A    between atoms: C7_10  and  C8_11 
REMARK    9  A    between atoms: C13_18  and  C14_19 
ROOT
HETATM    1  C8  UNL     1      24.078  -0.703  53.198  1.00  0.00     0.010 C 
HETATM    2  C9  UNL     1      22.819  -0.778  53.546  1.00  0.00     0.042 A 
HETATM    3  C10 UNL     1      22.233  -1.276  54.760  1.00  0.00     0.256 A 
HETATM    4  O3  UNL     1      22.816  -1.754  55.761  1.00  0.00    -0.267 OA
HETATM    5  N2  UNL     1      20.819  -1.164  54.708  1.00  0.00    -0.322 N 
HETATM    6  C11 UNL     1      20.522  -0.581  53.427  1.00  0.00     0.047 A 
HETATM    7  C12 UNL     1      19.250  -0.291  52.949  1.00  0.00     0.042 A 
HETATM    8  C13 UNL     1      19.158   0.270  51.689  1.00  0.00    -0.024 A 
HETATM    9  C20 UNL     1      20.289   0.532  50.934  1.00  0.00     0.013 A 
HETATM   10  C21 UNL     1      21.533   0.216  51.476  1.00  0.00     0.015 A 
HETATM   11  C22 UNL     1      21.693  -0.348  52.732  1.00  0.00     0.006 A 
HETATM   12  H12 UNL     1      20.132  -1.455  55.465  1.00  0.00     0.169 HD
ENDROOT
BRANCH   1  13
HETATM   13  C7  UNL     1      25.230  -1.129  53.995  1.00  0.00     0.148 C 
BRANCH  13  14
HETATM   14  N1  UNL     1      25.627  -0.101  54.965  1.00  0.00    -0.389 N 
HETATM   15  H8  UNL     1      25.169   0.174  55.864  1.00  0.00     0.159 HD
BRANCH  14  16
HETATM   16  C6  UNL     1      26.806   0.625  54.626  1.00  0.00     0.007 C 
HETATM   17  C5  UNL     1      26.868   1.728  53.898  1.00  0.00    -0.058 C 
HETATM   18  C26 UNL     1      28.234   2.282  53.700  1.00  0.00     0.036 C 
HETATM   19  C25 UNL     1      29.139   1.200  53.153  1.00  0.00     0.005 C 
HETATM   20  C24 UNL     1      28.979  -0.096  53.879  1.00  0.00     0.006 C 
HETATM   21  C23 UNL     1      28.122   0.098  55.137  1.00  0.00     0.057 C 
BRANCH  17  22
HETATM   22  C4  UNL     1      25.731   2.453  53.275  1.00  0.00     0.036 C 
BRANCH  22  23
HETATM   23  C3  UNL     1      25.740   2.104  51.801  1.00  0.00     0.015 C 
BRANCH  23  24
HETATM   24  C2  UNL     1      24.988   3.134  50.987  1.00  0.00     0.110 C 
BRANCH  24  25
HETATM   25  C1  UNL     1      25.944   3.928  50.135  1.00  0.00     0.139 C 
HETATM   26  O1  UNL     1      26.700   3.286  49.349  1.00  0.00    -0.650 OA
BRANCH  25  27
HETATM   27  O2  UNL     1      25.914   5.311  50.289  1.00  0.00    -0.776 OA
HETATM   28  H1  UNL     1      26.285   5.653  51.187  1.00  0.00     0.167 HD
ENDBRANCH  25  27
ENDBRANCH  24  25
ENDBRANCH  23  24
ENDBRANCH  22  23
ENDBRANCH  17  22
ENDBRANCH  14  16
ENDBRANCH  13  14
ENDBRANCH   1  13
BRANCH   8  29
HETATM   29  C14 UNL     1      17.824   0.581  51.167  1.00  0.00    -0.026 A 
HETATM   30  C15 UNL     1      17.813   1.111  49.894  1.00  0.00     0.012 A 
HETATM   31  C16 UNL     1      16.631   1.461  49.251  1.00  0.00     0.001 A 
HETATM   32  C17 UNL     1      15.409   1.275  49.904  1.00  0.00     0.000 A 
HETATM   33  C18 UNL     1      15.447   0.741  51.183  1.00  0.00     0.001 A 
HETATM   34  C19 UNL     1      16.628   0.397  51.814  1.00  0.00     0.012 A 
ENDBRANCH   8  29
TORSDOF 9
ENDMDL
MODEL 7
REMARK VINA RESULT:      -8.0      5.606      7.883
REMARK  9 active torsions:
REMARK  status: ('A' for Active; 'I' for Inactive)
REMARK    1  A    between atoms: C1_2  and  O2_3 
REMARK    2  A    between atoms: C1_2  and  C2_4 
REMARK    3  A    between atoms: C2_4  and  C3_5 
REMARK    4  A    between atoms: C3_5  and  C4_6 
REMARK    5  A    between atoms: C4_6  and  C5_7 
REMARK    6  A    between atoms: C6_8  and  N1_9 
REMARK    7  A    between atoms: N1_9  and  C7_10 
REMARK    8  A    between atoms: C7_10  and  C8_11 
REMARK    9  A    between atoms: C13_18  and  C14_19 
ROOT
HETATM    1  C8  UNL     1      26.806   3.985  49.230  1.00  0.00     0.010 C 
HETATM    2  C9  UNL     1      26.933   5.232  48.853  1.00  0.00     0.042 A 
HETATM    3  C10 UNL     1      25.956   6.286  48.832  1.00  0.00     0.256 A 
HETATM    4  O3  UNL     1      24.753   6.232  49.178  1.00  0.00    -0.267 OA
HETATM    5  N2  UNL     1      26.534   7.486  48.344  1.00  0.00    -0.322 N 
HETATM    6  C11 UNL     1      27.906   7.166  48.054  1.00  0.00     0.047 A 
HETATM    7  C12 UNL     1      28.852   8.051  47.550  1.00  0.00     0.042 A 
HETATM    8  C13 UNL     1      30.126   7.564  47.333  1.00  0.00    -0.024 A 
HETATM    9  C20 UNL     1      30.448   6.245  47.607  1.00  0.00     0.013 A 
HETATM   10  C21 UNL     1      29.452   5.413  48.110  1.00  0.00     0.015 A 
HETATM   11  C22 UNL     1      28.155   5.840  48.350  1.00  0.00     0.006 A 
HETATM   12  H12 UNL     1      26.045   8.422  48.221  1.00  0.00     0.169 HD
ENDROOT
BRANCH   1  13
HETATM   13  C7  UNL     1      25.590   3.347  49.738  1.00  0.00     0.148 C 
BRANCH  13  14
HETATM   14  N1  UNL     1      25.401   3.605  51.171  1.00  0.00    -0.389 N 
HETATM   15  H8  UNL     1      25.806   4.362  51.767  1.00  0.00     0.159 HD
BRANCH  14  16
HETATM   16  C6  UNL     1      24.542   2.686  51.840  1.00  0.00     0.007 C 
HETATM   17  C5  UNL     1      24.845   1.452  52.211  1.00  0.00    -0.058 C 
HETATM   18  C26 UNL     1      23.756   0.709  52.898  1.00  0.00     0.036 C 
HETATM   19  C25 UNL     1      22.507   0.745  52.043  1.00  0.00     0.005 C 
HETATM   20  C24 UNL     1      22.228   2.109  51.502  1.00  0.00     0.006 C 
HETATM   21  C23 UNL     1      23.144   3.146  52.166  1.00  0.00     0.057 C 
BRANCH  17  22
HETATM   22  C4  UNL     1      26.141   0.753  52.013  1.00  0.00     0.036 C 
BRANCH  22  23
HETATM   23  C3  UNL     1      26.185  -0.386  53.012  1.00  0.00     0.015 C 
BRANCH  23  24
HETATM   24  C2  UNL     1      26.748  -1.644  52.387  1.00  0.00     0.110 C 
BRANCH  24  25
HETATM   25  C1  UNL     1      28.006  -2.065  53.102  1.00  0.00     0.139 C 
HETATM   26  O1  UNL     1      28.571  -1.211  53.845  1.00  0.00    -0.650 OA
BRANCH  25  27
HETATM   27  O2  UNL     1      28.442  -3.368  52.879  1.00  0.00    -0.776 OA
HETATM   28  H1  UNL     1      29.406  -3.559  53.186  1.00  0.00     0.167 HD
ENDBRANCH  25  27
ENDBRANCH  24  25
ENDBRANCH  23  24
ENDBRANCH  22  23
ENDBRANCH  17  22
ENDBRANCH  14  16
ENDBRANCH  13  14
ENDBRANCH   1  13
BRANCH   8  29
HETATM   29  C14 UNL     1      31.136   8.484  46.801  1.00  0.00    -0.026 A 
HETATM   30  C15 UNL     1      32.253   8.636  47.596  1.00  0.00     0.012 A 
HETATM   31  C16 UNL     1      33.305   9.472  47.238  1.00  0.00     0.001 A 
HETATM   32  C17 UNL     1      33.243  10.183  46.036  1.00  0.00     0.000 A 
HETATM   33  C18 UNL     1      32.111  10.011  45.254  1.00  0.00     0.001 A 
HETATM   34  C19 UNL     1      31.070   9.180  45.620  1.00  0.00     0.012 A 
ENDBRANCH   8  29
TORSDOF 9
ENDMDL
MODEL 8
REMARK VINA RESULT:      -8.0      3.668      4.474
REMARK  9 active torsions:
REMARK  status: ('A' for Active; 'I' for Inactive)
REMARK    1  A    between atoms: C1_2  and  O2_3 
REMARK    2  A    between atoms: C1_2  and  C2_4 
REMARK    3  A    between atoms: C2_4  and  C3_5 
REMARK    4  A    between atoms: C3_5  and  C4_6 
REMARK    5  A    between atoms: C4_6  and  C5_7 
REMARK    6  A    between atoms: C6_8  and  N1_9 
REMARK    7  A    between atoms: N1_9  and  C7_10 
REMARK    8  A    between atoms: C7_10  and  C8_11 
REMARK    9  A    between atoms: C13_18  and  C14_19 
ROOT
HETATM    1  C8  UNL     1      21.118   2.447  52.266  1.00  0.00     0.010 C 
HETATM    2  C9  UNL     1      22.375   2.811  52.305  1.00  0.00     0.042 A 
HETATM    3  C10 UNL     1      22.957   4.114  52.133  1.00  0.00     0.256 A 
HETATM    4  O3  UNL     1      22.372   5.198  51.905  1.00  0.00    -0.267 OA
HETATM    5  N2  UNL     1      24.369   4.045  52.258  1.00  0.00    -0.322 N 
HETATM    6  C11 UNL     1      24.669   2.662  52.514  1.00  0.00     0.047 A 
HETATM    7  C12 UNL     1      25.940   2.134  52.704  1.00  0.00     0.042 A 
HETATM    8  C13 UNL     1      26.036   0.776  52.939  1.00  0.00    -0.024 A 
HETATM    9  C20 UNL     1      24.909  -0.027  52.985  1.00  0.00     0.013 A 
HETATM   10  C21 UNL     1      23.665   0.568  52.785  1.00  0.00     0.015 A 
HETATM   11  C22 UNL     1      23.501   1.923  52.545  1.00  0.00     0.006 A 
HETATM   12  H12 UNL     1      25.053   4.854  52.177  1.00  0.00     0.169 HD
ENDROOT
BRANCH   1  13
HETATM   13  C7  UNL     1      19.966   3.318  52.025  1.00  0.00     0.148 C 
BRANCH  13  14
HETATM   14  N1  UNL     1      19.278   2.973  50.775  1.00  0.00    -0.389 N 
HETATM   15  H8  UNL     1      19.444   3.331  49.807  1.00  0.00     0.159 HD
BRANCH  14  16
HETATM   16  C6  UNL     1      18.234   2.011  50.907  1.00  0.00     0.007 C 
HETATM   17  C5  UNL     1      17.012   2.235  51.363  1.00  0.00    -0.058 C 
HETATM   18  C26 UNL     1      16.118   1.048  51.391  1.00  0.00     0.036 C 
HETATM   19  C25 UNL     1      16.798  -0.075  52.145  1.00  0.00     0.005 C 
HETATM   20  C24 UNL     1      18.225  -0.250  51.737  1.00  0.00     0.006 C 
HETATM   21  C23 UNL     1      18.533   0.593  50.492  1.00  0.00     0.057 C 
BRANCH  17  22
HETATM   22  C4  UNL     1      16.458   3.529  51.837  1.00  0.00     0.036 C 
BRANCH  22  23
HETATM   23  C3  UNL     1      15.167   3.217  52.566  1.00  0.00     0.015 C 
BRANCH  23  24
HETATM   24  C2  UNL     1      14.734   4.375  53.439  1.00  0.00     0.110 C 
BRANCH  24  25
HETATM   25  C1  UNL     1      13.250   4.313  53.691  1.00  0.00     0.139 C 
HETATM   26  O1  UNL     1      12.486   4.820  52.819  1.00  0.00    -0.650 OA
BRANCH  25  27
HETATM   27  O2  UNL     1      12.845   3.701  54.873  1.00  0.00    -0.776 OA
HETATM   28  H1  UNL     1      12.975   2.679  54.897  1.00  0.00     0.167 HD
ENDBRANCH  25  27
ENDBRANCH  24  25
ENDBRANCH  23  24
ENDBRANCH  22  23
ENDBRANCH  17  22
ENDBRANCH  14  16
ENDBRANCH  13  14
ENDBRANCH   1  13
BRANCH   8  29
HETATM   29  C14 UNL     1      27.370   0.202  53.141  1.00  0.00    -0.026 A 
HETATM   30  C15 UNL     1      27.443  -1.164  52.960  1.00  0.00     0.012 A 
HETATM   31  C16 UNL     1      28.633  -1.865  53.112  1.00  0.00     0.001 A 
HETATM   32  C17 UNL     1      29.800  -1.178  53.457  1.00  0.00     0.000 A 
HETATM   33  C18 UNL     1      29.701   0.194  53.633  1.00  0.00     0.001 A 
HETATM   34  C19 UNL     1      28.512   0.882  53.480  1.00  0.00     0.012 A 
ENDBRANCH   8  29
TORSDOF 9
ENDMDL
MODEL 9
REMARK VINA RESULT:      -7.9      5.616      9.470
REMARK  9 active torsions:
REMARK  status: ('A' for Active; 'I' for Inactive)
REMARK    1  A    between atoms: C1_2  and  O2_3 
REMARK    2  A    between atoms: C1_2  and  C2_4 
REMARK    3  A    between atoms: C2_4  and  C3_5 
REMARK    4  A    between atoms: C3_5  and  C4_6 
REMARK    5  A    between atoms: C4_6  and  C5_7 
REMARK    6  A    between atoms: C6_8  and  N1_9 
REMARK    7  A    between atoms: N1_9  and  C7_10 
REMARK    8  A    between atoms: C7_10  and  C8_11 
REMARK    9  A    between atoms: C13_18  and  C14_19 
ROOT
HETATM    1  C8  UNL     1      27.664   4.871  48.932  1.00  0.00     0.010 C 
HETATM    2  C9  UNL     1      26.417   4.671  49.275  1.00  0.00     0.042 A 
HETATM    3  C10 UNL     1      25.244   5.434  48.945  1.00  0.00     0.256 A 
HETATM    4  O3  UNL     1      25.167   6.470  48.247  1.00  0.00    -0.267 OA
HETATM    5  N2  UNL     1      24.093   4.850  49.535  1.00  0.00    -0.322 N 
HETATM    6  C11 UNL     1      24.567   3.694  50.250  1.00  0.00     0.047 A 
HETATM    7  C12 UNL     1      23.775   2.818  50.982  1.00  0.00     0.042 A 
HETATM    8  C13 UNL     1      24.407   1.760  51.604  1.00  0.00    -0.024 A 
HETATM    9  C20 UNL     1      25.776   1.578  51.502  1.00  0.00     0.013 A 
HETATM   10  C21 UNL     1      26.509   2.495  50.752  1.00  0.00     0.015 A 
HETATM   11  C22 UNL     1      25.936   3.577  50.104  1.00  0.00     0.006 A 
HETATM   12  H12 UNL     1      23.093   5.202  49.459  1.00  0.00     0.169 HD
ENDROOT
BRANCH   1  13
HETATM   13  C7  UNL     1      28.177   5.962  48.101  1.00  0.00     0.148 C 
BRANCH  13  14
HETATM   14  N1  UNL     1      28.828   6.999  48.911  1.00  0.00    -0.389 N 
HETATM   15  H8  UNL     1      28.440   7.564  49.700  1.00  0.00     0.159 HD
BRANCH  14  16
HETATM   16  C6  UNL     1      30.183   7.271  48.565  1.00  0.00     0.007 C 
HETATM   17  C5  UNL     1      30.696   8.453  48.262  1.00  0.00    -0.058 C 
HETATM   18  C26 UNL     1      32.148   8.452  47.942  1.00  0.00     0.036 C 
HETATM   19  C25 UNL     1      32.422   7.430  46.860  1.00  0.00     0.005 C 
HETATM   20  C24 UNL     1      31.735   6.129  47.120  1.00  0.00     0.006 C 
HETATM   21  C23 UNL     1      31.144   6.109  48.536  1.00  0.00     0.057 C 
BRANCH  17  22
HETATM   22  C4  UNL     1      29.978   9.752  48.214  1.00  0.00     0.036 C 
BRANCH  22  23
HETATM   23  C3  UNL     1      30.456  10.566  49.400  1.00  0.00     0.015 C 
BRANCH  23  24
HETATM   24  C2  UNL     1      30.814  11.978  48.989  1.00  0.00     0.110 C 
BRANCH  24  25
HETATM   25  C1  UNL     1      29.565  12.778  48.724  1.00  0.00     0.139 C 
HETATM   26  O1  UNL     1      29.453  13.331  47.591  1.00  0.00    -0.650 OA
BRANCH  25  27
HETATM   27  O2  UNL     1      28.635  12.840  49.757  1.00  0.00    -0.776 OA
HETATM   28  H1  UNL     1      28.952  12.433  50.649  1.00  0.00     0.167 HD
ENDBRANCH  25  27
ENDBRANCH  24  25
ENDBRANCH  23  24
ENDBRANCH  22  23
ENDBRANCH  17  22
ENDBRANCH  14  16
ENDBRANCH  13  14
ENDBRANCH   1  13
BRANCH   8  29
HETATM   29  C14 UNL     1      23.587   0.826  52.383  1.00  0.00    -0.026 A 
HETATM   30  C15 UNL     1      24.268   0.149  53.373  1.00  0.00     0.012 A 
HETATM   31  C16 UNL     1      23.639  -0.773  54.203  1.00  0.00     0.001 A 
HETATM   32  C17 UNL     1      22.274  -1.030  54.039  1.00  0.00     0.000 A 
HETATM   33  C18 UNL     1      21.613  -0.337  53.037  1.00  0.00     0.001 A 
HETATM   34  C19 UNL     1      22.248   0.577  52.217  1.00  0.00     0.012 A 
ENDBRANCH   8  29
TORSDOF 9
ENDMDL
