MODEL 1
REMARK VINA RESULT:      -7.8      0.000      0.000
REMARK  4 active torsions:
REMARK  status: ('A' for Active; 'I' for Inactive)
REMARK    1  A    between atoms: O1_2  and  C2_3 
REMARK    2  A    between atoms: C2_3  and  C3_4 
REMARK    3  A    between atoms: C5_6  and  O2_7 
REMARK    4  A    between atoms: C7_9  and  O3_10 
ROOT
HETATM    1  C3  UNL     1      21.401   4.683  50.355  1.00  0.00    -0.027 C 
HETATM    2  C4  UNL     1      20.100   4.387  50.698  1.00  0.00     0.047 C 
HETATM    3  C5  UNL     1      19.353   3.327  51.568  1.00  0.00     0.102 C 
HETATM    4  C7  UNL     1      20.110   2.241  52.144  1.00  0.00     0.111 C 
HETATM    5  C9  UNL     1      21.734   2.264  52.210  1.00  0.00     0.026 A 
HETATM    6  C10 UNL     1      21.853   1.034  51.861  1.00  0.00     0.056 A 
HETATM    7  N1  UNL     1      23.054   1.074  51.011  1.00  0.00    -0.279 N 
HETATM    8  N2  UNL     1      23.859   2.199  50.708  1.00  0.00    -0.158 NA
HETATM    9  C11 UNL     1      23.511   3.195  51.218  1.00  0.00     0.158 A 
HETATM   10  C12 UNL     1      22.374   3.627  52.121  1.00  0.00     0.098 A 
HETATM   11  C13 UNL     1      22.298   4.860  52.584  1.00  0.00     0.002 A 
HETATM   12  C14 UNL     1      22.562   4.941  51.050  1.00  0.00     0.153 A 
HETATM   13  N3  UNL     1      23.872   4.513  51.258  1.00  0.00    -0.268 N 
HETATM   14  N4  UNL     1      25.189   4.082  51.469  1.00  0.00    -0.144 NA
HETATM   15  N5  UNL     1      25.286   3.238  52.667  1.00  0.00    -0.308 N 
HETATM   16  C15 UNL     1      25.465   1.824  53.010  1.00  0.00     0.018 C 
HETATM   17  C16 UNL     1      26.917   1.856  53.276  1.00  0.00     0.069 C 
HETATM   18  C17 UNL     1      24.821   0.646  53.135  1.00  0.00     0.025 C 
HETATM   19  C18 UNL     1      23.634  -0.252  53.093  1.00  0.00    -0.001 C 
HETATM   20  C19 UNL     1      22.369  -0.609  52.922  1.00  0.00    -0.005 C 
HETATM   21  C20 UNL     1      21.001   0.134  52.502  1.00  0.00     0.132 C 
HETATM   22 BR1  UNL     1      20.817   0.274  54.500  1.00  0.00    -0.080 Br
HETATM   23  H13 UNL     1      23.487   0.300  50.512  1.00  0.00     0.189 HD
HETATM   24  H16 UNL     1      25.826   4.854  51.601  1.00  0.00     0.173 HD
HETATM   25  H17 UNL     1      25.197   3.851  53.534  1.00  0.00     0.182 HD
ENDROOT
BRANCH   1  26
HETATM   26  C2  UNL     1      21.697   4.807  48.924  1.00  0.00     0.204 C 
BRANCH  26  27
HETATM   27  O1  UNL     1      21.350   3.844  48.086  1.00  0.00    -0.392 OA
HETATM   28  C1  UNL     1      22.144   2.897  47.594  1.00  0.00     0.201 C 
ENDBRANCH  26  27
ENDBRANCH   1  26
BRANCH   3  29
HETATM   29  O2  UNL     1      18.093   3.257  51.872  1.00  0.00    -0.353 OA
HETATM   30  C6  UNL     1      17.103   4.081  51.234  1.00  0.00     0.210 C 
ENDBRANCH   3  29
BRANCH   4  31
HETATM   31  O3  UNL     1      19.484   1.173  52.626  1.00  0.00    -0.352 OA
HETATM   32  C8  UNL     1      18.338   0.529  52.051  1.00  0.00     0.210 C 
ENDBRANCH   4  31
TORSDOF 4
ENDMDL
MODEL 2
REMARK VINA RESULT:      -7.7      2.733      5.182
REMARK  4 active torsions:
REMARK  status: ('A' for Active; 'I' for Inactive)
REMARK    1  A    between atoms: O1_2  and  C2_3 
REMARK    2  A    between atoms: C2_3  and  C3_4 
REMARK    3  A    between atoms: C5_6  and  O2_7 
REMARK    4  A    between atoms: C7_9  and  O3_10 
ROOT
HETATM    1  C3  UNL     1      22.136   3.651  49.148  1.00  0.00    -0.027 C 
HETATM    2  C4  UNL     1      23.426   3.470  49.599  1.00  0.00     0.047 C 
HETATM    3  C5  UNL     1      24.162   2.586  50.654  1.00  0.00     0.102 C 
HETATM    4  C7  UNL     1      23.376   1.758  51.539  1.00  0.00     0.111 C 
HETATM    5  C9  UNL     1      21.804   1.452  51.260  1.00  0.00     0.026 A 
HETATM    6  C10 UNL     1      21.466   1.606  52.489  1.00  0.00     0.056 A 
HETATM    7  N1  UNL     1      20.154   2.263  52.363  1.00  0.00    -0.279 N 
HETATM    8  N2  UNL     1      19.466   2.593  51.170  1.00  0.00    -0.158 NA
HETATM    9  C11 UNL     1      20.025   2.284  50.187  1.00  0.00     0.158 A 
HETATM   10  C12 UNL     1      21.345   1.631  49.834  1.00  0.00     0.098 A 
HETATM   11  C13 UNL     1      21.661   1.358  48.582  1.00  0.00     0.002 A 
HETATM   12  C14 UNL     1      21.154   2.831  48.638  1.00  0.00     0.153 A 
HETATM   13  N3  UNL     1      19.853   2.371  48.833  1.00  0.00    -0.268 N 
HETATM   14  N4  UNL     1      18.546   1.907  49.031  1.00  0.00    -0.144 NA
HETATM   15  N5  UNL     1      18.542   0.602  49.707  1.00  0.00    -0.308 N 
HETATM   16  C15 UNL     1      18.237   0.046  51.029  1.00  0.00     0.018 C 
HETATM   17  C16 UNL     1      16.869  -0.430  50.745  1.00  0.00     0.069 C 
HETATM   18  C17 UNL     1      18.731  -0.142  52.270  1.00  0.00     0.025 C 
HETATM   19  C18 UNL     1      19.765  -0.045  53.337  1.00  0.00    -0.001 C 
HETATM   20  C19 UNL     1      20.924   0.263  53.901  1.00  0.00    -0.005 C 
HETATM   21  C20 UNL     1      22.287   0.983  53.429  1.00  0.00     0.132 C 
HETATM   22 BR1  UNL     1      22.823  -0.925  53.091  1.00  0.00    -0.080 Br
HETATM   23  H13 UNL     1      19.544   2.579  53.113  1.00  0.00     0.189 HD
HETATM   24  H16 UNL     1      18.049   1.787  48.161  1.00  0.00     0.173 HD
HETATM   25  H17 UNL     1      18.857  -0.148  49.021  1.00  0.00     0.182 HD
ENDROOT
BRANCH   1  26
HETATM   26  C2  UNL     1      21.622   5.024  49.146  1.00  0.00     0.204 C 
BRANCH  26  27
HETATM   27  O1  UNL     1      21.245   5.597  50.277  1.00  0.00    -0.392 OA
HETATM   28  C1  UNL     1      21.781   6.681  50.832  1.00  0.00     0.201 C 
ENDBRANCH  26  27
ENDBRANCH   1  26
BRANCH   3  29
HETATM   29  O2  UNL     1      25.435   2.469  50.881  1.00  0.00    -0.353 OA
HETATM   30  C6  UNL     1      26.417   3.220  50.149  1.00  0.00     0.210 C 
ENDBRANCH   3  29
BRANCH   4  31
HETATM   31  O3  UNL     1      23.927   1.234  52.627  1.00  0.00    -0.352 OA
HETATM   32  C8  UNL     1      25.061   1.751  53.338  1.00  0.00     0.210 C 
ENDBRANCH   4  31
TORSDOF 4
ENDMDL
MODEL 3
REMARK VINA RESULT:      -7.4      2.646      5.455
REMARK  4 active torsions:
REMARK  status: ('A' for Active; 'I' for Inactive)
REMARK    1  A    between atoms: O1_2  and  C2_3 
REMARK    2  A    between atoms: C2_3  and  C3_4 
REMARK    3  A    between atoms: C5_6  and  O2_7 
REMARK    4  A    between atoms: C7_9  and  O3_10 
ROOT
HETATM    1  C3  UNL     1      25.796   0.180  53.875  1.00  0.00    -0.027 C 
HETATM    2  C4  UNL     1      24.673  -0.601  54.038  1.00  0.00     0.047 C 
HETATM    3  C5  UNL     1      23.203  -0.627  53.513  1.00  0.00     0.102 C 
HETATM    4  C7  UNL     1      22.734   0.475  52.705  1.00  0.00     0.111 C 
HETATM    5  C9  UNL     1      23.755   1.553  52.044  1.00  0.00     0.026 A 
HETATM    6  C10 UNL     1      23.015   2.562  52.333  1.00  0.00     0.056 A 
HETATM    7  N1  UNL     1      24.016   3.585  52.679  1.00  0.00    -0.279 N 
HETATM    8  N2  UNL     1      25.426   3.453  52.656  1.00  0.00    -0.158 NA
HETATM    9  C11 UNL     1      25.810   2.403  52.304  1.00  0.00     0.158 A 
HETATM   10  C12 UNL     1      25.182   1.091  51.882  1.00  0.00     0.098 A 
HETATM   11  C13 UNL     1      25.922   0.079  51.471  1.00  0.00     0.002 A 
HETATM   12  C14 UNL     1      26.539   0.614  52.799  1.00  0.00     0.153 A 
HETATM   13  N3  UNL     1      26.995   1.746  52.124  1.00  0.00    -0.268 N 
HETATM   14  N4  UNL     1      27.452   2.883  51.446  1.00  0.00    -0.144 NA
HETATM   15  N5  UNL     1      26.587   3.202  50.301  1.00  0.00    -0.308 N 
HETATM   16  C15 UNL     1      25.574   4.192  49.926  1.00  0.00     0.018 C 
HETATM   17  C16 UNL     1      26.442   5.093  49.143  1.00  0.00     0.069 C 
HETATM   18  C17 UNL     1      24.271   4.517  50.055  1.00  0.00     0.025 C 
HETATM   19  C18 UNL     1      22.876   4.324  50.539  1.00  0.00    -0.001 C 
HETATM   20  C19 UNL     1      21.862   3.746  51.167  1.00  0.00    -0.005 C 
HETATM   21  C20 UNL     1      21.655   2.418  52.057  1.00  0.00     0.132 C 
HETATM   22 BR1  UNL     1      21.133   1.663  50.267  1.00  0.00    -0.080 Br
HETATM   23  H13 UNL     1      23.847   4.539  52.988  1.00  0.00     0.189 HD
HETATM   24  H16 UNL     1      28.385   2.760  51.082  1.00  0.00     0.173 HD
HETATM   25  H17 UNL     1      26.760   2.494  49.525  1.00  0.00     0.182 HD
ENDROOT
BRANCH   1  26
HETATM   26  C2  UNL     1      26.438   0.681  55.095  1.00  0.00     0.204 C 
BRANCH  26  27
HETATM   27  O1  UNL     1      27.738   0.920  55.114  1.00  0.00    -0.392 OA
HETATM   28  C1  UNL     1      28.711   0.025  54.964  1.00  0.00     0.201 C 
ENDBRANCH  26  27
ENDBRANCH   1  26
BRANCH   3  29
HETATM   29  O2  UNL     1      22.282  -1.522  53.696  1.00  0.00    -0.353 OA
HETATM   30  C6  UNL     1      21.945  -2.021  55.001  1.00  0.00     0.210 C 
ENDBRANCH   3  29
BRANCH   4  31
HETATM   31  O3  UNL     1      21.434   0.642  52.495  1.00  0.00    -0.352 OA
HETATM   32  C8  UNL     1      20.388   0.470  53.463  1.00  0.00     0.210 C 
ENDBRANCH   4  31
TORSDOF 4
ENDMDL
MODEL 4
REMARK VINA RESULT:      -7.0      2.429      3.970
REMARK  4 active torsions:
REMARK  status: ('A' for Active; 'I' for Inactive)
REMARK    1  A    between atoms: O1_2  and  C2_3 
REMARK    2  A    between atoms: C2_3  and  C3_4 
REMARK    3  A    between atoms: C5_6  and  O2_7 
REMARK    4  A    between atoms: C7_9  and  O3_10 
ROOT
HETATM    1  C3  UNL     1      20.548   3.005  51.246  1.00  0.00    -0.027 C 
HETATM    2  C4  UNL     1      20.658   2.056  52.239  1.00  0.00     0.047 C 
HETATM    3  C5  UNL     1      21.800   1.360  53.043  1.00  0.00     0.102 C 
HETATM    4  C7  UNL     1      23.171   1.619  52.670  1.00  0.00     0.111 C 
HETATM    5  C9  UNL     1      23.578   2.848  51.688  1.00  0.00     0.026 A 
HETATM    6  C10 UNL     1      24.421   2.149  51.018  1.00  0.00     0.056 A 
HETATM    7  N1  UNL     1      24.227   2.665  49.652  1.00  0.00    -0.279 N 
HETATM    8  N2  UNL     1      23.346   3.692  49.236  1.00  0.00    -0.158 NA
HETATM    9  C11 UNL     1      22.722   4.177  50.103  1.00  0.00     0.158 A 
HETATM   10  C12 UNL     1      22.577   3.973  51.596  1.00  0.00     0.098 A 
HETATM   11  C13 UNL     1      21.802   4.757  52.322  1.00  0.00     0.002 A 
HETATM   12  C14 UNL     1      20.986   4.299  51.075  1.00  0.00     0.153 A 
HETATM   13  N3  UNL     1      21.760   5.133  50.269  1.00  0.00    -0.268 N 
HETATM   14  N4  UNL     1      22.539   5.970  49.460  1.00  0.00    -0.144 NA
HETATM   15  N5  UNL     1      23.884   6.151  50.022  1.00  0.00    -0.308 N 
HETATM   16  C15 UNL     1      25.258   5.714  49.758  1.00  0.00     0.018 C 
HETATM   17  C16 UNL     1      25.723   6.912  49.033  1.00  0.00     0.069 C 
HETATM   18  C17 UNL     1      26.127   4.697  49.930  1.00  0.00     0.025 C 
HETATM   19  C18 UNL     1      26.548   3.351  50.406  1.00  0.00    -0.001 C 
HETATM   20  C19 UNL     1      26.444   2.166  50.991  1.00  0.00    -0.005 C 
HETATM   21  C20 UNL     1      25.288   1.355  51.770  1.00  0.00     0.132 C 
HETATM   22 BR1  UNL     1      26.190   2.194  53.360  1.00  0.00    -0.080 Br
HETATM   23  H13 UNL     1      24.695   2.361  48.802  1.00  0.00     0.189 HD
HETATM   24  H16 UNL     1      22.135   6.891  49.365  1.00  0.00     0.173 HD
HETATM   25  H17 UNL     1      23.824   6.790  50.873  1.00  0.00     0.182 HD
ENDROOT
BRANCH   1  26
HETATM   26  C2  UNL     1      19.759   2.638  50.064  1.00  0.00     0.204 C 
BRANCH  26  27
HETATM   27  O1  UNL     1      20.351   2.115  49.004  1.00  0.00    -0.392 OA
HETATM   28  C1  UNL     1      21.101   1.017  48.976  1.00  0.00     0.201 C 
ENDBRANCH  26  27
ENDBRANCH   1  26
BRANCH   3  29
HETATM   29  O2  UNL     1      21.715   0.540  54.045  1.00  0.00    -0.353 OA
HETATM   30  C6  UNL     1      20.635  -0.398  54.180  1.00  0.00     0.210 C 
ENDBRANCH   3  29
BRANCH   4  31
HETATM   31  O3  UNL     1      24.144   0.833  53.116  1.00  0.00    -0.352 OA
HETATM   32  C8  UNL     1      24.046  -0.575  53.377  1.00  0.00     0.210 C 
ENDBRANCH   4  31
TORSDOF 4
ENDMDL
MODEL 5
REMARK VINA RESULT:      -7.0     10.395     13.035
REMARK  4 active torsions:
REMARK  status: ('A' for Active; 'I' for Inactive)
REMARK    1  A    between atoms: O1_2  and  C2_3 
REMARK    2  A    between atoms: C2_3  and  C3_4 
REMARK    3  A    between atoms: C5_6  and  O2_7 
REMARK    4  A    between atoms: C7_9  and  O3_10 
ROOT
HETATM    1  C3  UNL     1      30.431   6.036  48.174  1.00  0.00    -0.027 C 
HETATM    2  C4  UNL     1      31.400   5.333  47.492  1.00  0.00     0.047 C 
HETATM    3  C5  UNL     1      32.638   5.653  46.596  1.00  0.00     0.102 C 
HETATM    4  C7  UNL     1      32.886   7.025  46.219  1.00  0.00     0.111 C 
HETATM    5  C9  UNL     1      32.143   8.269  46.955  1.00  0.00     0.026 A 
HETATM    6  C10 UNL     1      31.923   8.900  45.859  1.00  0.00     0.056 A 
HETATM    7  N1  UNL     1      30.594   9.484  46.107  1.00  0.00    -0.279 N 
HETATM    8  N2  UNL     1      29.810   9.376  47.282  1.00  0.00    -0.158 NA
HETATM    9  C11 UNL     1      30.309   8.754  48.142  1.00  0.00     0.158 A 
HETATM   10  C12 UNL     1      31.598   7.983  48.333  1.00  0.00     0.098 A 
HETATM   11  C13 UNL     1      31.896   7.424  49.490  1.00  0.00     0.002 A 
HETATM   12  C14 UNL     1      30.432   7.027  49.130  1.00  0.00     0.153 A 
HETATM   13  N3  UNL     1      30.017   8.329  49.408  1.00  0.00    -0.268 N 
HETATM   14  N4  UNL     1      29.602   9.637  49.686  1.00  0.00    -0.144 NA
HETATM   15  N5  UNL     1      30.685  10.601  49.447  1.00  0.00    -0.308 N 
HETATM   16  C15 UNL     1      31.052  11.627  48.467  1.00  0.00     0.018 C 
HETATM   17  C16 UNL     1      30.566  12.808  49.208  1.00  0.00     0.069 C 
HETATM   18  C17 UNL     1      31.610  11.822  47.254  1.00  0.00     0.025 C 
HETATM   19  C18 UNL     1      32.258  11.393  45.985  1.00  0.00    -0.001 C 
HETATM   20  C19 UNL     1      32.772  10.565  45.086  1.00  0.00    -0.005 C 
HETATM   21  C20 UNL     1      32.997   8.972  44.971  1.00  0.00     0.132 C 
HETATM   22 BR1  UNL     1      34.797   9.477  45.713  1.00  0.00    -0.080 Br
HETATM   23  H13 UNL     1      30.038  10.052  45.473  1.00  0.00     0.189 HD
HETATM   24  H16 UNL     1      29.317   9.750  50.648  1.00  0.00     0.173 HD
HETATM   25  H17 UNL     1      31.408  10.513  50.224  1.00  0.00     0.182 HD
ENDROOT
BRANCH   1  26
HETATM   26  C2  UNL     1      29.036   5.677  47.900  1.00  0.00     0.204 C 
BRANCH  26  27
HETATM   27  O1  UNL     1      28.430   4.751  48.625  1.00  0.00    -0.392 OA
HETATM   28  C1  UNL     1      27.131   4.689  48.905  1.00  0.00     0.201 C 
ENDBRANCH  26  27
ENDBRANCH   1  26
BRANCH   3  29
HETATM   29  O2  UNL     1      33.527   4.845  46.106  1.00  0.00    -0.353 OA
HETATM   30  C6  UNL     1      34.474   4.152  46.935  1.00  0.00     0.210 C 
ENDBRANCH   3  29
BRANCH   4  31
HETATM   31  O3  UNL     1      33.730   7.302  45.231  1.00  0.00    -0.352 OA
HETATM   32  C8  UNL     1      33.987   6.487  44.079  1.00  0.00     0.210 C 
ENDBRANCH   4  31
TORSDOF 4
ENDMDL
MODEL 6
REMARK VINA RESULT:      -6.9      2.444      4.892
REMARK  4 active torsions:
REMARK  status: ('A' for Active; 'I' for Inactive)
REMARK    1  A    between atoms: O1_2  and  C2_3 
REMARK    2  A    between atoms: C2_3  and  C3_4 
REMARK    3  A    between atoms: C5_6  and  O2_7 
REMARK    4  A    between atoms: C7_9  and  O3_10 
ROOT
HETATM    1  C3  UNL     1      19.877   2.909  48.812  1.00  0.00    -0.027 C 
HETATM    2  C4  UNL     1      20.610   3.722  47.976  1.00  0.00     0.047 C 
HETATM    3  C5  UNL     1      22.068   4.273  47.893  1.00  0.00     0.102 C 
HETATM    4  C7  UNL     1      22.971   4.016  48.991  1.00  0.00     0.111 C 
HETATM    5  C9  UNL     1      22.646   2.906  50.132  1.00  0.00     0.026 A 
HETATM    6  C10 UNL     1      23.042   3.653  51.097  1.00  0.00     0.056 A 
HETATM    7  N1  UNL     1      22.076   3.318  52.157  1.00  0.00    -0.279 N 
HETATM    8  N2  UNL     1      21.016   2.381  52.093  1.00  0.00    -0.158 NA
HETATM    9  C11 UNL     1      20.931   1.815  51.070  1.00  0.00     0.158 A 
HETATM   10  C12 UNL     1      21.656   1.836  49.741  1.00  0.00     0.098 A 
HETATM   11  C13 UNL     1      21.339   0.995  48.775  1.00  0.00     0.002 A 
HETATM   12  C14 UNL     1      20.019   1.631  49.307  1.00  0.00     0.153 A 
HETATM   13  N3  UNL     1      20.133   0.878  50.474  1.00  0.00    -0.268 N 
HETATM   14  N4  UNL     1      20.250   0.122  51.648  1.00  0.00    -0.144 NA
HETATM   15  N5  UNL     1      21.656  -0.173  51.953  1.00  0.00    -0.308 N 
HETATM   16  C15 UNL     1      22.691   0.246  52.903  1.00  0.00     0.018 C 
HETATM   17  C16 UNL     1      22.557  -0.868  53.862  1.00  0.00     0.069 C 
HETATM   18  C17 UNL     1      23.604   1.204  53.163  1.00  0.00     0.025 C 
HETATM   19  C18 UNL     1      24.347   2.465  52.893  1.00  0.00    -0.001 C 
HETATM   20  C19 UNL     1      24.700   3.571  52.253  1.00  0.00    -0.005 C 
HETATM   21  C20 UNL     1      24.252   4.318  50.896  1.00  0.00     0.132 C 
HETATM   22 BR1  UNL     1      25.795   3.258  50.160  1.00  0.00    -0.080 Br
HETATM   23  H13 UNL     1      22.024   3.709  53.094  1.00  0.00     0.189 HD
HETATM   24  H16 UNL     1      19.773  -0.765  51.578  1.00  0.00     0.173 HD
HETATM   25  H17 UNL     1      22.014  -0.910  51.272  1.00  0.00     0.182 HD
ENDROOT
BRANCH   1  26
HETATM   26  C2  UNL     1      18.608   3.446  49.314  1.00  0.00     0.204 C 
BRANCH  26  27
HETATM   27  O1  UNL     1      18.564   4.082  50.473  1.00  0.00    -0.392 OA
HETATM   28  C1  UNL     1      17.728   3.839  51.478  1.00  0.00     0.201 C 
ENDBRANCH  26  27
ENDBRANCH   1  26
BRANCH   3  29
HETATM   29  O2  UNL     1      22.631   4.965  46.951  1.00  0.00    -0.353 OA
HETATM   30  C6  UNL     1      21.976   5.234  45.700  1.00  0.00     0.210 C 
ENDBRANCH   3  29
BRANCH   4  31
HETATM   31  O3  UNL     1      24.100   4.707  49.101  1.00  0.00    -0.352 OA
HETATM   32  C8  UNL     1      24.324   6.047  48.640  1.00  0.00     0.210 C 
ENDBRANCH   4  31
TORSDOF 4
ENDMDL
MODEL 7
REMARK VINA RESULT:      -6.9      2.793      5.093
REMARK  4 active torsions:
REMARK  status: ('A' for Active; 'I' for Inactive)
REMARK    1  A    between atoms: O1_2  and  C2_3 
REMARK    2  A    between atoms: C2_3  and  C3_4 
REMARK    3  A    between atoms: C5_6  and  O2_7 
REMARK    4  A    between atoms: C7_9  and  O3_10 
ROOT
HETATM    1  C3  UNL     1      22.721   2.047  51.225  1.00  0.00    -0.027 C 
HETATM    2  C4  UNL     1      21.436   1.811  50.787  1.00  0.00     0.047 C 
HETATM    3  C5  UNL     1      20.289   2.616  50.099  1.00  0.00     0.102 C 
HETATM    4  C7  UNL     1      20.456   4.038  49.907  1.00  0.00     0.111 C 
HETATM    5  C9  UNL     1      21.903   4.763  50.061  1.00  0.00     0.026 A 
HETATM    6  C10 UNL     1      21.428   5.768  50.704  1.00  0.00     0.056 A 
HETATM    7  N1  UNL     1      22.500   6.039  51.678  1.00  0.00    -0.279 N 
HETATM    8  N2  UNL     1      23.734   5.358  51.812  1.00  0.00    -0.158 NA
HETATM    9  C11 UNL     1      23.898   4.493  51.038  1.00  0.00     0.158 A 
HETATM   10  C12 UNL     1      23.105   3.864  49.911  1.00  0.00     0.098 A 
HETATM   11  C13 UNL     1      23.620   2.908  49.163  1.00  0.00     0.002 A 
HETATM   12  C14 UNL     1      23.875   2.537  50.656  1.00  0.00     0.153 A 
HETATM   13  N3  UNL     1      24.835   3.544  50.737  1.00  0.00    -0.268 N 
HETATM   14  N4  UNL     1      25.798   4.558  50.817  1.00  0.00    -0.144 NA
HETATM   15  N5  UNL     1      25.503   5.648  49.878  1.00  0.00    -0.308 N 
HETATM   16  C15 UNL     1      25.003   7.026  49.908  1.00  0.00     0.018 C 
HETATM   17  C16 UNL     1      26.303   7.722  49.844  1.00  0.00     0.069 C 
HETATM   18  C17 UNL     1      23.883   7.775  49.978  1.00  0.00     0.025 C 
HETATM   19  C18 UNL     1      22.414   7.996  50.069  1.00  0.00    -0.001 C 
HETATM   20  C19 UNL     1      21.127   7.688  50.144  1.00  0.00    -0.005 C 
HETATM   21  C20 UNL     1      20.261   6.328  50.184  1.00  0.00     0.132 C 
HETATM   22 BR1  UNL     1      20.186   6.673  48.204  1.00  0.00    -0.080 Br
HETATM   23  H13 UNL     1      22.515   6.754  52.400  1.00  0.00     0.189 HD
HETATM   24  H16 UNL     1      26.724   4.222  50.594  1.00  0.00     0.173 HD
HETATM   25  H17 UNL     1      25.720   5.324  48.887  1.00  0.00     0.182 HD
ENDROOT
BRANCH   1  26
HETATM   26  C2  UNL     1      23.024   1.682  52.613  1.00  0.00     0.204 C 
BRANCH  26  27
HETATM   27  O1  UNL     1      24.035   0.874  52.884  1.00  0.00    -0.392 OA
HETATM   28  C1  UNL     1      23.953  -0.362  53.370  1.00  0.00     0.201 C 
ENDBRANCH  26  27
ENDBRANCH   1  26
BRANCH   3  29
HETATM   29  O2  UNL     1      19.146   2.196  49.651  1.00  0.00    -0.353 OA
HETATM   30  C6  UNL     1      18.577   0.940  50.058  1.00  0.00     0.210 C 
ENDBRANCH   3  29
BRANCH   4  31
HETATM   31  O3  UNL     1      19.409   4.799  49.611  1.00  0.00    -0.352 OA
HETATM   32  C8  UNL     1      18.059   4.593  50.050  1.00  0.00     0.210 C 
ENDBRANCH   4  31
TORSDOF 4
ENDMDL
MODEL 8
REMARK VINA RESULT:      -6.8      2.312      3.532
REMARK  4 active torsions:
REMARK  status: ('A' for Active; 'I' for Inactive)
REMARK    1  A    between atoms: O1_2  and  C2_3 
REMARK    2  A    between atoms: C2_3  and  C3_4 
REMARK    3  A    between atoms: C5_6  and  O2_7 
REMARK    4  A    between atoms: C7_9  and  O3_10 
ROOT
HETATM    1  C3  UNL     1      23.621   5.381  50.397  1.00  0.00    -0.027 C 
HETATM    2  C4  UNL     1      22.558   6.192  50.066  1.00  0.00     0.047 C 
HETATM    3  C5  UNL     1      21.002   6.081  50.000  1.00  0.00     0.102 C 
HETATM    4  C7  UNL     1      20.387   4.794  50.228  1.00  0.00     0.111 C 
HETATM    5  C9  UNL     1      21.208   3.550  50.877  1.00  0.00     0.026 A 
HETATM    6  C10 UNL     1      20.719   2.688  50.061  1.00  0.00     0.056 A 
HETATM    7  N1  UNL     1      21.872   1.802  49.828  1.00  0.00    -0.279 N 
HETATM    8  N2  UNL     1      23.163   1.899  50.402  1.00  0.00    -0.158 NA
HETATM    9  C11 UNL     1      23.294   2.788  51.154  1.00  0.00     0.158 A 
HETATM   10  C12 UNL     1      22.434   3.920  51.675  1.00  0.00     0.098 A 
HETATM   11  C13 UNL     1      22.879   4.749  52.600  1.00  0.00     0.002 A 
HETATM   12  C14 UNL     1      23.974   4.630  51.496  1.00  0.00     0.153 A 
HETATM   13  N3  UNL     1      24.269   3.341  51.936  1.00  0.00    -0.268 N 
HETATM   14  N4  UNL     1      24.565   2.045  52.378  1.00  0.00    -0.144 NA
HETATM   15  N5  UNL     1      23.387   1.408  52.983  1.00  0.00    -0.308 N 
HETATM   16  C15 UNL     1      22.408   0.367  52.660  1.00  0.00     0.018 C 
HETATM   17  C16 UNL     1      23.026  -0.743  53.413  1.00  0.00     0.069 C 
HETATM   18  C17 UNL     1      21.272   0.117  51.976  1.00  0.00     0.025 C 
HETATM   19  C18 UNL     1      20.127   0.468  51.093  1.00  0.00    -0.001 C 
HETATM   20  C19 UNL     1      19.349   1.225  50.332  1.00  0.00    -0.005 C 
HETATM   21  C20 UNL     1      19.342   2.763  49.849  1.00  0.00     0.132 C 
HETATM   22 BR1  UNL     1      18.151   2.949  51.459  1.00  0.00    -0.080 Br
HETATM   23  H13 UNL     1      21.916   0.989  49.219  1.00  0.00     0.189 HD
HETATM   24  H16 UNL     1      25.293   2.037  53.076  1.00  0.00     0.173 HD
HETATM   25  H17 UNL     1      23.206   1.846  53.937  1.00  0.00     0.182 HD
ENDROOT
BRANCH   1  26
HETATM   26  C2  UNL     1      24.697   5.263  49.408  1.00  0.00     0.204 C 
BRANCH  26  27
HETATM   27  O1  UNL     1      25.943   5.055  49.799  1.00  0.00    -0.392 OA
HETATM   28  C1  UNL     1      26.811   4.203  49.261  1.00  0.00     0.201 C 
ENDBRANCH  26  27
ENDBRANCH   1  26
BRANCH   3  29
HETATM   29  O2  UNL     1      20.123   7.004  49.758  1.00  0.00    -0.353 OA
HETATM   30  C6  UNL     1      20.399   8.400  49.964  1.00  0.00     0.210 C 
ENDBRANCH   3  29
BRANCH   4  31
HETATM   31  O3  UNL     1      19.119   4.592  49.889  1.00  0.00    -0.352 OA
HETATM   32  C8  UNL     1      18.389   5.292  48.872  1.00  0.00     0.210 C 
ENDBRANCH   4  31
TORSDOF 4
ENDMDL
MODEL 9
REMARK VINA RESULT:      -6.7      3.207      6.352
REMARK  4 active torsions:
REMARK  status: ('A' for Active; 'I' for Inactive)
REMARK    1  A    between atoms: O1_2  and  C2_3 
REMARK    2  A    between atoms: C2_3  and  C3_4 
REMARK    3  A    between atoms: C5_6  and  O2_7 
REMARK    4  A    between atoms: C7_9  and  O3_10 
ROOT
HETATM    1  C3  UNL     1      22.314   0.538  52.992  1.00  0.00    -0.027 C 
HETATM    2  C4  UNL     1      23.559   1.127  53.014  1.00  0.00     0.047 C 
HETATM    3  C5  UNL     1      24.359   2.157  52.156  1.00  0.00     0.102 C 
HETATM    4  C7  UNL     1      23.787   2.621  50.913  1.00  0.00     0.111 C 
HETATM    5  C9  UNL     1      22.222   2.382  50.544  1.00  0.00     0.026 A 
HETATM    6  C10 UNL     1      22.468   2.062  49.326  1.00  0.00     0.056 A 
HETATM    7  N1  UNL     1      21.474   1.002  49.084  1.00  0.00    -0.279 N 
HETATM    8  N2  UNL     1      20.497   0.515  49.986  1.00  0.00    -0.158 NA
HETATM    9  C11 UNL     1      20.495   1.045  51.032  1.00  0.00     0.158 A 
HETATM   10  C12 UNL     1      21.304   2.127  51.715  1.00  0.00     0.098 A 
HETATM   11  C13 UNL     1      20.996   2.553  52.925  1.00  0.00     0.002 A 
HETATM   12  C14 UNL     1      21.015   0.994  52.956  1.00  0.00     0.153 A 
HETATM   13  N3  UNL     1      19.829   0.970  52.223  1.00  0.00    -0.268 N 
HETATM   14  N4  UNL     1      18.638   0.948  51.486  1.00  0.00    -0.144 NA
HETATM   15  N5  UNL     1      18.520   2.136  50.631  1.00  0.00    -0.308 N 
HETATM   16  C15 UNL     1      18.621   2.489  49.212  1.00  0.00     0.018 C 
HETATM   17  C16 UNL     1      17.180   2.480  48.891  1.00  0.00     0.069 C 
HETATM   18  C17 UNL     1      19.491   2.774  48.222  1.00  0.00     0.025 C 
HETATM   19  C18 UNL     1      20.844   2.985  47.637  1.00  0.00    -0.001 C 
HETATM   20  C19 UNL     1      22.166   3.066  47.596  1.00  0.00    -0.005 C 
HETATM   21  C20 UNL     1      23.372   2.881  48.650  1.00  0.00     0.132 C 
HETATM   22 BR1  UNL     1      23.137   4.872  48.810  1.00  0.00    -0.080 Br
HETATM   23  H13 UNL     1      21.340   0.459  48.235  1.00  0.00     0.189 HD
HETATM   24  H16 UNL     1      17.822   0.932  52.081  1.00  0.00     0.173 HD
HETATM   25  H17 UNL     1      18.295   2.982  51.238  1.00  0.00     0.182 HD
ENDROOT
BRANCH   1  26
HETATM   26  C2  UNL     1      22.273  -0.927  53.056  1.00  0.00     0.204 C 
BRANCH  26  27
HETATM   27  O1  UNL     1      21.959  -1.537  54.187  1.00  0.00    -0.392 OA
HETATM   28  C1  UNL     1      22.687  -1.565  55.300  1.00  0.00     0.201 C 
ENDBRANCH  26  27
ENDBRANCH   1  26
BRANCH   3  29
HETATM   29  O2  UNL     1      25.518   2.693  52.387  1.00  0.00    -0.353 OA
HETATM   30  C6  UNL     1      26.412   2.182  53.391  1.00  0.00     0.210 C 
ENDBRANCH   3  29
BRANCH   4  31
HETATM   31  O3  UNL     1      24.546   3.248  50.022  1.00  0.00    -0.352 OA
HETATM   32  C8  UNL     1      25.975   3.166  49.916  1.00  0.00     0.210 C 
ENDBRANCH   4  31
TORSDOF 4
ENDMDL
