MODEL 1
REMARK VINA RESULT:      -9.5      0.000      0.000
REMARK  3 active torsions:
REMARK  status: ('A' for Active; 'I' for Inactive)
REMARK    1  A    between atoms: O1_1  and  S1_2 
REMARK    2  A    between atoms: C2_4  and  C3_5 
REMARK    3  A    between atoms: C4_7  and  N2_8 
ROOT
HETATM    1  C3  UNL     1      25.350   2.376  51.500  1.00  0.00     0.163 A 
HETATM    2  N1  UNL     1      26.398   1.664  51.915  1.00  0.00    -0.208 NA
HETATM    3  C4  UNL     1      26.283   0.590  52.721  1.00  0.00     0.165 A 
HETATM    4  C9  UNL     1      24.984   0.254  53.106  1.00  0.00     0.153 A 
HETATM    5  O3  UNL     1      24.553  -0.719  53.870  1.00  0.00    -0.285 OA
HETATM    6  C10 UNL     1      23.238  -0.692  53.989  1.00  0.00     0.182 A 
HETATM    7  N3  UNL     1      22.317  -1.434  54.635  1.00  0.00    -0.236 NA
HETATM    8  C11 UNL     1      20.990  -1.133  54.552  1.00  0.00     0.119 A 
HETATM    9  C12 UNL     1      20.488  -0.059  53.812  1.00  0.00     0.020 A 
HETATM   10  C13 UNL     1      21.433   0.711  53.143  1.00  0.00     0.020 A 
HETATM   11  C14 UNL     1      22.765   0.373  53.252  1.00  0.00     0.049 A 
HETATM   12  C15 UNL     1      23.868   0.980  52.688  1.00  0.00     0.111 A 
HETATM   13  N4  UNL     1      24.106   2.041  51.878  1.00  0.00    -0.225 NA
ENDROOT
BRANCH   1  14
HETATM   14  C2  UNL     1      25.607   3.516  50.630  1.00  0.00     0.018 A 
HETATM   15  C1  UNL     1      26.714   3.625  49.919  1.00  0.00     0.063 A 
HETATM   16  S1  UNL     1      27.368   4.779  48.811  1.00  0.00    -0.132 S 
HETATM   17  C18 UNL     1      26.039   6.037  48.797  1.00  0.00     0.108 A 
HETATM   18  H2  UNL     1      27.351   4.096  47.247  1.00  0.00     0.113 HD
HETATM   19  C17 UNL     1      24.955   5.586  49.708  1.00  0.00    -0.015 A 
HETATM   20  C16 UNL     1      24.653   4.602  50.501  1.00  0.00     0.012 A 
BRANCH  16  21
HETATM   21  O1  UNL     1      28.933   5.319  49.093  1.00  0.00    -0.349 OA
HETATM   22  H1  UNL     1      29.580   4.611  49.239  1.00  0.00     0.225 HD
ENDBRANCH  16  21
ENDBRANCH   1  14
BRANCH   3  23
HETATM   23  N2  UNL     1      27.423  -0.135  53.136  1.00  0.00    -0.359 N 
HETATM   24  C5  UNL     1      28.224   0.467  54.192  1.00  0.00     0.151 C 
HETATM   25  C6  UNL     1      29.662   0.431  53.714  1.00  0.00     0.187 C 
HETATM   26  O2  UNL     1      30.082  -0.842  53.422  1.00  0.00    -0.388 OA
HETATM   27  C7  UNL     1      29.085  -1.800  53.455  1.00  0.00     0.187 C 
HETATM   28  C8  UNL     1      27.876  -1.413  52.619  1.00  0.00     0.151 C 
ENDBRANCH   3  23
TORSDOF 3
ENDMDL
MODEL 2
REMARK VINA RESULT:      -9.5      2.422      5.645
REMARK  3 active torsions:
REMARK  status: ('A' for Active; 'I' for Inactive)
REMARK    1  A    between atoms: O1_1  and  S1_2 
REMARK    2  A    between atoms: C2_4  and  C3_5 
REMARK    3  A    between atoms: C4_7  and  N2_8 
ROOT
HETATM    1  C3  UNL     1      25.608   0.582  53.023  1.00  0.00     0.163 A 
HETATM    2  N1  UNL     1      25.460   1.778  52.452  1.00  0.00    -0.208 NA
HETATM    3  C4  UNL     1      24.256   2.317  52.175  1.00  0.00     0.165 A 
HETATM    4  C9  UNL     1      23.148   1.542  52.524  1.00  0.00     0.153 A 
HETATM    5  O3  UNL     1      21.869   1.785  52.386  1.00  0.00    -0.285 OA
HETATM    6  C10 UNL     1      21.136   0.787  52.847  1.00  0.00     0.182 A 
HETATM    7  N3  UNL     1      19.816   0.531  52.945  1.00  0.00    -0.236 NA
HETATM    8  C11 UNL     1      19.368  -0.635  53.492  1.00  0.00     0.119 A 
HETATM    9  C12 UNL     1      20.214  -1.633  53.980  1.00  0.00     0.020 A 
HETATM   10  C13 UNL     1      21.577  -1.375  53.883  1.00  0.00     0.020 A 
HETATM   11  C14 UNL     1      21.990  -0.184  53.324  1.00  0.00     0.049 A 
HETATM   12  C15 UNL     1      23.271   0.287  53.122  1.00  0.00     0.111 A 
HETATM   13  N4  UNL     1      24.532  -0.151  53.353  1.00  0.00    -0.225 NA
ENDROOT
BRANCH   1  14
HETATM   14  C2  UNL     1      26.964   0.112  53.271  1.00  0.00     0.018 A 
HETATM   15  C1  UNL     1      27.387  -1.068  52.854  1.00  0.00     0.063 A 
HETATM   16  S1  UNL     1      28.867  -1.956  52.945  1.00  0.00    -0.132 S 
HETATM   17  C18 UNL     1      29.917  -0.786  53.880  1.00  0.00     0.108 A 
HETATM   18  H2  UNL     1      29.554  -2.022  51.384  1.00  0.00     0.113 HD
HETATM   19  C17 UNL     1      29.116   0.429  54.180  1.00  0.00    -0.015 A 
HETATM   20  C16 UNL     1      27.927   0.919  53.997  1.00  0.00     0.012 A 
BRANCH  16  21
HETATM   21  O1  UNL     1      28.785  -3.536  53.511  1.00  0.00    -0.349 OA
HETATM   22  H1  UNL     1      29.516  -3.789  54.098  1.00  0.00     0.225 HD
ENDBRANCH  16  21
ENDBRANCH   1  14
BRANCH   3  23
HETATM   23  N2  UNL     1      24.149   3.588  51.569  1.00  0.00    -0.359 N 
HETATM   24  C5  UNL     1      24.557   3.678  50.175  1.00  0.00     0.151 C 
HETATM   25  C6  UNL     1      25.496   4.864  50.077  1.00  0.00     0.187 C 
HETATM   26  O2  UNL     1      24.911   6.027  50.509  1.00  0.00    -0.388 OA
HETATM   27  C7  UNL     1      23.669   5.866  51.097  1.00  0.00     0.187 C 
HETATM   28  C8  UNL     1      23.674   4.811  52.191  1.00  0.00     0.151 C 
ENDBRANCH   3  23
TORSDOF 3
ENDMDL
MODEL 3
REMARK VINA RESULT:      -9.0      2.668      6.491
REMARK  3 active torsions:
REMARK  status: ('A' for Active; 'I' for Inactive)
REMARK    1  A    between atoms: O1_1  and  S1_2 
REMARK    2  A    between atoms: C2_4  and  C3_5 
REMARK    3  A    between atoms: C4_7  and  N2_8 
ROOT
HETATM    1  C3  UNL     1      25.812   0.795  52.471  1.00  0.00     0.163 A 
HETATM    2  N1  UNL     1      24.681   0.286  52.962  1.00  0.00    -0.208 NA
HETATM    3  C4  UNL     1      23.460   0.743  52.620  1.00  0.00     0.165 A 
HETATM    4  C9  UNL     1      23.440   1.799  51.707  1.00  0.00     0.153 A 
HETATM    5  O3  UNL     1      22.428   2.450  51.189  1.00  0.00    -0.285 OA
HETATM    6  C10 UNL     1      22.836   3.391  50.356  1.00  0.00     0.182 A 
HETATM    7  N3  UNL     1      22.232   4.316  49.583  1.00  0.00    -0.236 NA
HETATM    8  C11 UNL     1      22.963   5.170  48.812  1.00  0.00     0.119 A 
HETATM    9  C12 UNL     1      24.359   5.158  48.760  1.00  0.00     0.020 A 
HETATM   10  C13 UNL     1      24.988   4.206  49.555  1.00  0.00     0.020 A 
HETATM   11  C14 UNL     1      24.213   3.362  50.321  1.00  0.00     0.049 A 
HETATM   12  C15 UNL     1      24.606   2.353  51.176  1.00  0.00     0.111 A 
HETATM   13  N4  UNL     1      25.776   1.811  51.593  1.00  0.00    -0.225 NA
ENDROOT
BRANCH   1  14
HETATM   14  C2  UNL     1      27.069   0.212  52.920  1.00  0.00     0.018 A 
HETATM   15  C1  UNL     1      27.442  -1.007  52.576  1.00  0.00     0.063 A 
HETATM   16  S1  UNL     1      28.807  -2.020  52.890  1.00  0.00    -0.132 S 
HETATM   17  C18 UNL     1      29.808  -0.929  53.965  1.00  0.00     0.108 A 
HETATM   18  H2  UNL     1      29.709  -2.174  51.449  1.00  0.00     0.113 HD
HETATM   19  C17 UNL     1      29.083   0.356  54.137  1.00  0.00    -0.015 A 
HETATM   20  C16 UNL     1      27.982   0.944  53.777  1.00  0.00     0.012 A 
BRANCH  16  21
HETATM   21  O1  UNL     1      28.502  -3.576  53.445  1.00  0.00    -0.349 OA
HETATM   22  H1  UNL     1      27.854  -3.624  54.165  1.00  0.00     0.225 HD
ENDBRANCH  16  21
ENDBRANCH   1  14
BRANCH   3  23
HETATM   23  N2  UNL     1      22.289   0.173  53.167  1.00  0.00    -0.359 N 
HETATM   24  C5  UNL     1      22.366  -0.260  54.554  1.00  0.00     0.151 C 
HETATM   25  C6  UNL     1      21.821  -1.674  54.594  1.00  0.00     0.187 C 
HETATM   26  O2  UNL     1      20.540  -1.753  54.109  1.00  0.00    -0.388 OA
HETATM   27  C7  UNL     1      20.069  -0.587  53.532  1.00  0.00     0.187 C 
HETATM   28  C8  UNL     1      21.021  -0.026  52.489  1.00  0.00     0.151 C 
ENDBRANCH   3  23
TORSDOF 3
ENDMDL
MODEL 4
REMARK VINA RESULT:      -8.9      2.383      5.456
REMARK  3 active torsions:
REMARK  status: ('A' for Active; 'I' for Inactive)
REMARK    1  A    between atoms: O1_1  and  S1_2 
REMARK    2  A    between atoms: C2_4  and  C3_5 
REMARK    3  A    between atoms: C4_7  and  N2_8 
ROOT
HETATM    1  C3  UNL     1      23.779   3.374  52.320  1.00  0.00     0.163 A 
HETATM    2  N1  UNL     1      22.898   2.399  52.543  1.00  0.00    -0.208 NA
HETATM    3  C4  UNL     1      23.237   1.211  53.082  1.00  0.00     0.165 A 
HETATM    4  C9  UNL     1      24.586   1.052  53.403  1.00  0.00     0.153 A 
HETATM    5  O3  UNL     1      25.215   0.031  53.931  1.00  0.00    -0.285 OA
HETATM    6  C10 UNL     1      26.504   0.283  54.075  1.00  0.00     0.182 A 
HETATM    7  N3  UNL     1      27.567  -0.397  54.550  1.00  0.00    -0.236 NA
HETATM    8  C11 UNL     1      28.810   0.164  54.561  1.00  0.00     0.119 A 
HETATM    9  C12 UNL     1      29.077   1.454  54.096  1.00  0.00     0.020 A 
HETATM   10  C13 UNL     1      27.984   2.161  53.606  1.00  0.00     0.020 A 
HETATM   11  C14 UNL     1      26.745   1.558  53.611  1.00  0.00     0.049 A 
HETATM   12  C15 UNL     1      25.532   2.054  53.182  1.00  0.00     0.111 A 
HETATM   13  N4  UNL     1      25.073   3.206  52.634  1.00  0.00    -0.225 NA
ENDROOT
BRANCH   1  14
HETATM   14  C2  UNL     1      23.286   4.612  51.731  1.00  0.00     0.018 A 
HETATM   15  C1  UNL     1      24.095   5.513  51.205  1.00  0.00     0.063 A 
HETATM   16  S1  UNL     1      23.907   7.050  50.438  1.00  0.00    -0.132 S 
HETATM   17  C18 UNL     1      22.089   7.248  50.498  1.00  0.00     0.108 A 
HETATM   18  H2  UNL     1      24.281   6.877  48.781  1.00  0.00     0.113 HD
HETATM   19  C17 UNL     1      21.508   6.049  51.155  1.00  0.00    -0.015 A 
HETATM   20  C16 UNL     1      21.869   4.924  51.695  1.00  0.00     0.012 A 
BRANCH  16  21
HETATM   21  O1  UNL     1      24.837   8.322  51.020  1.00  0.00    -0.349 OA
HETATM   22  H1  UNL     1      25.059   8.257  51.962  1.00  0.00     0.225 HD
ENDBRANCH  16  21
ENDBRANCH   1  14
BRANCH   3  23
HETATM   23  N2  UNL     1      22.268   0.206  53.300  1.00  0.00    -0.359 N 
HETATM   24  C5  UNL     1      21.402  -0.113  52.175  1.00  0.00     0.151 C 
HETATM   25  C6  UNL     1      19.981  -0.089  52.705  1.00  0.00     0.187 C 
HETATM   26  O2  UNL     1      19.800  -0.962  53.747  1.00  0.00    -0.388 OA
HETATM   27  C7  UNL     1      20.961  -1.553  54.213  1.00  0.00     0.187 C 
HETATM   28  C8  UNL     1      22.048  -0.539  54.526  1.00  0.00     0.151 C 
ENDBRANCH   3  23
TORSDOF 3
ENDMDL
MODEL 5
REMARK VINA RESULT:      -8.5      3.304      7.852
REMARK  3 active torsions:
REMARK  status: ('A' for Active; 'I' for Inactive)
REMARK    1  A    between atoms: O1_1  and  S1_2 
REMARK    2  A    between atoms: C2_4  and  C3_5 
REMARK    3  A    between atoms: C4_7  and  N2_8 
ROOT
HETATM    1  C3  UNL     1      26.097   2.465  51.244  1.00  0.00     0.163 A 
HETATM    2  N1  UNL     1      24.777   2.607  51.359  1.00  0.00    -0.208 NA
HETATM    3  C4  UNL     1      24.087   3.592  50.749  1.00  0.00     0.165 A 
HETATM    4  C9  UNL     1      24.843   4.474  49.975  1.00  0.00     0.153 A 
HETATM    5  O3  UNL     1      24.471   5.514  49.272  1.00  0.00    -0.285 OA
HETATM    6  C10 UNL     1      25.502   6.089  48.679  1.00  0.00     0.182 A 
HETATM    7  N3  UNL     1      25.672   7.153  47.868  1.00  0.00    -0.236 NA
HETATM    8  C11 UNL     1      26.911   7.494  47.412  1.00  0.00     0.119 A 
HETATM    9  C12 UNL     1      28.073   6.790  47.737  1.00  0.00     0.020 A 
HETATM   10  C13 UNL     1      27.904   5.692  48.572  1.00  0.00     0.020 A 
HETATM   11  C14 UNL     1      26.635   5.380  49.012  1.00  0.00     0.049 A 
HETATM   12  C15 UNL     1      26.227   4.352  49.836  1.00  0.00     0.111 A 
HETATM   13  N4  UNL     1      26.811   3.322  50.495  1.00  0.00    -0.225 NA
ENDROOT
BRANCH   1  14
HETATM   14  C2  UNL     1      26.725   1.359  51.953  1.00  0.00     0.018 A 
HETATM   15  C1  UNL     1      27.787   1.525  52.721  1.00  0.00     0.063 A 
HETATM   16  S1  UNL     1      28.787   0.504  53.692  1.00  0.00    -0.132 S 
HETATM   17  C18 UNL     1      27.987  -1.120  53.424  1.00  0.00     0.108 A 
HETATM   18  H2  UNL     1      28.502   0.874  55.335  1.00  0.00     0.113 HD
HETATM   19  C17 UNL     1      26.830  -0.929  52.512  1.00  0.00    -0.015 A 
HETATM   20  C16 UNL     1      26.215   0.004  51.851  1.00  0.00     0.012 A 
BRANCH  16  21
HETATM   21  O1  UNL     1      30.447   0.592  53.451  1.00  0.00    -0.349 OA
HETATM   22  H1  UNL     1      30.868   1.371  53.848  1.00  0.00     0.225 HD
ENDBRANCH  16  21
ENDBRANCH   1  14
BRANCH   3  23
HETATM   23  N2  UNL     1      22.687   3.703  50.901  1.00  0.00    -0.359 N 
HETATM   24  C5  UNL     1      21.876   3.230  49.789  1.00  0.00     0.151 C 
HETATM   25  C6  UNL     1      20.882   4.333  49.482  1.00  0.00     0.187 C 
HETATM   26  O2  UNL     1      20.111   4.657  50.570  1.00  0.00    -0.388 OA
HETATM   27  C7  UNL     1      20.498   4.051  51.752  1.00  0.00     0.187 C 
HETATM   28  C8  UNL     1      21.977   4.238  52.048  1.00  0.00     0.151 C 
ENDBRANCH   3  23
TORSDOF 3
ENDMDL
MODEL 6
REMARK VINA RESULT:      -8.3      2.725      6.218
REMARK  3 active torsions:
REMARK  status: ('A' for Active; 'I' for Inactive)
REMARK    1  A    between atoms: O1_1  and  S1_2 
REMARK    2  A    between atoms: C2_4  and  C3_5 
REMARK    3  A    between atoms: C4_7  and  N2_8 
ROOT
HETATM    1  C3  UNL     1      23.177   1.367  51.702  1.00  0.00     0.163 A 
HETATM    2  N1  UNL     1      24.240   0.805  52.278  1.00  0.00    -0.208 NA
HETATM    3  C4  UNL     1      25.499   1.247  52.086  1.00  0.00     0.165 A 
HETATM    4  C9  UNL     1      25.635   2.346  51.236  1.00  0.00     0.153 A 
HETATM    5  O3  UNL     1      26.708   2.995  50.858  1.00  0.00    -0.285 OA
HETATM    6  C10 UNL     1      26.408   3.986  50.038  1.00  0.00     0.182 A 
HETATM    7  N3  UNL     1      27.107   4.932  49.379  1.00  0.00    -0.236 NA
HETATM    8  C11 UNL     1      26.476   5.842  48.583  1.00  0.00     0.119 A 
HETATM    9  C12 UNL     1      25.093   5.868  48.389  1.00  0.00     0.020 A 
HETATM   10  C13 UNL     1      24.366   4.896  49.066  1.00  0.00     0.020 A 
HETATM   11  C14 UNL     1      25.041   3.995  49.861  1.00  0.00     0.049 A 
HETATM   12  C15 UNL     1      24.542   2.955  50.619  1.00  0.00     0.111 A 
HETATM   13  N4  UNL     1      23.324   2.424  50.887  1.00  0.00    -0.225 NA
ENDROOT
BRANCH   1  14
HETATM   14  C2  UNL     1      21.869   0.795  51.990  1.00  0.00     0.018 A 
HETATM   15  C1  UNL     1      21.579   0.251  53.157  1.00  0.00     0.063 A 
HETATM   16  S1  UNL     1      20.195  -0.507  53.863  1.00  0.00    -0.132 S 
HETATM   17  C18 UNL     1      19.004  -0.411  52.478  1.00  0.00     0.108 A 
HETATM   18  H2  UNL     1      19.565   0.531  55.064  1.00  0.00     0.113 HD
HETATM   19  C17 UNL     1      19.669   0.261  51.332  1.00  0.00    -0.015 A 
HETATM   20  C16 UNL     1      20.808   0.791  51.000  1.00  0.00     0.012 A 
BRANCH  16  21
HETATM   21  O1  UNL     1      20.419  -2.008  54.582  1.00  0.00    -0.349 OA
HETATM   22  H1  UNL     1      21.288  -2.406  54.416  1.00  0.00     0.225 HD
ENDBRANCH  16  21
ENDBRANCH   1  14
BRANCH   3  23
HETATM   23  N2  UNL     1      26.596   0.619  52.718  1.00  0.00    -0.359 N 
HETATM   24  C5  UNL     1      27.190   1.328  53.841  1.00  0.00     0.151 C 
HETATM   25  C6  UNL     1      28.685   1.353  53.592  1.00  0.00     0.187 C 
HETATM   26  O2  UNL     1      29.210   0.093  53.453  1.00  0.00    -0.388 OA
HETATM   27  C7  UNL     1      28.271  -0.921  53.397  1.00  0.00     0.187 C 
HETATM   28  C8  UNL     1      27.189  -0.658  52.363  1.00  0.00     0.151 C 
ENDBRANCH   3  23
TORSDOF 3
ENDMDL
MODEL 7
REMARK VINA RESULT:      -8.3      2.913      5.510
REMARK  3 active torsions:
REMARK  status: ('A' for Active; 'I' for Inactive)
REMARK    1  A    between atoms: O1_1  and  S1_2 
REMARK    2  A    between atoms: C2_4  and  C3_5 
REMARK    3  A    between atoms: C4_7  and  N2_8 
ROOT
HETATM    1  C3  UNL     1      25.293   3.743  49.927  1.00  0.00     0.163 A 
HETATM    2  N1  UNL     1      24.042   3.566  49.501  1.00  0.00    -0.208 NA
HETATM    3  C4  UNL     1      23.202   2.662  50.043  1.00  0.00     0.165 A 
HETATM    4  C9  UNL     1      23.720   1.906  51.096  1.00  0.00     0.153 A 
HETATM    5  O3  UNL     1      23.161   0.965  51.816  1.00  0.00    -0.285 OA
HETATM    6  C10 UNL     1      23.996   0.494  52.724  1.00  0.00     0.182 A 
HETATM    7  N3  UNL     1      23.935  -0.448  53.688  1.00  0.00    -0.236 NA
HETATM    8  C11 UNL     1      25.011  -0.703  54.487  1.00  0.00     0.119 A 
HETATM    9  C12 UNL     1      26.231  -0.032  54.375  1.00  0.00     0.020 A 
HETATM   10  C13 UNL     1      26.300   0.940  53.383  1.00  0.00     0.020 A 
HETATM   11  C14 UNL     1      25.191   1.169  52.597  1.00  0.00     0.049 A 
HETATM   12  C15 UNL     1      25.024   2.068  51.565  1.00  0.00     0.111 A 
HETATM   13  N4  UNL     1      25.776   3.008  50.942  1.00  0.00    -0.225 NA
ENDROOT
BRANCH   1  14
HETATM   14  C2  UNL     1      26.101   4.753  49.257  1.00  0.00     0.018 A 
HETATM   15  C1  UNL     1      27.391   4.586  49.030  1.00  0.00     0.063 A 
HETATM   16  S1  UNL     1      28.650   5.513  48.293  1.00  0.00    -0.132 S 
HETATM   17  C18 UNL     1      27.731   7.019  47.805  1.00  0.00     0.108 A 
HETATM   18  H2  UNL     1      29.085   4.761  46.824  1.00  0.00     0.113 HD
HETATM   19  C17 UNL     1      26.313   6.857  48.215  1.00  0.00    -0.015 A 
HETATM   20  C16 UNL     1      25.527   6.006  48.802  1.00  0.00     0.012 A 
BRANCH  16  21
HETATM   21  O1  UNL     1      30.066   5.728  49.172  1.00  0.00    -0.349 OA
HETATM   22  H1  UNL     1      29.969   5.588  50.127  1.00  0.00     0.225 HD
ENDBRANCH  16  21
ENDBRANCH   1  14
BRANCH   3  23
HETATM   23  N2  UNL     1      21.884   2.509  49.557  1.00  0.00    -0.359 N 
HETATM   24  C5  UNL     1      21.748   1.986  48.206  1.00  0.00     0.151 C 
HETATM   25  C6  UNL     1      20.795   2.914  47.479  1.00  0.00     0.187 C 
HETATM   26  O2  UNL     1      19.580   3.010  48.110  1.00  0.00    -0.388 OA
HETATM   27  C7  UNL     1      19.522   2.393  49.347  1.00  0.00     0.187 C 
HETATM   28  C8  UNL     1      20.655   2.818  50.266  1.00  0.00     0.151 C 
ENDBRANCH   3  23
TORSDOF 3
ENDMDL
MODEL 8
REMARK VINA RESULT:      -8.1      3.068      6.220
REMARK  3 active torsions:
REMARK  status: ('A' for Active; 'I' for Inactive)
REMARK    1  A    between atoms: O1_1  and  S1_2 
REMARK    2  A    between atoms: C2_4  and  C3_5 
REMARK    3  A    between atoms: C4_7  and  N2_8 
ROOT
HETATM    1  C3  UNL     1      25.869   1.918  51.558  1.00  0.00     0.163 A 
HETATM    2  N1  UNL     1      26.299   3.043  50.984  1.00  0.00    -0.208 NA
HETATM    3  C4  UNL     1      25.529   3.796  50.175  1.00  0.00     0.165 A 
HETATM    4  C9  UNL     1      24.230   3.329  49.963  1.00  0.00     0.153 A 
HETATM    5  O3  UNL     1      23.258   3.830  49.241  1.00  0.00    -0.285 OA
HETATM    6  C10 UNL     1      22.175   3.077  49.305  1.00  0.00     0.182 A 
HETATM    7  N3  UNL     1      20.937   3.130  48.772  1.00  0.00    -0.236 NA
HETATM    8  C11 UNL     1      20.015   2.163  49.044  1.00  0.00     0.119 A 
HETATM    9  C12 UNL     1      20.270   1.067  49.873  1.00  0.00     0.020 A 
HETATM   10  C13 UNL     1      21.544   1.007  50.426  1.00  0.00     0.020 A 
HETATM   11  C14 UNL     1      22.447   2.005  50.126  1.00  0.00     0.049 A 
HETATM   12  C15 UNL     1      23.751   2.156  50.549  1.00  0.00     0.111 A 
HETATM   13  N4  UNL     1      24.617   1.482  51.345  1.00  0.00    -0.225 NA
ENDROOT
BRANCH   1  14
HETATM   14  C2  UNL     1      26.799   1.194  52.412  1.00  0.00     0.018 A 
HETATM   15  C1  UNL     1      27.522   1.798  53.338  1.00  0.00     0.063 A 
HETATM   16  S1  UNL     1      28.695   1.310  54.510  1.00  0.00    -0.132 S 
HETATM   17  C18 UNL     1      28.779  -0.490  54.187  1.00  0.00     0.108 A 
HETATM   18  H2  UNL     1      27.999   1.451  56.062  1.00  0.00     0.113 HD
HETATM   19  C17 UNL     1      27.835  -0.813  53.086  1.00  0.00    -0.015 A 
HETATM   20  C16 UNL     1      26.985  -0.239  52.289  1.00  0.00     0.012 A 
BRANCH  16  21
HETATM   21  O1  UNL     1      30.148   2.152  54.546  1.00  0.00    -0.349 OA
HETATM   22  H1  UNL     1      30.935   1.598  54.423  1.00  0.00     0.225 HD
ENDBRANCH  16  21
ENDBRANCH   1  14
BRANCH   3  23
HETATM   23  N2  UNL     1      26.028   4.980  49.588  1.00  0.00    -0.359 N 
HETATM   24  C5  UNL     1      25.389   6.224  49.994  1.00  0.00     0.151 C 
HETATM   25  C6  UNL     1      25.056   6.972  48.718  1.00  0.00     0.187 C 
HETATM   26  O2  UNL     1      26.165   7.201  47.944  1.00  0.00    -0.388 OA
HETATM   27  C7  UNL     1      27.315   6.571  48.383  1.00  0.00     0.187 C 
HETATM   28  C8  UNL     1      27.110   5.085  48.626  1.00  0.00     0.151 C 
ENDBRANCH   3  23
TORSDOF 3
ENDMDL
MODEL 9
REMARK VINA RESULT:      -8.1      6.507     10.522
REMARK  3 active torsions:
REMARK  status: ('A' for Active; 'I' for Inactive)
REMARK    1  A    between atoms: O1_1  and  S1_2 
REMARK    2  A    between atoms: C2_4  and  C3_5 
REMARK    3  A    between atoms: C4_7  and  N2_8 
ROOT
HETATM    1  C3  UNL     1      28.964   6.041  48.275  1.00  0.00     0.163 A 
HETATM    2  N1  UNL     1      29.339   7.321  48.270  1.00  0.00    -0.208 NA
HETATM    3  C4  UNL     1      30.606   7.715  48.034  1.00  0.00     0.165 A 
HETATM    4  C9  UNL     1      31.525   6.693  47.788  1.00  0.00     0.153 A 
HETATM    5  O3  UNL     1      32.807   6.753  47.529  1.00  0.00    -0.285 OA
HETATM    6  C10 UNL     1      33.321   5.549  47.355  1.00  0.00     0.182 A 
HETATM    7  N3  UNL     1      34.546   5.058  47.078  1.00  0.00    -0.236 NA
HETATM    8  C11 UNL     1      34.752   3.715  46.959  1.00  0.00     0.119 A 
HETATM    9  C12 UNL     1      33.741   2.764  47.112  1.00  0.00     0.020 A 
HETATM   10  C13 UNL     1      32.476   3.263  47.399  1.00  0.00     0.020 A 
HETATM   11  C14 UNL     1      32.308   4.627  47.510  1.00  0.00     0.049 A 
HETATM   12  C15 UNL     1      31.163   5.345  47.785  1.00  0.00     0.111 A 
HETATM   13  N4  UNL     1      29.860   5.069  48.036  1.00  0.00    -0.225 NA
ENDROOT
BRANCH   1  14
HETATM   14  C2  UNL     1      27.564   5.745  48.544  1.00  0.00     0.018 A 
HETATM   15  C1  UNL     1      26.607   6.636  48.358  1.00  0.00     0.063 A 
HETATM   16  S1  UNL     1      24.890   6.671  48.555  1.00  0.00    -0.132 S 
HETATM   17  C18 UNL     1      24.578   4.978  49.173  1.00  0.00     0.108 A 
HETATM   18  H2  UNL     1      24.170   6.720  47.007  1.00  0.00     0.113 HD
HETATM   19  C17 UNL     1      25.876   4.261  49.256  1.00  0.00    -0.015 A 
HETATM   20  C16 UNL     1      27.143   4.447  49.038  1.00  0.00     0.012 A 
BRANCH  16  21
HETATM   21  O1  UNL     1      24.240   7.944  49.438  1.00  0.00    -0.349 OA
HETATM   22  H1  UNL     1      23.599   8.484  48.948  1.00  0.00     0.225 HD
ENDBRANCH  16  21
ENDBRANCH   1  14
BRANCH   3  23
HETATM   23  N2  UNL     1      30.956   9.083  48.040  1.00  0.00    -0.359 N 
HETATM   24  C5  UNL     1      30.759   9.797  49.293  1.00  0.00     0.151 C 
HETATM   25  C6  UNL     1      30.001  11.065  48.951  1.00  0.00     0.187 C 
HETATM   26  O2  UNL     1      30.663  11.834  48.028  1.00  0.00    -0.388 OA
HETATM   27  C7  UNL     1      31.781  11.237  47.474  1.00  0.00     0.187 C 
HETATM   28  C8  UNL     1      31.492   9.849  46.929  1.00  0.00     0.151 C 
ENDBRANCH   3  23
TORSDOF 3
ENDMDL
