MODEL 1
REMARK VINA RESULT:      -7.3      0.000      0.000
REMARK  5 active torsions:
REMARK  status: ('A' for Active; 'I' for Inactive)
REMARK    1  A    between atoms: C2_2  and  C3_3 
REMARK    2  A    between atoms: C4_5  and  C5_6 
REMARK    3  A    between atoms: C5_6  and  N1_7 
REMARK    4  A    between atoms: N1_7  and  C6_8 
REMARK    5  A    between atoms: C8_10  and  C9_11 
ROOT
HETATM    1  C6  UNL     1      25.866   2.476  51.677  1.00  0.00     0.127 A 
HETATM    2  C7  UNL     1      24.919   1.680  52.249  1.00  0.00     0.084 A 
HETATM    3  C8  UNL     1      23.633   1.518  51.784  1.00  0.00     0.095 A 
HETATM    4  N2  UNL     1      23.301   2.221  50.662  1.00  0.00    -0.239 NA
HETATM    5  C15 UNL     1      24.214   3.022  50.068  1.00  0.00     0.236 A 
HETATM    6  N3  UNL     1      25.450   3.132  50.577  1.00  0.00    -0.225 NA
ENDROOT
BRANCH   1   7
HETATM    7  N1  UNL     1      27.177   2.632  52.151  1.00  0.00    -0.371 N 
HETATM    8  H7  UNL     1      27.877   3.011  51.440  1.00  0.00     0.161 HD
BRANCH   7   9
HETATM    9  C5  UNL     1      27.711   2.354  53.456  1.00  0.00     0.150 C 
BRANCH   9  10
HETATM   10  C4  UNL     1      28.778   1.317  53.428  1.00  0.00     0.016 C 
HETATM   11  C3  UNL     1      28.612  -0.017  53.497  1.00  0.00     0.031 C 
HETATM   12 CL1  UNL     1      30.018  -1.051  53.449  1.00  0.00    -0.085 Cl
BRANCH  11  13
HETATM   13  C2  UNL     1      27.295  -0.662  53.613  1.00  0.00     0.013 C 
HETATM   14  C1  UNL     1      26.816  -1.386  52.611  1.00  0.00     0.013 C 
ENDBRANCH  11  13
ENDBRANCH   9  10
ENDBRANCH   7   9
ENDBRANCH   1   7
BRANCH   3  15
HETATM   15  C9  UNL     1      22.602   0.674  52.368  1.00  0.00     0.098 C 
HETATM   16  C10 UNL     1      22.955  -0.149  53.330  1.00  0.00     0.039 C 
HETATM   17  C11 UNL     1      22.255  -1.119  54.140  1.00  0.00     0.007 C 
HETATM   18  C12 UNL     1      20.937  -1.305  54.176  1.00  0.00     0.052 C 
HETATM   19  C13 UNL     1      19.931  -0.557  53.393  1.00  0.00     0.173 C 
HETATM   20  O1  UNL     1      18.765  -1.084  53.440  1.00  0.00    -0.291 OA
HETATM   21  C14 UNL     1      20.052   0.691  52.570  1.00  0.00     0.258 C 
HETATM   22  O2  UNL     1      21.300   0.756  51.907  1.00  0.00    -0.341 OA
ENDBRANCH   3  15
TORSDOF 5
ENDMDL
MODEL 2
REMARK VINA RESULT:      -7.1      3.443      4.658
REMARK  5 active torsions:
REMARK  status: ('A' for Active; 'I' for Inactive)
REMARK    1  A    between atoms: C2_2  and  C3_3 
REMARK    2  A    between atoms: C4_5  and  C5_6 
REMARK    3  A    between atoms: C5_6  and  N1_7 
REMARK    4  A    between atoms: N1_7  and  C6_8 
REMARK    5  A    between atoms: C8_10  and  C9_11 
ROOT
HETATM    1  C6  UNL     1      26.357   2.424  51.604  1.00  0.00     0.127 A 
HETATM    2  C7  UNL     1      25.134   1.918  51.925  1.00  0.00     0.084 A 
HETATM    3  C8  UNL     1      24.918   0.789  52.685  1.00  0.00     0.095 A 
HETATM    4  N2  UNL     1      26.030   0.142  53.140  1.00  0.00    -0.239 NA
HETATM    5  C15 UNL     1      27.261   0.616  52.840  1.00  0.00     0.236 A 
HETATM    6  N3  UNL     1      27.396   1.722  52.094  1.00  0.00    -0.225 NA
ENDROOT
BRANCH   1   7
HETATM    7  N1  UNL     1      26.571   3.579  50.835  1.00  0.00    -0.371 N 
HETATM    8  H7  UNL     1      26.638   4.489  51.390  1.00  0.00     0.161 HD
BRANCH   7   9
HETATM    9  C5  UNL     1      26.712   3.710  49.412  1.00  0.00     0.150 C 
BRANCH   9  10
HETATM   10  C4  UNL     1      26.566   5.116  48.949  1.00  0.00     0.016 C 
HETATM   11  C3  UNL     1      27.527   5.901  48.426  1.00  0.00     0.031 C 
HETATM   12 CL1  UNL     1      27.126   7.532  47.950  1.00  0.00    -0.085 Cl
BRANCH  11  13
HETATM   13  C2  UNL     1      28.915   5.454  48.228  1.00  0.00     0.013 C 
HETATM   14  C1  UNL     1      29.847   6.318  47.852  1.00  0.00     0.013 C 
ENDBRANCH  11  13
ENDBRANCH   9  10
ENDBRANCH   7   9
ENDBRANCH   1   7
BRANCH   3  15
HETATM   15  C9  UNL     1      23.627   0.225  53.048  1.00  0.00     0.098 C 
HETATM   16  C10 UNL     1      23.578  -0.576  54.088  1.00  0.00     0.039 C 
HETATM   17  C11 UNL     1      22.525  -1.314  54.749  1.00  0.00     0.007 C 
HETATM   18  C12 UNL     1      21.222  -1.219  54.494  1.00  0.00     0.052 C 
HETATM   19  C13 UNL     1      20.595  -0.341  53.483  1.00  0.00     0.173 C 
HETATM   20  O1  UNL     1      19.359  -0.609  53.282  1.00  0.00    -0.291 OA
HETATM   21  C14 UNL     1      21.159   0.787  52.672  1.00  0.00     0.258 C 
HETATM   22  O2  UNL     1      22.503   0.540  52.304  1.00  0.00    -0.341 OA
ENDBRANCH   3  15
TORSDOF 5
ENDMDL
MODEL 3
REMARK VINA RESULT:      -7.0      3.810      6.312
REMARK  5 active torsions:
REMARK  status: ('A' for Active; 'I' for Inactive)
REMARK    1  A    between atoms: C2_2  and  C3_3 
REMARK    2  A    between atoms: C4_5  and  C5_6 
REMARK    3  A    between atoms: C5_6  and  N1_7 
REMARK    4  A    between atoms: N1_7  and  C6_8 
REMARK    5  A    between atoms: C8_10  and  C9_11 
ROOT
HETATM    1  C6  UNL     1      24.002   3.200  52.684  1.00  0.00     0.127 A 
HETATM    2  C7  UNL     1      25.128   2.450  52.854  1.00  0.00     0.084 A 
HETATM    3  C8  UNL     1      25.158   1.077  52.947  1.00  0.00     0.095 A 
HETATM    4  N2  UNL     1      23.956   0.436  52.861  1.00  0.00    -0.239 NA
HETATM    5  C15 UNL     1      22.818   1.148  52.693  1.00  0.00     0.236 A 
HETATM    6  N3  UNL     1      22.864   2.486  52.611  1.00  0.00    -0.225 NA
ENDROOT
BRANCH   1   7
HETATM    7  N1  UNL     1      23.978   4.600  52.583  1.00  0.00    -0.371 N 
HETATM    8  H7  UNL     1      24.386   5.124  53.419  1.00  0.00     0.161 HD
BRANCH   7   9
HETATM    9  C5  UNL     1      23.482   5.426  51.518  1.00  0.00     0.150 C 
BRANCH   9  10
HETATM   10  C4  UNL     1      24.525   6.329  50.961  1.00  0.00     0.016 C 
HETATM   11  C3  UNL     1      25.410   6.040  49.988  1.00  0.00     0.031 C 
HETATM   12 CL1  UNL     1      26.553   7.262  49.491  1.00  0.00    -0.085 Cl
BRANCH  11  13
HETATM   13  C2  UNL     1      25.469   4.736  49.311  1.00  0.00     0.013 C 
HETATM   14  C1  UNL     1      26.454   3.889  49.576  1.00  0.00     0.013 C 
ENDBRANCH  11  13
ENDBRANCH   9  10
ENDBRANCH   7   9
ENDBRANCH   1   7
BRANCH   3  15
HETATM   15  C9  UNL     1      26.341   0.248  53.125  1.00  0.00     0.098 C 
HETATM   16  C10 UNL     1      26.304  -0.981  52.661  1.00  0.00     0.039 C 
HETATM   17  C11 UNL     1      27.239  -2.083  52.639  1.00  0.00     0.007 C 
HETATM   18  C12 UNL     1      28.519  -2.033  53.005  1.00  0.00     0.052 C 
HETATM   19  C13 UNL     1      29.234  -0.841  53.508  1.00  0.00     0.173 C 
HETATM   20  O1  UNL     1      30.382  -1.116  54.003  1.00  0.00    -0.291 OA
HETATM   21  C14 UNL     1      28.841   0.606  53.533  1.00  0.00     0.258 C 
HETATM   22  O2  UNL     1      27.454   0.764  53.765  1.00  0.00    -0.341 OA
ENDBRANCH   3  15
TORSDOF 5
ENDMDL
MODEL 4
REMARK VINA RESULT:      -7.0      3.761      6.770
REMARK  5 active torsions:
REMARK  status: ('A' for Active; 'I' for Inactive)
REMARK    1  A    between atoms: C2_2  and  C3_3 
REMARK    2  A    between atoms: C4_5  and  C5_6 
REMARK    3  A    between atoms: C5_6  and  N1_7 
REMARK    4  A    between atoms: N1_7  and  C6_8 
REMARK    5  A    between atoms: C8_10  and  C9_11 
ROOT
HETATM    1  C6  UNL     1      23.009   1.566  52.226  1.00  0.00     0.127 A 
HETATM    2  C7  UNL     1      24.070   0.725  52.383  1.00  0.00     0.084 A 
HETATM    3  C8  UNL     1      25.284   1.075  52.932  1.00  0.00     0.095 A 
HETATM    4  N2  UNL     1      25.413   2.370  53.343  1.00  0.00    -0.239 NA
HETATM    5  C15 UNL     1      24.381   3.233  53.202  1.00  0.00     0.236 A 
HETATM    6  N3  UNL     1      23.227   2.822  52.657  1.00  0.00    -0.225 NA
ENDROOT
BRANCH   1   7
HETATM    7  N1  UNL     1      21.772   1.203  51.672  1.00  0.00    -0.371 N 
HETATM    8  H7  UNL     1      21.826   0.591  50.798  1.00  0.00     0.161 HD
BRANCH   7   9
HETATM    9  C5  UNL     1      20.445   1.536  52.112  1.00  0.00     0.150 C 
BRANCH   9  10
HETATM   10  C4  UNL     1      19.619   0.333  52.401  1.00  0.00     0.016 C 
HETATM   11  C3  UNL     1      19.760  -0.517  53.436  1.00  0.00     0.031 C 
HETATM   12 CL1  UNL     1      18.669  -1.872  53.575  1.00  0.00    -0.085 Cl
BRANCH  11  13
HETATM   13  C2  UNL     1      20.796  -0.365  54.470  1.00  0.00     0.013 C 
HETATM   14  C1  UNL     1      21.727  -1.295  54.624  1.00  0.00     0.013 C 
ENDBRANCH  11  13
ENDBRANCH   9  10
ENDBRANCH   7   9
ENDBRANCH   1   7
BRANCH   3  15
HETATM   15  C9  UNL     1      26.433   0.202  53.116  1.00  0.00     0.098 C 
HETATM   16  C10 UNL     1      26.368  -1.012  52.616  1.00  0.00     0.039 C 
HETATM   17  C11 UNL     1      27.265  -2.144  52.586  1.00  0.00     0.007 C 
HETATM   18  C12 UNL     1      28.535  -2.148  52.988  1.00  0.00     0.052 C 
HETATM   19  C13 UNL     1      29.276  -0.996  53.544  1.00  0.00     0.173 C 
HETATM   20  O1  UNL     1      30.400  -1.325  54.061  1.00  0.00    -0.291 OA
HETATM   21  C14 UNL     1      28.931   0.462  53.601  1.00  0.00     0.258 C 
HETATM   22  O2  UNL     1      27.545   0.661  53.801  1.00  0.00    -0.341 OA
ENDBRANCH   3  15
TORSDOF 5
ENDMDL
MODEL 5
REMARK VINA RESULT:      -6.9      2.613      4.042
REMARK  5 active torsions:
REMARK  status: ('A' for Active; 'I' for Inactive)
REMARK    1  A    between atoms: C2_2  and  C3_3 
REMARK    2  A    between atoms: C4_5  and  C5_6 
REMARK    3  A    between atoms: C5_6  and  N1_7 
REMARK    4  A    between atoms: N1_7  and  C6_8 
REMARK    5  A    between atoms: C8_10  and  C9_11 
ROOT
HETATM    1  C6  UNL     1      23.484  -0.266  53.474  1.00  0.00     0.127 A 
HETATM    2  C7  UNL     1      22.207  -0.217  53.002  1.00  0.00     0.084 A 
HETATM    3  C8  UNL     1      21.108  -0.760  53.629  1.00  0.00     0.095 A 
HETATM    4  N2  UNL     1      21.339  -1.394  54.816  1.00  0.00    -0.239 NA
HETATM    5  C15 UNL     1      22.594  -1.463  55.316  1.00  0.00     0.236 A 
HETATM    6  N3  UNL     1      23.618  -0.910  54.648  1.00  0.00    -0.225 NA
ENDROOT
BRANCH   1   7
HETATM    7  N1  UNL     1      24.599   0.295  52.833  1.00  0.00    -0.371 N 
HETATM    8  H7  UNL     1      24.389   1.130  52.201  1.00  0.00     0.161 HD
BRANCH   7   9
HETATM    9  C5  UNL     1      25.981  -0.092  52.906  1.00  0.00     0.150 C 
BRANCH   9  10
HETATM   10  C4  UNL     1      26.894   1.070  53.072  1.00  0.00     0.016 C 
HETATM   11  C3  UNL     1      28.107   1.070  53.656  1.00  0.00     0.031 C 
HETATM   12 CL1  UNL     1      29.008   2.562  53.740  1.00  0.00    -0.085 Cl
BRANCH  11  13
HETATM   13  C2  UNL     1      28.725  -0.134  54.233  1.00  0.00     0.013 C 
HETATM   14  C1  UNL     1      29.666  -0.787  53.567  1.00  0.00     0.013 C 
ENDBRANCH  11  13
ENDBRANCH   9  10
ENDBRANCH   7   9
ENDBRANCH   1   7
BRANCH   3  15
HETATM   15  C9  UNL     1      19.734  -0.722  53.154  1.00  0.00     0.098 C 
HETATM   16  C10 UNL     1      19.469   0.020  52.102  1.00  0.00     0.039 C 
HETATM   17  C11 UNL     1      18.273   0.316  51.346  1.00  0.00     0.007 C 
HETATM   18  C12 UNL     1      17.087  -0.272  51.494  1.00  0.00     0.052 C 
HETATM   19  C13 UNL     1      16.760  -1.340  52.462  1.00  0.00     0.173 C 
HETATM   20  O1  UNL     1      15.503  -1.564  52.557  1.00  0.00    -0.291 OA
HETATM   21  C14 UNL     1      17.642  -2.184  53.333  1.00  0.00     0.258 C 
HETATM   22  O2  UNL     1      18.757  -1.453  53.807  1.00  0.00    -0.341 OA
ENDBRANCH   3  15
TORSDOF 5
ENDMDL
MODEL 6
REMARK VINA RESULT:      -6.8      2.793      4.428
REMARK  5 active torsions:
REMARK  status: ('A' for Active; 'I' for Inactive)
REMARK    1  A    between atoms: C2_2  and  C3_3 
REMARK    2  A    between atoms: C4_5  and  C5_6 
REMARK    3  A    between atoms: C5_6  and  N1_7 
REMARK    4  A    between atoms: N1_7  and  C6_8 
REMARK    5  A    between atoms: C8_10  and  C9_11 
ROOT
HETATM    1  C6  UNL     1      26.523   2.425  51.722  1.00  0.00     0.127 A 
HETATM    2  C7  UNL     1      25.295   1.905  52.004  1.00  0.00     0.084 A 
HETATM    3  C8  UNL     1      25.051   0.893  52.906  1.00  0.00     0.095 A 
HETATM    4  N2  UNL     1      26.138   0.385  53.557  1.00  0.00    -0.239 NA
HETATM    5  C15 UNL     1      27.372   0.876  53.302  1.00  0.00     0.236 A 
HETATM    6  N3  UNL     1      27.535   1.863  52.409  1.00  0.00    -0.225 NA
ENDROOT
BRANCH   1   7
HETATM    7  N1  UNL     1      26.765   3.461  50.807  1.00  0.00    -0.371 N 
HETATM    8  H7  UNL     1      27.346   4.274  51.183  1.00  0.00     0.161 HD
BRANCH   7   9
HETATM    9  C5  UNL     1      26.343   3.583  49.439  1.00  0.00     0.150 C 
BRANCH   9  10
HETATM   10  C4  UNL     1      25.269   4.597  49.260  1.00  0.00     0.016 C 
HETATM   11  C3  UNL     1      23.951   4.363  49.114  1.00  0.00     0.031 C 
HETATM   12 CL1  UNL     1      22.867   5.717  48.915  1.00  0.00    -0.085 Cl
BRANCH  11  13
HETATM   13  C2  UNL     1      23.365   3.014  49.114  1.00  0.00     0.013 C 
HETATM   14  C1  UNL     1      22.685   2.582  48.062  1.00  0.00     0.013 C 
ENDBRANCH  11  13
ENDBRANCH   9  10
ENDBRANCH   7   9
ENDBRANCH   1   7
BRANCH   3  15
HETATM   15  C9  UNL     1      23.754   0.320  53.232  1.00  0.00     0.098 C 
HETATM   16  C10 UNL     1      23.702  -0.570  54.197  1.00  0.00     0.039 C 
HETATM   17  C11 UNL     1      22.644  -1.348  54.802  1.00  0.00     0.007 C 
HETATM   18  C12 UNL     1      21.340  -1.210  54.571  1.00  0.00     0.052 C 
HETATM   19  C13 UNL     1      20.718  -0.236  53.649  1.00  0.00     0.173 C 
HETATM   20  O1  UNL     1      19.476  -0.466  53.439  1.00  0.00    -0.291 OA
HETATM   21  C14 UNL     1      21.293   0.951  52.934  1.00  0.00     0.258 C 
HETATM   22  O2  UNL     1      22.629   0.717  52.532  1.00  0.00    -0.341 OA
ENDBRANCH   3  15
TORSDOF 5
ENDMDL
MODEL 7
REMARK VINA RESULT:      -6.8      3.456      6.479
REMARK  5 active torsions:
REMARK  status: ('A' for Active; 'I' for Inactive)
REMARK    1  A    between atoms: C2_2  and  C3_3 
REMARK    2  A    between atoms: C4_5  and  C5_6 
REMARK    3  A    between atoms: C5_6  and  N1_7 
REMARK    4  A    between atoms: N1_7  and  C6_8 
REMARK    5  A    between atoms: C8_10  and  C9_11 
ROOT
HETATM    1  C6  UNL     1      23.172   2.147  51.106  1.00  0.00     0.127 A 
HETATM    2  C7  UNL     1      24.214   1.510  51.710  1.00  0.00     0.084 A 
HETATM    3  C8  UNL     1      25.545   1.804  51.512  1.00  0.00     0.095 A 
HETATM    4  N2  UNL     1      25.819   2.815  50.637  1.00  0.00    -0.239 NA
HETATM    5  C15 UNL     1      24.810   3.470  50.019  1.00  0.00     0.236 A 
HETATM    6  N3  UNL     1      23.536   3.129  50.260  1.00  0.00    -0.225 NA
ENDROOT
BRANCH   1   7
HETATM    7  N1  UNL     1      21.817   1.849  51.316  1.00  0.00    -0.371 N 
HETATM    8  H7  UNL     1      21.282   1.523  50.451  1.00  0.00     0.161 HD
BRANCH   7   9
HETATM    9  C5  UNL     1      21.048   1.919  52.528  1.00  0.00     0.150 C 
BRANCH   9  10
HETATM   10  C4  UNL     1      20.020   0.848  52.617  1.00  0.00     0.016 C 
HETATM   11  C3  UNL     1      20.038  -0.227  53.427  1.00  0.00     0.031 C 
HETATM   12 CL1  UNL     1      18.715  -1.364  53.360  1.00  0.00    -0.085 Cl
BRANCH  11  13
HETATM   13  C2  UNL     1      21.125  -0.501  54.381  1.00  0.00     0.013 C 
HETATM   14  C1  UNL     1      22.163  -1.238  54.016  1.00  0.00     0.013 C 
ENDBRANCH  11  13
ENDBRANCH   9  10
ENDBRANCH   7   9
ENDBRANCH   1   7
BRANCH   3  15
HETATM   15  C9  UNL     1      26.678   1.145  52.143  1.00  0.00     0.098 C 
HETATM   16  C10 UNL     1      27.511   1.888  52.836  1.00  0.00     0.039 C 
HETATM   17  C11 UNL     1      28.717   1.626  53.589  1.00  0.00     0.007 C 
HETATM   18  C12 UNL     1      29.214   0.424  53.877  1.00  0.00     0.052 C 
HETATM   19  C13 UNL     1      28.632  -0.877  53.484  1.00  0.00     0.173 C 
HETATM   20  O1  UNL     1      29.423  -1.863  53.687  1.00  0.00    -0.291 OA
HETATM   21  C14 UNL     1      27.295  -1.220  52.897  1.00  0.00     0.258 C 
HETATM   22  O2  UNL     1      26.849  -0.221  52.001  1.00  0.00    -0.341 OA
ENDBRANCH   3  15
TORSDOF 5
ENDMDL
MODEL 8
REMARK VINA RESULT:      -6.7      3.913      6.964
REMARK  5 active torsions:
REMARK  status: ('A' for Active; 'I' for Inactive)
REMARK    1  A    between atoms: C2_2  and  C3_3 
REMARK    2  A    between atoms: C4_5  and  C5_6 
REMARK    3  A    between atoms: C5_6  and  N1_7 
REMARK    4  A    between atoms: N1_7  and  C6_8 
REMARK    5  A    between atoms: C8_10  and  C9_11 
ROOT
HETATM    1  C6  UNL     1      21.871  -0.400  53.577  1.00  0.00     0.127 A 
HETATM    2  C7  UNL     1      23.127   0.054  53.306  1.00  0.00     0.084 A 
HETATM    3  C8  UNL     1      24.256  -0.260  54.030  1.00  0.00     0.095 A 
HETATM    4  N2  UNL     1      24.080  -1.091  55.099  1.00  0.00    -0.239 NA
HETATM    5  C15 UNL     1      22.847  -1.560  55.398  1.00  0.00     0.236 A 
HETATM    6  N3  UNL     1      21.791  -1.211  54.648  1.00  0.00    -0.225 NA
ENDROOT
BRANCH   1   7
HETATM    7  N1  UNL     1      20.725  -0.082  52.832  1.00  0.00    -0.371 N 
HETATM    8  H7  UNL     1      19.970  -0.837  52.814  1.00  0.00     0.161 HD
BRANCH   7   9
HETATM    9  C5  UNL     1      20.424   1.111  52.090  1.00  0.00     0.150 C 
BRANCH   9  10
HETATM   10  C4  UNL     1      20.702   0.966  50.636  1.00  0.00     0.016 C 
HETATM   11  C3  UNL     1      21.739   1.487  49.953  1.00  0.00     0.031 C 
HETATM   12 CL1  UNL     1      21.863   1.187  48.238  1.00  0.00    -0.085 Cl
BRANCH  11  13
HETATM   13  C2  UNL     1      22.789   2.305  50.580  1.00  0.00     0.013 C 
HETATM   14  C1  UNL     1      23.677   2.941  49.831  1.00  0.00     0.013 C 
ENDBRANCH  11  13
ENDBRANCH   9  10
ENDBRANCH   7   9
ENDBRANCH   1   7
BRANCH   3  15
HETATM   15  C9  UNL     1      25.609   0.203  53.766  1.00  0.00     0.098 C 
HETATM   16  C10 UNL     1      25.755   1.276  53.021  1.00  0.00     0.039 C 
HETATM   17  C11 UNL     1      26.892   2.030  52.543  1.00  0.00     0.007 C 
HETATM   18  C12 UNL     1      28.161   1.852  52.908  1.00  0.00     0.052 C 
HETATM   19  C13 UNL     1      28.655   0.846  53.873  1.00  0.00     0.173 C 
HETATM   20  O1  UNL     1      29.930   0.733  53.870  1.00  0.00    -0.291 OA
HETATM   21  C14 UNL     1      27.922  -0.043  54.832  1.00  0.00     0.258 C 
HETATM   22  O2  UNL     1      26.689  -0.482  54.294  1.00  0.00    -0.341 OA
ENDBRANCH   3  15
TORSDOF 5
ENDMDL
MODEL 9
REMARK VINA RESULT:      -6.6      4.475      7.878
REMARK  5 active torsions:
REMARK  status: ('A' for Active; 'I' for Inactive)
REMARK    1  A    between atoms: C2_2  and  C3_3 
REMARK    2  A    between atoms: C4_5  and  C5_6 
REMARK    3  A    between atoms: C5_6  and  N1_7 
REMARK    4  A    between atoms: N1_7  and  C6_8 
REMARK    5  A    between atoms: C8_10  and  C9_11 
ROOT
HETATM    1  C6  UNL     1      21.137  -0.141  52.648  1.00  0.00     0.127 A 
HETATM    2  C7  UNL     1      22.474   0.116  52.583  1.00  0.00     0.084 A 
HETATM    3  C8  UNL     1      23.405  -0.291  53.512  1.00  0.00     0.095 A 
HETATM    4  N2  UNL     1      22.931  -1.006  54.574  1.00  0.00    -0.239 NA
HETATM    5  C15 UNL     1      21.610  -1.279  54.672  1.00  0.00     0.236 A 
HETATM    6  N3  UNL     1      20.759  -0.850  53.728  1.00  0.00    -0.225 NA
ENDROOT
BRANCH   1   7
HETATM    7  N1  UNL     1      20.193   0.271  51.695  1.00  0.00    -0.371 N 
HETATM    8  H7  UNL     1      20.429   0.023  50.684  1.00  0.00     0.161 HD
BRANCH   7   9
HETATM    9  C5  UNL     1      18.957   0.978  51.885  1.00  0.00     0.150 C 
BRANCH   9  10
HETATM   10  C4  UNL     1      17.785   0.239  51.345  1.00  0.00     0.016 C 
HETATM   11  C3  UNL     1      17.111  -0.761  51.946  1.00  0.00     0.031 C 
HETATM   12 CL1  UNL     1      15.758  -1.489  51.118  1.00  0.00    -0.085 Cl
BRANCH  11  13
HETATM   13  C2  UNL     1      17.456  -1.281  53.278  1.00  0.00     0.013 C 
HETATM   14  C1  UNL     1      17.606  -2.583  53.468  1.00  0.00     0.013 C 
ENDBRANCH  11  13
ENDBRANCH   9  10
ENDBRANCH   7   9
ENDBRANCH   1   7
BRANCH   3  15
HETATM   15  C9  UNL     1      24.837  -0.036  53.470  1.00  0.00     0.098 C 
HETATM   16  C10 UNL     1      25.312   0.624  52.437  1.00  0.00     0.039 C 
HETATM   17  C11 UNL     1      26.629   1.063  52.035  1.00  0.00     0.007 C 
HETATM   18  C12 UNL     1      27.736   0.999  52.773  1.00  0.00     0.052 C 
HETATM   19  C13 UNL     1      27.835   0.465  54.148  1.00  0.00     0.173 C 
HETATM   20  O1  UNL     1      29.044   0.307  54.539  1.00  0.00    -0.291 OA
HETATM   21  C14 UNL     1      26.774   0.085  55.136  1.00  0.00     0.258 C 
HETATM   22  O2  UNL     1      25.648  -0.485  54.497  1.00  0.00    -0.341 OA
ENDBRANCH   3  15
TORSDOF 5
ENDMDL
