MODEL 1
REMARK VINA RESULT:      -8.8      0.000      0.000
REMARK  4 active torsions:
REMARK  status: ('A' for Active; 'I' for Inactive)
REMARK    1  A    between atoms: O1_2  and  C2_3 
REMARK    2  A    between atoms: C8_10  and  N2_11 
REMARK    3  A    between atoms: N2_11  and  C9_12 
REMARK    4  A    between atoms: C9_12  and  C10_13 
ROOT
HETATM    1  C2  UNL     1      26.982   1.165  52.682  1.00  0.00     0.073 C 
HETATM    2  C3  UNL     1      25.743   1.699  52.635  1.00  0.00     0.050 C 
HETATM    3  C4  UNL     1      24.519   0.901  52.760  1.00  0.00     0.020 C 
HETATM    4  C5  UNL     1      23.535   1.427  51.963  1.00  0.00     0.008 C 
HETATM    5  C6  UNL     1      22.313   0.740  51.999  1.00  0.00     0.147 C 
HETATM    6  N1  UNL     1      21.057   1.109  52.418  1.00  0.00    -0.392 N 
HETATM    7  C7  UNL     1      19.919   0.236  52.506  1.00  0.00     0.131 C 
HETATM    8  C8  UNL     1      20.250  -0.353  53.643  1.00  0.00     0.108 C 
HETATM    9  N3  UNL     1      21.024  -0.592  54.735  1.00  0.00    -0.357 NA
HETATM   10  C15 UNL     1      22.280  -0.793  54.954  1.00  0.00     0.409 C 
HETATM   11  N4  UNL     1      23.568  -0.909  54.414  1.00  0.00    -0.214 NA
HETATM   12  C16 UNL     1      24.325  -0.296  53.646  1.00  0.00     0.211 C 
HETATM   13  O3  UNL     1      25.443  -1.181  53.698  1.00  0.00    -0.176 OA
HETATM   14  O4  UNL     1      26.763  -0.912  53.882  1.00  0.00    -0.227 OA
HETATM   15  C17 UNL     1      27.381  -0.267  52.860  1.00  0.00     0.275 C 
HETATM   16  H8  UNL     1      20.703   2.040  52.736  1.00  0.00     0.159 HD
ENDROOT
BRANCH   8  17
HETATM   17  N2  UNL     1      19.141  -1.268  53.817  1.00  0.00    -0.372 N 
HETATM   18  H10 UNL     1      19.231  -2.125  54.442  1.00  0.00     0.161 HD
BRANCH  17  19
HETATM   19  C9  UNL     1      17.911  -0.972  53.110  1.00  0.00     0.159 C 
BRANCH  19  20
HETATM   20  C10 UNL     1      17.065  -2.171  53.036  1.00  0.00    -0.018 A 
HETATM   21  C11 UNL     1      15.922  -2.247  52.358  1.00  0.00     0.125 A 
HETATM   22 BR1  UNL     1      15.195  -0.805  51.368  1.00  0.00    -0.023 Br
HETATM   23  O2  UNL     1      15.180  -3.442  52.350  1.00  0.00    -0.315 OA
HETATM   24  C12 UNL     1      15.663  -4.514  53.053  1.00  0.00     0.139 A 
HETATM   25  C13 UNL     1      16.799  -4.453  53.731  1.00  0.00     0.002 A 
HETATM   26  C14 UNL     1      17.693  -3.250  53.830  1.00  0.00     0.068 A 
ENDBRANCH  19  20
ENDBRANCH  17  19
ENDBRANCH   8  17
BRANCH   1  27
HETATM   27  O1  UNL     1      27.915   2.172  52.535  1.00  0.00    -0.358 OA
HETATM   28  C1  UNL     1      28.861   2.482  53.515  1.00  0.00     0.209 C 
ENDBRANCH   1  27
TORSDOF 4
ENDMDL
MODEL 2
REMARK VINA RESULT:      -8.2      5.755     10.589
REMARK  4 active torsions:
REMARK  status: ('A' for Active; 'I' for Inactive)
REMARK    1  A    between atoms: O1_2  and  C2_3 
REMARK    2  A    between atoms: C8_10  and  N2_11 
REMARK    3  A    between atoms: N2_11  and  C9_12 
REMARK    4  A    between atoms: C9_12  and  C10_13 
ROOT
HETATM    1  C2  UNL     1      23.605  -0.358  53.410  1.00  0.00     0.073 C 
HETATM    2  C3  UNL     1      23.116   0.690  52.714  1.00  0.00     0.050 C 
HETATM    3  C4  UNL     1      23.931   1.844  52.322  1.00  0.00     0.020 C 
HETATM    4  C5  UNL     1      23.175   2.987  52.365  1.00  0.00     0.008 C 
HETATM    5  C6  UNL     1      23.855   4.161  52.011  1.00  0.00     0.147 C 
HETATM    6  N1  UNL     1      23.688   5.049  50.975  1.00  0.00    -0.392 N 
HETATM    7  C7  UNL     1      24.558   6.154  50.677  1.00  0.00     0.131 C 
HETATM    8  C8  UNL     1      25.509   5.458  50.077  1.00  0.00     0.108 C 
HETATM    9  N3  UNL     1      26.108   4.334  49.600  1.00  0.00    -0.357 NA
HETATM   10  C15 UNL     1      26.348   3.149  50.051  1.00  0.00     0.409 C 
HETATM   11  N4  UNL     1      26.234   2.247  51.118  1.00  0.00    -0.214 NA
HETATM   12  C16 UNL     1      25.371   1.812  51.894  1.00  0.00     0.211 C 
HETATM   13  O3  UNL     1      26.192   0.920  52.648  1.00  0.00    -0.176 OA
HETATM   14  O4  UNL     1      25.980  -0.375  53.001  1.00  0.00    -0.227 OA
HETATM   15  C17 UNL     1      24.998  -0.583  53.915  1.00  0.00     0.275 C 
HETATM   16  H8  UNL     1      22.941   5.094  50.245  1.00  0.00     0.159 HD
ENDROOT
BRANCH   8  17
HETATM   17  N2  UNL     1      26.448   6.505  49.735  1.00  0.00    -0.372 N 
HETATM   18  H10 UNL     1      26.779   7.204  50.466  1.00  0.00     0.161 HD
BRANCH  17  19
HETATM   19  C9  UNL     1      26.917   6.562  48.364  1.00  0.00     0.159 C 
BRANCH  19  20
HETATM   20  C10 UNL     1      28.367   6.797  48.332  1.00  0.00    -0.018 A 
HETATM   21  C11 UNL     1      28.940   7.993  48.448  1.00  0.00     0.125 A 
HETATM   22 BR1  UNL     1      27.967   9.602  48.676  1.00  0.00    -0.023 Br
HETATM   23  O2  UNL     1      30.341   8.116  48.402  1.00  0.00    -0.315 OA
HETATM   24  C12 UNL     1      31.089   6.981  48.237  1.00  0.00     0.139 A 
HETATM   25  C13 UNL     1      30.533   5.785  48.120  1.00  0.00     0.002 A 
HETATM   26  C14 UNL     1      29.058   5.501  48.151  1.00  0.00     0.068 A 
ENDBRANCH  19  20
ENDBRANCH  17  19
ENDBRANCH   8  17
BRANCH   1  27
HETATM   27  O1  UNL     1      22.594  -1.273  53.620  1.00  0.00    -0.358 OA
HETATM   28  C1  UNL     1      21.624  -1.122  54.614  1.00  0.00     0.209 C 
ENDBRANCH   1  27
TORSDOF 4
ENDMDL
MODEL 3
REMARK VINA RESULT:      -8.1      5.957      8.385
REMARK  4 active torsions:
REMARK  status: ('A' for Active; 'I' for Inactive)
REMARK    1  A    between atoms: O1_2  and  C2_3 
REMARK    2  A    between atoms: C8_10  and  N2_11 
REMARK    3  A    between atoms: N2_11  and  C9_12 
REMARK    4  A    between atoms: C9_12  and  C10_13 
ROOT
HETATM    1  C2  UNL     1      28.483  -0.428  53.597  1.00  0.00     0.073 C 
HETATM    2  C3  UNL     1      27.319  -0.525  52.921  1.00  0.00     0.050 C 
HETATM    3  C4  UNL     1      26.536   0.640  52.499  1.00  0.00     0.020 C 
HETATM    4  C5  UNL     1      25.196   0.353  52.571  1.00  0.00     0.008 C 
HETATM    5  C6  UNL     1      24.345   1.401  52.192  1.00  0.00     0.147 C 
HETATM    6  N1  UNL     1      23.443   1.533  51.164  1.00  0.00    -0.392 N 
HETATM    7  C7  UNL     1      22.726   2.735  50.835  1.00  0.00     0.131 C 
HETATM    8  C8  UNL     1      23.712   3.346  50.200  1.00  0.00     0.108 C 
HETATM    9  N3  UNL     1      24.970   3.478  49.700  1.00  0.00    -0.357 NA
HETATM   10  C15 UNL     1      26.167   3.286  50.141  1.00  0.00     0.409 C 
HETATM   11  N4  UNL     1      26.980   2.889  51.211  1.00  0.00    -0.214 NA
HETATM   12  C16 UNL     1      27.083   1.953  52.018  1.00  0.00     0.211 C 
HETATM   13  O3  UNL     1      28.223   2.419  52.740  1.00  0.00    -0.176 OA
HETATM   14  O4  UNL     1      29.357   1.762  53.101  1.00  0.00    -0.227 OA
HETATM   15  C17 UNL     1      29.207   0.804  54.050  1.00  0.00     0.275 C 
HETATM   16  H8  UNL     1      23.119   0.829  50.462  1.00  0.00     0.159 HD
ENDROOT
BRANCH   8  17
HETATM   17  N2  UNL     1      23.073   4.590  49.823  1.00  0.00    -0.372 N 
HETATM   18  H10 UNL     1      22.645   4.715  48.857  1.00  0.00     0.161 HD
BRANCH  17  19
HETATM   19  C9  UNL     1      23.040   5.652  50.809  1.00  0.00     0.159 C 
BRANCH  19  20
HETATM   20  C10 UNL     1      23.681   6.862  50.276  1.00  0.00    -0.018 A 
HETATM   21  C11 UNL     1      23.044   7.817  49.602  1.00  0.00     0.125 A 
HETATM   22 BR1  UNL     1      21.190   7.770  49.218  1.00  0.00    -0.023 Br
HETATM   23  O2  UNL     1      23.747   8.940  49.128  1.00  0.00    -0.315 OA
HETATM   24  C12 UNL     1      25.092   9.019  49.379  1.00  0.00     0.139 A 
HETATM   25  C13 UNL     1      25.737   8.077  50.048  1.00  0.00     0.002 A 
HETATM   26  C14 UNL     1      25.121   6.828  50.612  1.00  0.00     0.068 A 
ENDBRANCH  19  20
ENDBRANCH  17  19
ENDBRANCH   8  17
BRANCH   1  27
HETATM   27  O1  UNL     1      28.971  -1.695  53.844  1.00  0.00    -0.358 OA
HETATM   28  C1  UNL     1      28.645  -2.803  53.059  1.00  0.00     0.209 C 
ENDBRANCH   1  27
TORSDOF 4
ENDMDL
MODEL 4
REMARK VINA RESULT:      -7.9      4.231      5.752
REMARK  4 active torsions:
REMARK  status: ('A' for Active; 'I' for Inactive)
REMARK    1  A    between atoms: O1_2  and  C2_3 
REMARK    2  A    between atoms: C8_10  and  N2_11 
REMARK    3  A    between atoms: N2_11  and  C9_12 
REMARK    4  A    between atoms: C9_12  and  C10_13 
ROOT
HETATM    1  C2  UNL     1      28.489   0.184  53.482  1.00  0.00     0.073 C 
HETATM    2  C3  UNL     1      27.359  -0.536  53.323  1.00  0.00     0.050 C 
HETATM    3  C4  UNL     1      26.036   0.074  53.153  1.00  0.00     0.020 C 
HETATM    4  C5  UNL     1      25.083  -0.701  53.764  1.00  0.00     0.008 C 
HETATM    5  C6  UNL     1      23.772  -0.211  53.670  1.00  0.00     0.147 C 
HETATM    6  N1  UNL     1      22.641  -0.709  53.068  1.00  0.00    -0.392 N 
HETATM    7  C7  UNL     1      21.386  -0.018  52.955  1.00  0.00     0.131 C 
HETATM    8  C8  UNL     1      21.719   0.764  51.942  1.00  0.00     0.108 C 
HETATM    9  N3  UNL     1      22.542   1.265  50.982  1.00  0.00    -0.357 NA
HETATM   10  C15 UNL     1      23.761   1.685  50.934  1.00  0.00     0.409 C 
HETATM   11  N4  UNL     1      24.955   1.923  51.628  1.00  0.00    -0.214 NA
HETATM   12  C16 UNL     1      25.728   1.336  52.400  1.00  0.00     0.211 C 
HETATM   13  O3  UNL     1      26.682   2.382  52.582  1.00  0.00    -0.176 OA
HETATM   14  O4  UNL     1      28.040   2.347  52.520  1.00  0.00    -0.227 OA
HETATM   15  C17 UNL     1      28.659   1.672  53.522  1.00  0.00     0.275 C 
HETATM   16  H8  UNL     1      22.480  -1.632  52.604  1.00  0.00     0.159 HD
ENDROOT
BRANCH   8  17
HETATM   17  N2  UNL     1      20.494   1.512  51.752  1.00  0.00    -0.372 N 
HETATM   18  H10 UNL     1      19.730   1.156  51.101  1.00  0.00     0.161 HD
BRANCH  17  19
HETATM   19  C9  UNL     1      20.349   2.757  52.480  1.00  0.00     0.159 C 
BRANCH  19  20
HETATM   20  C10 UNL     1      20.220   3.882  51.543  1.00  0.00    -0.018 A 
HETATM   21  C11 UNL     1      21.131   4.839  51.386  1.00  0.00     0.125 A 
HETATM   22 BR1  UNL     1      22.759   4.905  52.352  1.00  0.00    -0.023 Br
HETATM   23  O2  UNL     1      20.915   5.879  50.463  1.00  0.00    -0.315 OA
HETATM   24  C12 UNL     1      19.751   5.877  49.740  1.00  0.00     0.139 A 
HETATM   25  C13 UNL     1      18.837   4.931  49.887  1.00  0.00     0.002 A 
HETATM   26  C14 UNL     1      18.930   3.764  50.829  1.00  0.00     0.068 A 
ENDBRANCH  19  20
ENDBRANCH  17  19
ENDBRANCH   8  17
BRANCH   1  27
HETATM   27  O1  UNL     1      29.560  -0.678  53.613  1.00  0.00    -0.358 OA
HETATM   28  C1  UNL     1      29.470  -2.048  53.361  1.00  0.00     0.209 C 
ENDBRANCH   1  27
TORSDOF 4
ENDMDL
MODEL 5
REMARK VINA RESULT:      -7.8      1.702      2.161
REMARK  4 active torsions:
REMARK  status: ('A' for Active; 'I' for Inactive)
REMARK    1  A    between atoms: O1_2  and  C2_3 
REMARK    2  A    between atoms: C8_10  and  N2_11 
REMARK    3  A    between atoms: N2_11  and  C9_12 
REMARK    4  A    between atoms: C9_12  and  C10_13 
ROOT
HETATM    1  C2  UNL     1      27.206   0.926  53.899  1.00  0.00     0.073 C 
HETATM    2  C3  UNL     1      26.264   1.891  53.837  1.00  0.00     0.050 C 
HETATM    3  C4  UNL     1      24.925   1.670  53.283  1.00  0.00     0.020 C 
HETATM    4  C5  UNL     1      24.493   2.802  52.641  1.00  0.00     0.008 C 
HETATM    5  C6  UNL     1      23.218   2.706  52.065  1.00  0.00     0.147 C 
HETATM    6  N1  UNL     1      22.039   3.368  52.315  1.00  0.00    -0.392 N 
HETATM    7  C7  UNL     1      20.770   3.064  51.712  1.00  0.00     0.131 C 
HETATM    8  C8  UNL     1      20.476   2.018  52.466  1.00  0.00     0.108 C 
HETATM    9  N3  UNL     1      20.683   1.102  53.450  1.00  0.00    -0.357 NA
HETATM   10  C15 UNL     1      21.660   0.346  53.821  1.00  0.00     0.409 C 
HETATM   11  N4  UNL     1      22.980  -0.071  53.597  1.00  0.00    -0.214 NA
HETATM   12  C16 UNL     1      24.103   0.420  53.413  1.00  0.00     0.211 C 
HETATM   13  O3  UNL     1      24.846  -0.793  53.282  1.00  0.00    -0.176 OA
HETATM   14  O4  UNL     1      26.016  -1.168  53.864  1.00  0.00    -0.227 OA
HETATM   15  C17 UNL     1      27.122  -0.500  53.449  1.00  0.00     0.275 C 
HETATM   16  H8  UNL     1      21.844   4.173  52.953  1.00  0.00     0.159 HD
ENDROOT
BRANCH   8  17
HETATM   17  N2  UNL     1      19.189   1.635  51.923  1.00  0.00    -0.372 N 
HETATM   18  H10 UNL     1      18.331   2.250  52.062  1.00  0.00     0.161 HD
BRANCH  17  19
HETATM   19  C9  UNL     1      19.116   0.389  51.186  1.00  0.00     0.159 C 
BRANCH  19  20
HETATM   20  C10 UNL     1      17.873  -0.323  51.512  1.00  0.00    -0.018 A 
HETATM   21  C11 UNL     1      16.725  -0.175  50.855  1.00  0.00     0.125 A 
HETATM   22 BR1  UNL     1      16.508   0.988  49.376  1.00  0.00    -0.023 Br
HETATM   23  O2  UNL     1      15.585  -0.902  51.246  1.00  0.00    -0.315 OA
HETATM   24  C12 UNL     1      15.691  -1.756  52.311  1.00  0.00     0.139 A 
HETATM   25  C13 UNL     1      16.826  -1.912  52.974  1.00  0.00     0.002 A 
HETATM   26  C14 UNL     1      18.118  -1.208  52.673  1.00  0.00     0.068 A 
ENDBRANCH  19  20
ENDBRANCH  17  19
ENDBRANCH   8  17
BRANCH   1  27
HETATM   27  O1  UNL     1      28.351   1.447  54.470  1.00  0.00    -0.358 OA
HETATM   28  C1  UNL     1      29.138   2.418  53.848  1.00  0.00     0.209 C 
ENDBRANCH   1  27
TORSDOF 4
ENDMDL
MODEL 6
REMARK VINA RESULT:      -7.8      3.764      4.745
REMARK  4 active torsions:
REMARK  status: ('A' for Active; 'I' for Inactive)
REMARK    1  A    between atoms: O1_2  and  C2_3 
REMARK    2  A    between atoms: C8_10  and  N2_11 
REMARK    3  A    between atoms: N2_11  and  C9_12 
REMARK    4  A    between atoms: C9_12  and  C10_13 
ROOT
HETATM    1  C2  UNL     1      27.490  -0.477  53.827  1.00  0.00     0.073 C 
HETATM    2  C3  UNL     1      26.321  -0.733  53.202  1.00  0.00     0.050 C 
HETATM    3  C4  UNL     1      25.155   0.152  53.286  1.00  0.00     0.020 C 
HETATM    4  C5  UNL     1      24.003  -0.592  53.285  1.00  0.00     0.008 C 
HETATM    5  C6  UNL     1      22.817   0.153  53.366  1.00  0.00     0.147 C 
HETATM    6  N1  UNL     1      21.764   0.311  52.497  1.00  0.00    -0.392 N 
HETATM    7  C7  UNL     1      20.665   1.219  52.678  1.00  0.00     0.131 C 
HETATM    8  C8  UNL     1      21.293   2.317  52.296  1.00  0.00     0.108 C 
HETATM    9  N3  UNL     1      22.348   3.048  51.845  1.00  0.00    -0.357 NA
HETATM   10  C15 UNL     1      23.601   3.147  52.140  1.00  0.00     0.409 C 
HETATM   11  N4  UNL     1      24.660   2.712  52.949  1.00  0.00    -0.214 NA
HETATM   12  C16 UNL     1      25.179   1.653  53.331  1.00  0.00     0.211 C 
HETATM   13  O3  UNL     1      26.218   2.204  54.139  1.00  0.00    -0.176 OA
HETATM   14  O4  UNL     1      27.543   1.905  54.183  1.00  0.00    -0.227 OA
HETATM   15  C17 UNL     1      27.856   0.687  54.695  1.00  0.00     0.275 C 
HETATM   16  H8  UNL     1      21.567  -0.169  51.589  1.00  0.00     0.159 HD
ENDROOT
BRANCH   8  17
HETATM   17  N2  UNL     1      20.246   3.306  52.447  1.00  0.00    -0.372 N 
HETATM   18  H10 UNL     1      19.749   3.438  53.379  1.00  0.00     0.161 HD
BRANCH  17  19
HETATM   19  C9  UNL     1      19.904   4.103  51.286  1.00  0.00     0.159 C 
BRANCH  19  20
HETATM   20  C10 UNL     1      18.707   3.559  50.629  1.00  0.00    -0.018 A 
HETATM   21  C11 UNL     1      18.726   2.813  49.527  1.00  0.00     0.125 A 
HETATM   22 BR1  UNL     1      20.315   2.326  48.619  1.00  0.00    -0.023 Br
HETATM   23  O2  UNL     1      17.523   2.339  48.971  1.00  0.00    -0.315 OA
HETATM   24  C12 UNL     1      16.346   2.666  49.591  1.00  0.00     0.139 A 
HETATM   25  C13 UNL     1      16.313   3.407  50.687  1.00  0.00     0.002 A 
HETATM   26  C14 UNL     1      17.510   3.979  51.391  1.00  0.00     0.068 A 
ENDBRANCH  19  20
ENDBRANCH  17  19
ENDBRANCH   8  17
BRANCH   1  27
HETATM   27  O1  UNL     1      28.382  -1.494  53.551  1.00  0.00    -0.358 OA
HETATM   28  C1  UNL     1      29.765  -1.302  53.511  1.00  0.00     0.209 C 
ENDBRANCH   1  27
TORSDOF 4
ENDMDL
MODEL 7
REMARK VINA RESULT:      -7.7      4.760      6.455
REMARK  4 active torsions:
REMARK  status: ('A' for Active; 'I' for Inactive)
REMARK    1  A    between atoms: O1_2  and  C2_3 
REMARK    2  A    between atoms: C8_10  and  N2_11 
REMARK    3  A    between atoms: N2_11  and  C9_12 
REMARK    4  A    between atoms: C9_12  and  C10_13 
ROOT
HETATM    1  C2  UNL     1      28.114   7.323  48.362  1.00  0.00     0.073 C 
HETATM    2  C3  UNL     1      26.895   7.215  48.931  1.00  0.00     0.050 C 
HETATM    3  C4  UNL     1      26.190   5.938  49.083  1.00  0.00     0.020 C 
HETATM    4  C5  UNL     1      24.841   6.130  48.931  1.00  0.00     0.008 C 
HETATM    5  C6  UNL     1      24.061   4.970  49.052  1.00  0.00     0.147 C 
HETATM    6  N1  UNL     1      23.094   4.597  49.955  1.00  0.00    -0.392 N 
HETATM    7  C7  UNL     1      22.466   3.306  50.016  1.00  0.00     0.131 C 
HETATM    8  C8  UNL     1      23.449   2.673  50.634  1.00  0.00     0.108 C 
HETATM    9  N3  UNL     1      24.669   2.555  51.223  1.00  0.00    -0.357 NA
HETATM   10  C15 UNL     1      25.876   2.910  50.935  1.00  0.00     0.409 C 
HETATM   11  N4  UNL     1      26.733   3.544  50.025  1.00  0.00    -0.214 NA
HETATM   12  C16 UNL     1      26.814   4.608  49.394  1.00  0.00     0.211 C 
HETATM   13  O3  UNL     1      28.047   4.361  48.717  1.00  0.00    -0.176 OA
HETATM   14  O4  UNL     1      29.142   5.154  48.577  1.00  0.00    -0.227 OA
HETATM   15  C17 UNL     1      28.981   6.245  47.786  1.00  0.00     0.275 C 
HETATM   16  H8  UNL     1      22.651   5.145  50.728  1.00  0.00     0.159 HD
ENDROOT
BRANCH   8  17
HETATM   17  N2  UNL     1      22.898   1.338  50.741  1.00  0.00    -0.372 N 
HETATM   18  H10 UNL     1      23.486   0.483  50.505  1.00  0.00     0.161 HD
BRANCH  17  19
HETATM   19  C9  UNL     1      21.523   1.214  51.182  1.00  0.00     0.159 C 
BRANCH  19  20
HETATM   20  C10 UNL     1      21.434   0.286  52.318  1.00  0.00    -0.018 A 
HETATM   21  C11 UNL     1      20.305  -0.276  52.745  1.00  0.00     0.125 A 
HETATM   22 BR1  UNL     1      18.615   0.033  51.948  1.00  0.00    -0.023 Br
HETATM   23  O2  UNL     1      20.322  -1.152  53.845  1.00  0.00    -0.315 OA
HETATM   24  C12 UNL     1      21.521  -1.407  54.457  1.00  0.00     0.139 A 
HETATM   25  C13 UNL     1      22.651  -0.855  54.043  1.00  0.00     0.002 A 
HETATM   26  C14 UNL     1      22.786   0.095  52.887  1.00  0.00     0.068 A 
ENDBRANCH  19  20
ENDBRANCH  17  19
ENDBRANCH   8  17
BRANCH   1  27
HETATM   27  O1  UNL     1      28.503   8.648  48.371  1.00  0.00    -0.358 OA
HETATM   28  C1  UNL     1      27.707   9.678  47.865  1.00  0.00     0.209 C 
ENDBRANCH   1  27
TORSDOF 4
ENDMDL
MODEL 8
REMARK VINA RESULT:      -7.7      5.436      7.423
REMARK  4 active torsions:
REMARK  status: ('A' for Active; 'I' for Inactive)
REMARK    1  A    between atoms: O1_2  and  C2_3 
REMARK    2  A    between atoms: C8_10  and  N2_11 
REMARK    3  A    between atoms: N2_11  and  C9_12 
REMARK    4  A    between atoms: C9_12  and  C10_13 
ROOT
HETATM    1  C2  UNL     1      27.406   8.628  49.062  1.00  0.00     0.073 C 
HETATM    2  C3  UNL     1      26.595   8.376  50.112  1.00  0.00     0.050 C 
HETATM    3  C4  UNL     1      25.715   7.205  50.184  1.00  0.00     0.020 C 
HETATM    4  C5  UNL     1      24.551   7.535  50.830  1.00  0.00     0.008 C 
HETATM    5  C6  UNL     1      23.626   6.488  50.955  1.00  0.00     0.147 C 
HETATM    6  N1  UNL     1      23.108   5.840  52.050  1.00  0.00    -0.392 N 
HETATM    7  C7  UNL     1      22.249   4.688  52.006  1.00  0.00     0.131 C 
HETATM    8  C8  UNL     1      23.191   3.789  51.777  1.00  0.00     0.108 C 
HETATM    9  N3  UNL     1      24.461   3.351  51.568  1.00  0.00    -0.357 NA
HETATM   10  C15 UNL     1      25.455   3.710  50.827  1.00  0.00     0.409 C 
HETATM   11  N4  UNL     1      25.949   4.605  49.868  1.00  0.00    -0.214 NA
HETATM   12  C16 UNL     1      26.024   5.828  49.673  1.00  0.00     0.211 C 
HETATM   13  O3  UNL     1      26.702   5.801  48.416  1.00  0.00    -0.176 OA
HETATM   14  O4  UNL     1      27.786   6.502  47.993  1.00  0.00    -0.227 OA
HETATM   15  C17 UNL     1      27.591   7.833  47.806  1.00  0.00     0.275 C 
HETATM   16  H8  UNL     1      23.228   6.044  53.069  1.00  0.00     0.159 HD
ENDROOT
BRANCH   8  17
HETATM   17  N2  UNL     1      22.407   2.573  51.715  1.00  0.00    -0.372 N 
HETATM   18  H10 UNL     1      21.344   2.604  51.749  1.00  0.00     0.161 HD
BRANCH  17  19
HETATM   19  C9  UNL     1      23.125   1.318  51.607  1.00  0.00     0.159 C 
BRANCH  19  20
HETATM   20  C10 UNL     1      22.891   0.493  52.800  1.00  0.00    -0.018 A 
HETATM   21  C11 UNL     1      23.838  -0.183  53.446  1.00  0.00     0.125 A 
HETATM   22 BR1  UNL     1      25.659  -0.188  52.928  1.00  0.00    -0.023 Br
HETATM   23  O2  UNL     1      23.513  -0.949  54.581  1.00  0.00    -0.315 OA
HETATM   24  C12 UNL     1      22.208  -0.979  54.995  1.00  0.00     0.139 A 
HETATM   25  C13 UNL     1      21.256  -0.311  54.362  1.00  0.00     0.002 A 
HETATM   26  C14 UNL     1      21.452   0.544  53.143  1.00  0.00     0.068 A 
ENDBRANCH  19  20
ENDBRANCH  17  19
ENDBRANCH   8  17
BRANCH   1  27
HETATM   27  O1  UNL     1      28.101   9.797  49.297  1.00  0.00    -0.358 OA
HETATM   28  C1  UNL     1      28.990  10.353  48.375  1.00  0.00     0.209 C 
ENDBRANCH   1  27
TORSDOF 4
ENDMDL
MODEL 9
REMARK VINA RESULT:      -7.4      6.508      9.680
REMARK  4 active torsions:
REMARK  status: ('A' for Active; 'I' for Inactive)
REMARK    1  A    between atoms: O1_2  and  C2_3 
REMARK    2  A    between atoms: C8_10  and  N2_11 
REMARK    3  A    between atoms: N2_11  and  C9_12 
REMARK    4  A    between atoms: C9_12  and  C10_13 
ROOT
HETATM    1  C2  UNL     1      27.713   9.766  47.522  1.00  0.00     0.073 C 
HETATM    2  C3  UNL     1      27.440   8.465  47.289  1.00  0.00     0.050 C 
HETATM    3  C4  UNL     1      27.172   7.497  48.356  1.00  0.00     0.020 C 
HETATM    4  C5  UNL     1      27.679   6.270  48.013  1.00  0.00     0.008 C 
HETATM    5  C6  UNL     1      27.483   5.260  48.967  1.00  0.00     0.147 C 
HETATM    6  N1  UNL     1      26.775   4.083  48.933  1.00  0.00    -0.392 N 
HETATM    7  C7  UNL     1      26.570   3.203  50.051  1.00  0.00     0.131 C 
HETATM    8  C8  UNL     1      25.608   3.898  50.634  1.00  0.00     0.108 C 
HETATM    9  N3  UNL     1      24.735   4.932  50.770  1.00  0.00    -0.357 NA
HETATM   10  C15 UNL     1      24.802   6.218  50.690  1.00  0.00     0.409 C 
HETATM   11  N4  UNL     1      25.602   7.345  50.461  1.00  0.00    -0.214 NA
HETATM   12  C16 UNL     1      26.424   7.763  49.631  1.00  0.00     0.211 C 
HETATM   13  O3  UNL     1      26.712   9.025  50.234  1.00  0.00    -0.176 OA
HETATM   14  O4  UNL     1      26.767  10.265  49.681  1.00  0.00    -0.227 OA
HETATM   15  C17 UNL     1      27.803  10.487  48.832  1.00  0.00     0.275 C 
HETATM   16  H8  UNL     1      26.277   3.622  48.138  1.00  0.00     0.159 HD
ENDROOT
BRANCH   8  17
HETATM   17  N2  UNL     1      25.330   3.075  51.792  1.00  0.00    -0.372 N 
HETATM   18  H10 UNL     1      25.068   3.514  52.726  1.00  0.00     0.161 HD
BRANCH  17  19
HETATM   19  C9  UNL     1      25.421   1.637  51.630  1.00  0.00     0.159 C 
BRANCH  19  20
HETATM   20  C10 UNL     1      26.063   1.032  52.805  1.00  0.00    -0.018 A 
HETATM   21  C11 UNL     1      25.466   0.176  53.632  1.00  0.00     0.125 A 
HETATM   22 BR1  UNL     1      23.677  -0.407  53.423  1.00  0.00    -0.023 Br
HETATM   23  O2  UNL     1      26.165  -0.348  54.735  1.00  0.00    -0.315 OA
HETATM   24  C12 UNL     1      27.463   0.044  54.930  1.00  0.00     0.139 A 
HETATM   25  C13 UNL     1      28.068   0.895  54.116  1.00  0.00     0.002 A 
HETATM   26  C14 UNL     1      27.452   1.533  52.904  1.00  0.00     0.068 A 
ENDBRANCH  19  20
ENDBRANCH  17  19
ENDBRANCH   8  17
BRANCH   1  27
HETATM   27  O1  UNL     1      27.917  10.409  46.318  1.00  0.00    -0.358 OA
HETATM   28  C1  UNL     1      28.901  11.383  46.131  1.00  0.00     0.209 C 
ENDBRANCH   1  27
TORSDOF 4
ENDMDL
