MODEL 1
REMARK VINA RESULT:      -9.7      0.000      0.000
REMARK  3 active torsions:
REMARK  status: ('A' for Active; 'I' for Inactive)
REMARK    1  A    between atoms: N1_1  and  C1_2 
REMARK    2  A    between atoms: C4_6  and  N3_7 
REMARK    3  A    between atoms: N3_7  and  C5_8 
ROOT
HETATM    1  C1  UNL     1      23.885  -0.954  54.824  1.00  0.00     0.722 A 
HETATM    2  N2  UNL     1      24.920  -0.829  53.999  1.00  0.00    -0.067 NA
HETATM    3  C2  UNL     1      24.910  -0.077  52.887  1.00  0.00     0.072 A 
HETATM    4  C3  UNL     1      23.782   0.628  52.537  1.00  0.00     0.038 A 
HETATM    5  C4  UNL     1      22.690   0.516  53.379  1.00  0.00     0.159 A 
HETATM    6  N4  UNL     1      22.808  -0.257  54.454  1.00  0.00    -0.044 NA
HETATM    7  C11 UNL     1      23.686   1.466  51.350  1.00  0.00     0.041 C 
HETATM    8  C12 UNL     1      24.474   2.425  50.890  1.00  0.00     0.136 C 
HETATM    9  O1  UNL     1      25.334   2.259  51.967  1.00  0.00    -0.358 OA
HETATM   10  C13 UNL     1      26.700   2.611  51.699  1.00  0.00     0.213 C 
HETATM   11  C14 UNL     1      27.559   1.983  52.730  1.00  0.00    -0.028 A 
HETATM   12  C15 UNL     1      28.564   2.523  53.497  1.00  0.00     0.010 A 
HETATM   13  C16 UNL     1      29.260   1.768  54.417  1.00  0.00     0.001 A 
HETATM   14  C17 UNL     1      28.982   0.429  54.612  1.00  0.00     0.001 A 
HETATM   15  C18 UNL     1      27.972  -0.115  53.842  1.00  0.00     0.008 A 
HETATM   16  C19 UNL     1      27.263   0.647  52.909  1.00  0.00    -0.044 A 
HETATM   17  C20 UNL     1      26.203  -0.127  52.174  1.00  0.00     0.100 C 
ENDROOT
BRANCH   5  18
HETATM   18  N3  UNL     1      21.519   1.239  53.047  1.00  0.00    -0.340 N 
HETATM   19  H3  UNL     1      21.516   2.291  53.135  1.00  0.00     0.167 HD
BRANCH  18  20
HETATM   20  C5  UNL     1      20.261   0.764  52.589  1.00  0.00     0.035 A 
HETATM   21  C6  UNL     1      19.545   1.360  51.561  1.00  0.00     0.029 A 
HETATM   22  C7  UNL     1      18.337   0.918  51.109  1.00  0.00     0.004 A 
HETATM   23  C8  UNL     1      17.751  -0.183  51.671  1.00  0.00     0.019 A 
HETATM   24  C9  UNL     1      18.408  -0.827  52.698  1.00  0.00     0.013 A 
HETATM   25 BR1  UNL     1      17.558  -2.352  53.452  1.00  0.00    -0.051 Br
HETATM   26  C10 UNL     1      19.618  -0.339  53.112  1.00  0.00     0.048 A 
ENDBRANCH  18  20
ENDBRANCH   5  18
BRANCH   1  27
HETATM   27  N1  UNL     1      23.871  -1.744  56.007  1.00  0.00    -0.231 N 
HETATM   28  H1  UNL     1      22.900  -2.130  56.199  1.00  0.00     0.174 HD
HETATM   29  H2  UNL     1      24.720  -1.916  56.608  1.00  0.00     0.174 HD
ENDBRANCH   1  27
TORSDOF 3
ENDMDL
MODEL 2
REMARK VINA RESULT:      -8.6      4.964      8.100
REMARK  3 active torsions:
REMARK  status: ('A' for Active; 'I' for Inactive)
REMARK    1  A    between atoms: N1_1  and  C1_2 
REMARK    2  A    between atoms: C4_6  and  N3_7 
REMARK    3  A    between atoms: N3_7  and  C5_8 
ROOT
HETATM    1  C1  UNL     1      26.862   2.307  52.243  1.00  0.00     0.722 A 
HETATM    2  N2  UNL     1      25.582   2.480  52.556  1.00  0.00    -0.067 NA
HETATM    3  C2  UNL     1      24.691   3.101  51.767  1.00  0.00     0.072 A 
HETATM    4  C3  UNL     1      25.078   3.606  50.548  1.00  0.00     0.038 A 
HETATM    5  C4  UNL     1      26.405   3.440  50.197  1.00  0.00     0.159 A 
HETATM    6  N4  UNL     1      27.203   2.810  51.053  1.00  0.00    -0.044 NA
HETATM    7  C11 UNL     1      24.177   4.294  49.633  1.00  0.00     0.041 C 
HETATM    8  C12 UNL     1      22.989   3.956  49.158  1.00  0.00     0.136 C 
HETATM    9  O1  UNL     1      23.018   2.768  49.876  1.00  0.00    -0.358 OA
HETATM   10  C13 UNL     1      21.727   2.257  50.237  1.00  0.00     0.213 C 
HETATM   11  C14 UNL     1      21.897   1.285  51.341  1.00  0.00    -0.028 A 
HETATM   12  C15 UNL     1      21.392   0.015  51.493  1.00  0.00     0.010 A 
HETATM   13  C16 UNL     1      21.666  -0.747  52.609  1.00  0.00     0.001 A 
HETATM   14  C17 UNL     1      22.462  -0.271  53.631  1.00  0.00     0.001 A 
HETATM   15  C18 UNL     1      22.971   1.005  53.481  1.00  0.00     0.008 A 
HETATM   16  C19 UNL     1      22.697   1.781  52.351  1.00  0.00    -0.044 A 
HETATM   17  C20 UNL     1      23.345   3.138  52.376  1.00  0.00     0.100 C 
ENDROOT
BRANCH   5  18
HETATM   18  N3  UNL     1      26.828   3.943  48.942  1.00  0.00    -0.340 N 
HETATM   19  H3  UNL     1      26.640   3.381  48.068  1.00  0.00     0.167 HD
BRANCH  18  20
HETATM   20  C5  UNL     1      27.510   5.150  48.635  1.00  0.00     0.035 A 
HETATM   21  C6  UNL     1      26.905   6.398  48.653  1.00  0.00     0.029 A 
HETATM   22  C7  UNL     1      27.544   7.567  48.359  1.00  0.00     0.004 A 
HETATM   23  C8  UNL     1      28.870   7.562  48.021  1.00  0.00     0.019 A 
HETATM   24  C9  UNL     1      29.536   6.355  47.984  1.00  0.00     0.013 A 
HETATM   25 BR1  UNL     1      31.376   6.392  47.508  1.00  0.00    -0.051 Br
HETATM   26  C10 UNL     1      28.844   5.213  48.287  1.00  0.00     0.048 A 
ENDBRANCH  18  20
ENDBRANCH   5  18
BRANCH   1  27
HETATM   27  N1  UNL     1      27.825   1.653  53.060  1.00  0.00    -0.231 N 
HETATM   28  H1  UNL     1      28.808   1.792  52.681  1.00  0.00     0.174 HD
HETATM   29  H2  UNL     1      27.583   1.105  53.928  1.00  0.00     0.174 HD
ENDBRANCH   1  27
TORSDOF 3
ENDMDL
MODEL 3
REMARK VINA RESULT:      -8.6      2.799      7.459
REMARK  3 active torsions:
REMARK  status: ('A' for Active; 'I' for Inactive)
REMARK    1  A    between atoms: N1_1  and  C1_2 
REMARK    2  A    between atoms: C4_6  and  N3_7 
REMARK    3  A    between atoms: N3_7  and  C5_8 
ROOT
HETATM    1  C1  UNL     1      22.556  -0.572  53.998  1.00  0.00     0.722 A 
HETATM    2  N2  UNL     1      21.574   0.270  53.693  1.00  0.00    -0.067 NA
HETATM    3  C2  UNL     1      21.710   1.318  52.864  1.00  0.00     0.072 A 
HETATM    4  C3  UNL     1      22.922   1.578  52.269  1.00  0.00     0.038 A 
HETATM    5  C4  UNL     1      23.962   0.717  52.569  1.00  0.00     0.159 A 
HETATM    6  N4  UNL     1      23.718  -0.290  53.403  1.00  0.00    -0.044 NA
HETATM    7  C11 UNL     1      23.156   2.692  51.360  1.00  0.00     0.041 C 
HETATM    8  C12 UNL     1      22.499   3.095  50.284  1.00  0.00     0.136 C 
HETATM    9  O1  UNL     1      21.585   2.060  50.431  1.00  0.00    -0.358 OA
HETATM   10  C13 UNL     1      20.279   2.339  49.906  1.00  0.00     0.213 C 
HETATM   11  C14 UNL     1      19.317   1.386  50.507  1.00  0.00    -0.028 A 
HETATM   12  C15 UNL     1      18.350   0.607  49.916  1.00  0.00     0.010 A 
HETATM   13  C16 UNL     1      17.540  -0.229  50.654  1.00  0.00     0.001 A 
HETATM   14  C17 UNL     1      17.658  -0.324  52.027  1.00  0.00     0.001 A 
HETATM   15  C18 UNL     1      18.630   0.457  52.623  1.00  0.00     0.008 A 
HETATM   16  C19 UNL     1      19.454   1.306  51.879  1.00  0.00    -0.044 A 
HETATM   17  C20 UNL     1      20.447   2.069  52.711  1.00  0.00     0.100 C 
ENDROOT
BRANCH   5  18
HETATM   18  N3  UNL     1      25.219   0.956  51.963  1.00  0.00    -0.340 N 
HETATM   19  H3  UNL     1      25.271   1.108  50.918  1.00  0.00     0.167 HD
BRANCH  18  20
HETATM   20  C5  UNL     1      26.509   1.029  52.551  1.00  0.00     0.035 A 
HETATM   21  C6  UNL     1      27.078   2.210  53.006  1.00  0.00     0.029 A 
HETATM   22  C7  UNL     1      28.316   2.298  53.573  1.00  0.00     0.004 A 
HETATM   23  C8  UNL     1      29.085   1.177  53.728  1.00  0.00     0.019 A 
HETATM   24  C9  UNL     1      28.582  -0.032  53.299  1.00  0.00     0.013 A 
HETATM   25 BR1  UNL     1      29.683  -1.564  53.532  1.00  0.00    -0.051 Br
HETATM   26  C10 UNL     1      27.333  -0.062  52.736  1.00  0.00     0.048 A 
ENDBRANCH  18  20
ENDBRANCH   5  18
BRANCH   1  27
HETATM   27  N1  UNL     1      22.438  -1.688  54.872  1.00  0.00    -0.231 N 
HETATM   28  H1  UNL     1      21.744  -2.399  54.495  1.00  0.00     0.174 HD
HETATM   29  H2  UNL     1      22.974  -1.785  55.775  1.00  0.00     0.174 HD
ENDBRANCH   1  27
TORSDOF 3
ENDMDL
MODEL 4
REMARK VINA RESULT:      -8.4      4.540      8.028
REMARK  3 active torsions:
REMARK  status: ('A' for Active; 'I' for Inactive)
REMARK    1  A    between atoms: N1_1  and  C1_2 
REMARK    2  A    between atoms: C4_6  and  N3_7 
REMARK    3  A    between atoms: N3_7  and  C5_8 
ROOT
HETATM    1  C1  UNL     1      26.739   4.397  49.419  1.00  0.00     0.722 A 
HETATM    2  N2  UNL     1      25.516   4.635  48.958  1.00  0.00    -0.067 NA
HETATM    3  C2  UNL     1      24.414   3.994  49.379  1.00  0.00     0.072 A 
HETATM    4  C3  UNL     1      24.505   3.021  50.346  1.00  0.00     0.038 A 
HETATM    5  C4  UNL     1      25.767   2.752  50.843  1.00  0.00     0.159 A 
HETATM    6  N4  UNL     1      26.791   3.447  50.356  1.00  0.00    -0.044 NA
HETATM    7  C11 UNL     1      23.362   2.277  50.858  1.00  0.00     0.041 C 
HETATM    8  C12 UNL     1      22.192   2.684  51.324  1.00  0.00     0.136 C 
HETATM    9  O1  UNL     1      22.547   4.009  51.110  1.00  0.00    -0.358 OA
HETATM   10  C13 UNL     1      21.441   4.889  50.862  1.00  0.00     0.213 C 
HETATM   11  C14 UNL     1      21.955   6.122  50.223  1.00  0.00    -0.028 A 
HETATM   12  C15 UNL     1      21.714   7.444  50.518  1.00  0.00     0.010 A 
HETATM   13  C16 UNL     1      22.294   8.466  49.797  1.00  0.00     0.001 A 
HETATM   14  C17 UNL     1      23.146   8.213  48.740  1.00  0.00     0.001 A 
HETATM   15  C18 UNL     1      23.390   6.886  48.442  1.00  0.00     0.008 A 
HETATM   16  C19 UNL     1      22.805   5.846  49.170  1.00  0.00    -0.044 A 
HETATM   17  C20 UNL     1      23.197   4.475  48.692  1.00  0.00     0.100 C 
ENDROOT
BRANCH   5  18
HETATM   18  N3  UNL     1      25.889   1.760  51.847  1.00  0.00    -0.340 N 
HETATM   19  H3  UNL     1      25.030   1.230  52.158  1.00  0.00     0.167 HD
BRANCH  18  20
HETATM   20  C5  UNL     1      27.039   1.328  52.558  1.00  0.00     0.035 A 
HETATM   21  C6  UNL     1      27.845   2.179  53.300  1.00  0.00     0.029 A 
HETATM   22  C7  UNL     1      28.954   1.782  53.989  1.00  0.00     0.004 A 
HETATM   23  C8  UNL     1      29.337   0.468  53.980  1.00  0.00     0.019 A 
HETATM   24  C9  UNL     1      28.581  -0.434  53.263  1.00  0.00     0.013 A 
HETATM   25 BR1  UNL     1      29.148  -2.249  53.276  1.00  0.00    -0.051 Br
HETATM   26  C10 UNL     1      27.478   0.021  52.590  1.00  0.00     0.048 A 
ENDBRANCH  18  20
ENDBRANCH   5  18
BRANCH   1  27
HETATM   27  N1  UNL     1      27.921   5.062  48.990  1.00  0.00    -0.231 N 
HETATM   28  H1  UNL     1      27.710   6.054  48.672  1.00  0.00     0.174 HD
HETATM   29  H2  UNL     1      28.877   4.618  48.992  1.00  0.00     0.174 HD
ENDBRANCH   1  27
TORSDOF 3
ENDMDL
MODEL 5
REMARK VINA RESULT:      -8.4      2.516      3.666
REMARK  3 active torsions:
REMARK  status: ('A' for Active; 'I' for Inactive)
REMARK    1  A    between atoms: N1_1  and  C1_2 
REMARK    2  A    between atoms: C4_6  and  N3_7 
REMARK    3  A    between atoms: N3_7  and  C5_8 
ROOT
HETATM    1  C1  UNL     1      25.966   3.425  50.566  1.00  0.00     0.722 A 
HETATM    2  N2  UNL     1      26.257   3.002  51.792  1.00  0.00    -0.067 NA
HETATM    3  C2  UNL     1      25.461   2.205  52.523  1.00  0.00     0.072 A 
HETATM    4  C3  UNL     1      24.259   1.772  52.015  1.00  0.00     0.038 A 
HETATM    5  C4  UNL     1      23.931   2.197  50.741  1.00  0.00     0.159 A 
HETATM    6  N4  UNL     1      24.793   2.985  50.105  1.00  0.00    -0.044 NA
HETATM    7  C11 UNL     1      23.337   0.908  52.740  1.00  0.00     0.041 C 
HETATM    8  C12 UNL     1      23.527  -0.240  53.371  1.00  0.00     0.136 C 
HETATM    9  O1  UNL     1      24.876  -0.218  53.042  1.00  0.00    -0.358 OA
HETATM   10  C13 UNL     1      25.727  -0.905  53.972  1.00  0.00     0.213 C 
HETATM   11  C14 UNL     1      27.118  -0.438  53.770  1.00  0.00    -0.028 A 
HETATM   12  C15 UNL     1      28.284  -1.154  53.633  1.00  0.00     0.010 A 
HETATM   13  C16 UNL     1      29.501  -0.531  53.450  1.00  0.00     0.001 A 
HETATM   14  C17 UNL     1      29.608   0.844  53.396  1.00  0.00     0.001 A 
HETATM   15  C18 UNL     1      28.438   1.565  53.533  1.00  0.00     0.008 A 
HETATM   16  C19 UNL     1      27.202   0.939  53.718  1.00  0.00    -0.044 A 
HETATM   17  C20 UNL     1      26.049   1.897  53.843  1.00  0.00     0.100 C 
ENDROOT
BRANCH   5  18
HETATM   18  N3  UNL     1      22.703   1.758  50.189  1.00  0.00    -0.340 N 
HETATM   19  H3  UNL     1      22.710   1.132  49.338  1.00  0.00     0.167 HD
BRANCH  18  20
HETATM   20  C5  UNL     1      21.373   2.033  50.607  1.00  0.00     0.035 A 
HETATM   21  C6  UNL     1      20.952   3.278  51.051  1.00  0.00     0.029 A 
HETATM   22  C7  UNL     1      19.681   3.560  51.456  1.00  0.00     0.004 A 
HETATM   23  C8  UNL     1      18.720   2.586  51.439  1.00  0.00     0.019 A 
HETATM   24  C9  UNL     1      19.068   1.324  51.008  1.00  0.00     0.013 A 
HETATM   25 BR1  UNL     1      17.704  -0.001  51.002  1.00  0.00    -0.051 Br
HETATM   26  C10 UNL     1      20.360   1.097  50.614  1.00  0.00     0.048 A 
ENDBRANCH  18  20
ENDBRANCH   5  18
BRANCH   1  27
HETATM   27  N1  UNL     1      26.791   4.268  49.772  1.00  0.00    -0.231 N 
HETATM   28  H1  UNL     1      27.269   3.719  48.998  1.00  0.00     0.174 HD
HETATM   29  H2  UNL     1      26.906   5.303  49.940  1.00  0.00     0.174 HD
ENDBRANCH   1  27
TORSDOF 3
ENDMDL
MODEL 6
REMARK VINA RESULT:      -8.4      4.360      7.325
REMARK  3 active torsions:
REMARK  status: ('A' for Active; 'I' for Inactive)
REMARK    1  A    between atoms: N1_1  and  C1_2 
REMARK    2  A    between atoms: C4_6  and  N3_7 
REMARK    3  A    between atoms: N3_7  and  C5_8 
ROOT
HETATM    1  C1  UNL     1      20.794   3.935  51.451  1.00  0.00     0.722 A 
HETATM    2  N2  UNL     1      21.241   2.687  51.351  1.00  0.00    -0.067 NA
HETATM    3  C2  UNL     1      22.540   2.349  51.373  1.00  0.00     0.072 A 
HETATM    4  C3  UNL     1      23.507   3.317  51.507  1.00  0.00     0.038 A 
HETATM    5  C4  UNL     1      23.069   4.625  51.613  1.00  0.00     0.159 A 
HETATM    6  N4  UNL     1      21.759   4.849  51.579  1.00  0.00    -0.044 NA
HETATM    7  C11 UNL     1      24.936   3.037  51.539  1.00  0.00     0.041 C 
HETATM    8  C12 UNL     1      25.643   2.180  52.258  1.00  0.00     0.136 C 
HETATM    9  O1  UNL     1      24.490   1.731  52.890  1.00  0.00    -0.358 OA
HETATM   10  C13 UNL     1      24.551   0.372  53.346  1.00  0.00     0.213 C 
HETATM   11  C14 UNL     1      23.169  -0.110  53.575  1.00  0.00    -0.028 A 
HETATM   12  C15 UNL     1      22.626  -0.771  54.652  1.00  0.00     0.010 A 
HETATM   13  C16 UNL     1      21.298  -1.142  54.681  1.00  0.00     0.001 A 
HETATM   14  C17 UNL     1      20.448  -0.869  53.628  1.00  0.00     0.001 A 
HETATM   15  C18 UNL     1      20.992  -0.204  52.545  1.00  0.00     0.008 A 
HETATM   16  C19 UNL     1      22.336   0.175  52.511  1.00  0.00    -0.044 A 
HETATM   17  C20 UNL     1      22.734   0.889  51.248  1.00  0.00     0.100 C 
ENDROOT
BRANCH   5  18
HETATM   18  N3  UNL     1      24.044   5.642  51.760  1.00  0.00    -0.340 N 
HETATM   19  H3  UNL     1      24.508   5.783  52.699  1.00  0.00     0.167 HD
BRANCH  18  20
HETATM   20  C5  UNL     1      24.536   6.569  50.804  1.00  0.00     0.035 A 
HETATM   21  C6  UNL     1      23.930   7.787  50.536  1.00  0.00     0.029 A 
HETATM   22  C7  UNL     1      24.388   8.689  49.621  1.00  0.00     0.004 A 
HETATM   23  C8  UNL     1      25.518   8.423  48.897  1.00  0.00     0.019 A 
HETATM   24  C9  UNL     1      26.174   7.230  49.113  1.00  0.00     0.013 A 
HETATM   25 BR1  UNL     1      27.738   6.899  48.085  1.00  0.00    -0.051 Br
HETATM   26  C10 UNL     1      25.668   6.361  50.043  1.00  0.00     0.048 A 
ENDBRANCH  18  20
ENDBRANCH   5  18
BRANCH   1  27
HETATM   27  N1  UNL     1      19.425   4.319  51.430  1.00  0.00    -0.231 N 
HETATM   28  H1  UNL     1      19.269   5.215  51.979  1.00  0.00     0.174 HD
HETATM   29  H2  UNL     1      18.671   3.776  50.931  1.00  0.00     0.174 HD
ENDBRANCH   1  27
TORSDOF 3
ENDMDL
MODEL 7
REMARK VINA RESULT:      -8.3      3.692      4.841
REMARK  3 active torsions:
REMARK  status: ('A' for Active; 'I' for Inactive)
REMARK    1  A    between atoms: N1_1  and  C1_2 
REMARK    2  A    between atoms: C4_6  and  N3_7 
REMARK    3  A    between atoms: N3_7  and  C5_8 
ROOT
HETATM    1  C1  UNL     1      26.113   3.444  50.485  1.00  0.00     0.722 A 
HETATM    2  N2  UNL     1      26.356   3.006  51.716  1.00  0.00    -0.067 NA
HETATM    3  C2  UNL     1      25.504   2.251  52.428  1.00  0.00     0.072 A 
HETATM    4  C3  UNL     1      24.292   1.881  51.894  1.00  0.00     0.038 A 
HETATM    5  C4  UNL     1      24.013   2.324  50.614  1.00  0.00     0.159 A 
HETATM    6  N4  UNL     1      24.928   3.067  49.998  1.00  0.00    -0.044 NA
HETATM    7  C11 UNL     1      23.311   1.066  52.598  1.00  0.00     0.041 C 
HETATM    8  C12 UNL     1      23.428  -0.091  53.230  1.00  0.00     0.136 C 
HETATM    9  O1  UNL     1      24.783  -0.139  52.930  1.00  0.00    -0.358 OA
HETATM   10  C13 UNL     1      25.577  -0.870  53.876  1.00  0.00     0.213 C 
HETATM   11  C14 UNL     1      26.995  -0.476  53.704  1.00  0.00    -0.028 A 
HETATM   12  C15 UNL     1      28.125  -1.252  53.590  1.00  0.00     0.010 A 
HETATM   13  C16 UNL     1      29.376  -0.694  53.434  1.00  0.00     0.001 A 
HETATM   14  C17 UNL     1      29.556   0.674  53.385  1.00  0.00     0.001 A 
HETATM   15  C18 UNL     1      28.421   1.456  53.499  1.00  0.00     0.008 A 
HETATM   16  C19 UNL     1      27.151   0.894  53.657  1.00  0.00    -0.044 A 
HETATM   17  C20 UNL     1      26.048   1.911  53.760  1.00  0.00     0.100 C 
ENDROOT
BRANCH   5  18
HETATM   18  N3  UNL     1      22.776   1.950  50.037  1.00  0.00    -0.340 N 
HETATM   19  H3  UNL     1      22.411   0.970  50.182  1.00  0.00     0.167 HD
BRANCH  18  20
HETATM   20  C5  UNL     1      21.881   2.713  49.240  1.00  0.00     0.035 A 
HETATM   21  C6  UNL     1      20.730   3.306  49.735  1.00  0.00     0.029 A 
HETATM   22  C7  UNL     1      19.859   4.041  48.985  1.00  0.00     0.004 A 
HETATM   23  C8  UNL     1      20.094   4.237  47.651  1.00  0.00     0.019 A 
HETATM   24  C9  UNL     1      21.222   3.676  47.091  1.00  0.00     0.013 A 
HETATM   25 BR1  UNL     1      21.510   3.972  45.235  1.00  0.00    -0.051 Br
HETATM   26  C10 UNL     1      22.061   2.947  47.892  1.00  0.00     0.048 A 
ENDBRANCH  18  20
ENDBRANCH   5  18
BRANCH   1  27
HETATM   27  N1  UNL     1      26.997   4.244  49.710  1.00  0.00    -0.231 N 
HETATM   28  H1  UNL     1      27.736   4.702  50.321  1.00  0.00     0.174 HD
HETATM   29  H2  UNL     1      26.920   4.360  48.665  1.00  0.00     0.174 HD
ENDBRANCH   1  27
TORSDOF 3
ENDMDL
MODEL 8
REMARK VINA RESULT:      -8.3      2.922      4.358
REMARK  3 active torsions:
REMARK  status: ('A' for Active; 'I' for Inactive)
REMARK    1  A    between atoms: N1_1  and  C1_2 
REMARK    2  A    between atoms: C4_6  and  N3_7 
REMARK    3  A    between atoms: N3_7  and  C5_8 
ROOT
HETATM    1  C1  UNL     1      21.945   1.519  49.739  1.00  0.00     0.722 A 
HETATM    2  N2  UNL     1      22.720   1.713  50.801  1.00  0.00    -0.067 NA
HETATM    3  C2  UNL     1      22.388   1.354  52.051  1.00  0.00     0.072 A 
HETATM    4  C3  UNL     1      21.181   0.743  52.300  1.00  0.00     0.038 A 
HETATM    5  C4  UNL     1      20.355   0.528  51.212  1.00  0.00     0.159 A 
HETATM    6  N4  UNL     1      20.782   0.924  50.017  1.00  0.00    -0.044 NA
HETATM    7  C11 UNL     1      20.743   0.323  53.624  1.00  0.00     0.041 C 
HETATM    8  C12 UNL     1      21.344  -0.401  54.555  1.00  0.00     0.136 C 
HETATM    9  O1  UNL     1      22.464  -0.545  53.746  1.00  0.00    -0.358 OA
HETATM   10  C13 UNL     1      23.696  -0.727  54.461  1.00  0.00     0.213 C 
HETATM   11  C14 UNL     1      24.819  -0.418  53.546  1.00  0.00    -0.028 A 
HETATM   12  C15 UNL     1      25.970  -1.124  53.282  1.00  0.00     0.010 A 
HETATM   13  C16 UNL     1      26.912  -0.668  52.386  1.00  0.00     0.001 A 
HETATM   14  C17 UNL     1      26.748   0.524  51.708  1.00  0.00     0.001 A 
HETATM   15  C18 UNL     1      25.592   1.235  51.971  1.00  0.00     0.008 A 
HETATM   16  C19 UNL     1      24.634   0.776  52.879  1.00  0.00    -0.044 A 
HETATM   17  C20 UNL     1      23.448   1.691  53.024  1.00  0.00     0.100 C 
ENDROOT
BRANCH   5  18
HETATM   18  N3  UNL     1      19.110  -0.107  51.439  1.00  0.00    -0.340 N 
HETATM   19  H3  UNL     1      19.092  -1.098  51.804  1.00  0.00     0.167 HD
BRANCH  18  20
HETATM   20  C5  UNL     1      17.793   0.386  51.244  1.00  0.00     0.035 A 
HETATM   21  C6  UNL     1      16.721  -0.415  50.879  1.00  0.00     0.029 A 
HETATM   22  C7  UNL     1      15.450   0.042  50.687  1.00  0.00     0.004 A 
HETATM   23  C8  UNL     1      15.161   1.369  50.855  1.00  0.00     0.019 A 
HETATM   24  C9  UNL     1      16.180   2.224  51.219  1.00  0.00     0.013 A 
HETATM   25 BR1  UNL     1      15.736   4.059  51.440  1.00  0.00    -0.051 Br
HETATM   26  C10 UNL     1      17.437   1.711  51.397  1.00  0.00     0.048 A 
ENDBRANCH  18  20
ENDBRANCH   5  18
BRANCH   1  27
HETATM   27  N1  UNL     1      22.273   1.890  48.406  1.00  0.00    -0.231 N 
HETATM   28  H1  UNL     1      22.011   1.123  47.718  1.00  0.00     0.174 HD
HETATM   29  H2  UNL     1      22.718   2.810  48.146  1.00  0.00     0.174 HD
ENDBRANCH   1  27
TORSDOF 3
ENDMDL
MODEL 9
REMARK VINA RESULT:      -8.1      4.621      6.077
REMARK  3 active torsions:
REMARK  status: ('A' for Active; 'I' for Inactive)
REMARK    1  A    between atoms: N1_1  and  C1_2 
REMARK    2  A    between atoms: C4_6  and  N3_7 
REMARK    3  A    between atoms: N3_7  and  C5_8 
ROOT
HETATM    1  C1  UNL     1      26.121   3.906  49.910  1.00  0.00     0.722 A 
HETATM    2  N2  UNL     1      26.047   3.406  51.140  1.00  0.00    -0.067 NA
HETATM    3  C2  UNL     1      24.914   2.955  51.703  1.00  0.00     0.072 A 
HETATM    4  C3  UNL     1      23.730   2.992  51.005  1.00  0.00     0.038 A 
HETATM    5  C4  UNL     1      23.778   3.507  49.722  1.00  0.00     0.159 A 
HETATM    6  N4  UNL     1      24.953   3.926  49.262  1.00  0.00    -0.044 NA
HETATM    7  C11 UNL     1      22.458   2.526  51.540  1.00  0.00     0.041 C 
HETATM    8  C12 UNL     1      22.121   1.388  52.126  1.00  0.00     0.136 C 
HETATM    9  O1  UNL     1      23.420   0.914  51.996  1.00  0.00    -0.358 OA
HETATM   10  C13 UNL     1      23.811  -0.036  52.998  1.00  0.00     0.213 C 
HETATM   11  C14 UNL     1      25.291  -0.111  53.023  1.00  0.00    -0.028 A 
HETATM   12  C15 UNL     1      26.125  -1.204  53.015  1.00  0.00     0.010 A 
HETATM   13  C16 UNL     1      27.497  -1.070  53.043  1.00  0.00     0.001 A 
HETATM   14  C17 UNL     1      28.101   0.171  53.083  1.00  0.00     0.001 A 
HETATM   15  C18 UNL     1      27.265   1.271  53.091  1.00  0.00     0.008 A 
HETATM   16  C19 UNL     1      25.873   1.140  53.062  1.00  0.00    -0.044 A 
HETATM   17  C20 UNL     1      25.140   2.453  53.074  1.00  0.00     0.100 C 
ENDROOT
BRANCH   5  18
HETATM   18  N3  UNL     1      22.575   3.549  48.977  1.00  0.00    -0.340 N 
HETATM   19  H3  UNL     1      21.694   3.138  49.392  1.00  0.00     0.167 HD
BRANCH  18  20
HETATM   20  C5  UNL     1      22.329   4.078  47.683  1.00  0.00     0.035 A 
HETATM   21  C6  UNL     1      21.949   3.302  46.598  1.00  0.00     0.029 A 
HETATM   22  C7  UNL     1      21.709   3.792  45.348  1.00  0.00     0.004 A 
HETATM   23  C8  UNL     1      21.837   5.131  45.096  1.00  0.00     0.019 A 
HETATM   24  C9  UNL     1      22.211   5.963  46.130  1.00  0.00     0.013 A 
HETATM   25 BR1  UNL     1      22.379   7.816  45.738  1.00  0.00    -0.051 Br
HETATM   26  C10 UNL     1      22.440   5.416  47.364  1.00  0.00     0.048 A 
ENDBRANCH  18  20
ENDBRANCH   5  18
BRANCH   1  27
HETATM   27  N1  UNL     1      27.306   4.388  49.291  1.00  0.00    -0.231 N 
HETATM   28  H1  UNL     1      28.158   4.212  49.902  1.00  0.00     0.174 HD
HETATM   29  H2  UNL     1      27.326   4.859  48.348  1.00  0.00     0.174 HD
ENDBRANCH   1  27
TORSDOF 3
ENDMDL
