MODEL 1
REMARK VINA RESULT:      -8.1      0.000      0.000
REMARK  5 active torsions:
REMARK  status: ('A' for Active; 'I' for Inactive)
REMARK    1  A    between atoms: C3_3  and  C4_4 
REMARK    2  A    between atoms: C4_4  and  O1_5 
REMARK    3  A    between atoms: O1_5  and  C5_6 
REMARK    4  A    between atoms: C10_13  and  N3_14 
REMARK    5  A    between atoms: N3_14  and  C11_15 
ROOT
HETATM    1  C5  UNL     1      22.151   2.318  51.924  1.00  0.00     0.071 C 
HETATM    2  C6  UNL     1      23.469   2.364  52.129  1.00  0.00     0.052 C 
HETATM    3  C7  UNL     1      24.516   2.842  51.237  1.00  0.00     0.039 A 
HETATM    4  C8  UNL     1      24.284   3.536  50.070  1.00  0.00     0.073 A 
HETATM    5  N1  UNL     1      25.381   3.898  49.372  1.00  0.00    -0.243 NA
HETATM    6  C9  UNL     1      26.604   3.580  49.823  1.00  0.00     0.235 A 
HETATM    7  N2  UNL     1      26.758   2.903  50.965  1.00  0.00    -0.224 NA
HETATM    8  C10 UNL     1      25.750   2.497  51.731  1.00  0.00     0.141 A 
HETATM    9  C17 UNL     1      22.971   3.952  49.457  1.00  0.00     0.228 C 
HETATM   10  O2  UNL     1      22.167   2.796  49.564  1.00  0.00    -0.379 OA
HETATM   11  C18 UNL     1      21.420   2.755  50.712  1.00  0.00     0.232 C 
ENDROOT
BRANCH   8  12
HETATM   12  N3  UNL     1      25.995   1.799  52.937  1.00  0.00    -0.340 N 
HETATM   13  H10 UNL     1      25.780   1.952  53.936  1.00  0.00     0.167 HD
BRANCH  12  14
HETATM   14  C11 UNL     1      26.688   0.561  52.970  1.00  0.00     0.035 A 
HETATM   15  C12 UNL     1      26.031  -0.588  52.566  1.00  0.00     0.032 A 
HETATM   16  C13 UNL     1      26.643  -1.821  52.547  1.00  0.00     0.046 A 
HETATM   17  C14 UNL     1      27.958  -1.968  52.935  1.00  0.00     0.138 A 
HETATM   18  F1  UNL     1      28.618  -3.149  52.940  1.00  0.00    -0.204 F 
HETATM   19  C15 UNL     1      28.655  -0.867  53.344  1.00  0.00     0.074 A 
HETATM   20 CL1  UNL     1      30.328  -0.961  53.854  1.00  0.00    -0.081 Cl
HETATM   21  C16 UNL     1      28.002   0.340  53.345  1.00  0.00     0.056 A 
ENDBRANCH  12  14
ENDBRANCH   8  12
BRANCH   1  22
HETATM   22  O1  UNL     1      21.344   1.821  52.922  1.00  0.00    -0.350 OA
BRANCH  22  23
HETATM   23  C4  UNL     1      20.815   0.535  53.012  1.00  0.00     0.202 C 
BRANCH  23  24
HETATM   24  C3  UNL     1      21.527  -0.137  54.146  1.00  0.00    -0.005 C 
HETATM   25  C2  UNL     1      22.668  -0.819  54.074  1.00  0.00    -0.033 C 
HETATM   26  C1  UNL     1      23.146  -1.380  55.364  1.00  0.00     0.036 C 
ENDBRANCH  23  24
ENDBRANCH  22  23
ENDBRANCH   1  22
TORSDOF 5
ENDMDL
MODEL 2
REMARK VINA RESULT:      -7.9      2.055      4.672
REMARK  5 active torsions:
REMARK  status: ('A' for Active; 'I' for Inactive)
REMARK    1  A    between atoms: C3_3  and  C4_4 
REMARK    2  A    between atoms: C4_4  and  O1_5 
REMARK    3  A    between atoms: O1_5  and  C5_6 
REMARK    4  A    between atoms: C10_13  and  N3_14 
REMARK    5  A    between atoms: N3_14  and  C11_15 
ROOT
HETATM    1  C5  UNL     1      21.146   0.945  51.457  1.00  0.00     0.071 C 
HETATM    2  C6  UNL     1      22.297   0.552  52.006  1.00  0.00     0.052 C 
HETATM    3  C7  UNL     1      22.514  -0.198  53.236  1.00  0.00     0.039 A 
HETATM    4  C8  UNL     1      21.514  -0.818  53.953  1.00  0.00     0.073 A 
HETATM    5  N1  UNL     1      21.905  -1.467  55.069  1.00  0.00    -0.243 NA
HETATM    6  C9  UNL     1      23.200  -1.482  55.423  1.00  0.00     0.235 A 
HETATM    7  N2  UNL     1      24.120  -0.858  54.682  1.00  0.00    -0.224 NA
HETATM    8  C10 UNL     1      23.847  -0.190  53.565  1.00  0.00     0.141 A 
HETATM    9  C17 UNL     1      20.035  -0.875  53.666  1.00  0.00     0.228 C 
HETATM   10  O2  UNL     1      19.706   0.455  53.323  1.00  0.00    -0.379 OA
HETATM   11  C18 UNL     1      19.780   0.706  51.978  1.00  0.00     0.232 C 
ENDROOT
BRANCH   8  12
HETATM   12  N3  UNL     1      24.879   0.431  52.824  1.00  0.00    -0.340 N 
HETATM   13  H10 UNL     1      24.926   1.100  52.037  1.00  0.00     0.167 HD
BRANCH  12  14
HETATM   14  C11 UNL     1      26.253   0.199  53.095  1.00  0.00     0.035 A 
HETATM   15  C12 UNL     1      26.801  -1.032  52.781  1.00  0.00     0.032 A 
HETATM   16  C13 UNL     1      28.130  -1.325  52.992  1.00  0.00     0.046 A 
HETATM   17  C14 UNL     1      28.987  -0.390  53.534  1.00  0.00     0.138 A 
HETATM   18  F1  UNL     1      30.300  -0.613  53.767  1.00  0.00    -0.204 F 
HETATM   19  C15 UNL     1      28.498   0.843  53.864  1.00  0.00     0.074 A 
HETATM   20 CL1  UNL     1      29.514   2.091  54.557  1.00  0.00    -0.081 Cl
HETATM   21  C16 UNL     1      27.168   1.086  53.635  1.00  0.00     0.056 A 
ENDBRANCH  12  14
ENDBRANCH   8  12
BRANCH   1  22
HETATM   22  O1  UNL     1      21.185   1.651  50.276  1.00  0.00    -0.350 OA
BRANCH  22  23
HETATM   23  C4  UNL     1      21.948   1.361  49.148  1.00  0.00     0.202 C 
BRANCH  23  24
HETATM   24  C3  UNL     1      22.793   2.571  48.886  1.00  0.00    -0.005 C 
HETATM   25  C2  UNL     1      23.739   3.066  49.680  1.00  0.00    -0.033 C 
HETATM   26  C1  UNL     1      24.419   4.282  49.164  1.00  0.00     0.036 C 
ENDBRANCH  23  24
ENDBRANCH  22  23
ENDBRANCH   1  22
TORSDOF 5
ENDMDL
MODEL 3
REMARK VINA RESULT:      -7.9      2.109      4.926
REMARK  5 active torsions:
REMARK  status: ('A' for Active; 'I' for Inactive)
REMARK    1  A    between atoms: C3_3  and  C4_4 
REMARK    2  A    between atoms: C4_4  and  O1_5 
REMARK    3  A    between atoms: O1_5  and  C5_6 
REMARK    4  A    between atoms: C10_13  and  N3_14 
REMARK    5  A    between atoms: N3_14  and  C11_15 
ROOT
HETATM    1  C5  UNL     1      24.291   3.215  49.714  1.00  0.00     0.071 C 
HETATM    2  C6  UNL     1      24.410   2.553  50.867  1.00  0.00     0.052 C 
HETATM    3  C7  UNL     1      23.454   1.663  51.512  1.00  0.00     0.039 A 
HETATM    4  C8  UNL     1      22.309   1.188  50.911  1.00  0.00     0.073 A 
HETATM    5  N1  UNL     1      21.543   0.373  51.666  1.00  0.00    -0.243 NA
HETATM    6  C9  UNL     1      21.912   0.069  52.920  1.00  0.00     0.235 A 
HETATM    7  N2  UNL     1      23.037   0.566  53.442  1.00  0.00    -0.224 NA
HETATM    8  C10 UNL     1      23.865   1.376  52.790  1.00  0.00     0.141 A 
HETATM    9  C17 UNL     1      21.785   1.451  49.522  1.00  0.00     0.228 C 
HETATM   10  O2  UNL     1      21.938   2.846  49.362  1.00  0.00    -0.379 OA
HETATM   11  C18 UNL     1      23.131   3.203  48.792  1.00  0.00     0.232 C 
ENDROOT
BRANCH   8  12
HETATM   12  N3  UNL     1      25.048   1.848  53.406  1.00  0.00    -0.340 N 
HETATM   13  H10 UNL     1      25.314   2.682  53.956  1.00  0.00     0.167 HD
BRANCH  12  14
HETATM   14  C11 UNL     1      26.267   1.122  53.363  1.00  0.00     0.035 A 
HETATM   15  C12 UNL     1      27.450   1.777  53.660  1.00  0.00     0.032 A 
HETATM   16  C13 UNL     1      28.668   1.136  53.663  1.00  0.00     0.046 A 
HETATM   17  C14 UNL     1      28.766  -0.208  53.367  1.00  0.00     0.138 A 
HETATM   18  F1  UNL     1      29.930  -0.896  53.353  1.00  0.00    -0.204 F 
HETATM   19  C15 UNL     1      27.630  -0.903  53.066  1.00  0.00     0.074 A 
HETATM   20 CL1  UNL     1      27.660  -2.612  52.678  1.00  0.00    -0.081 Cl
HETATM   21  C16 UNL     1      26.440  -0.221  53.076  1.00  0.00     0.056 A 
ENDBRANCH  12  14
ENDBRANCH   8  12
BRANCH   1  22
HETATM   22  O1  UNL     1      25.336   4.008  49.297  1.00  0.00    -0.350 OA
BRANCH  22  23
HETATM   23  C4  UNL     1      25.321   5.388  49.106  1.00  0.00     0.202 C 
BRANCH  23  24
HETATM   24  C3  UNL     1      26.722   5.781  48.751  1.00  0.00    -0.005 C 
HETATM   25  C2  UNL     1      27.761   4.964  48.596  1.00  0.00    -0.033 C 
HETATM   26  C1  UNL     1      29.039   5.633  48.242  1.00  0.00     0.036 C 
ENDBRANCH  23  24
ENDBRANCH  22  23
ENDBRANCH   1  22
TORSDOF 5
ENDMDL
MODEL 4
REMARK VINA RESULT:      -7.8      2.044      4.638
REMARK  5 active torsions:
REMARK  status: ('A' for Active; 'I' for Inactive)
REMARK    1  A    between atoms: C3_3  and  C4_4 
REMARK    2  A    between atoms: C4_4  and  O1_5 
REMARK    3  A    between atoms: O1_5  and  C5_6 
REMARK    4  A    between atoms: C10_13  and  N3_14 
REMARK    5  A    between atoms: N3_14  and  C11_15 
ROOT
HETATM    1  C5  UNL     1      21.833   1.468  51.175  1.00  0.00     0.071 C 
HETATM    2  C6  UNL     1      22.774   0.702  51.732  1.00  0.00     0.052 C 
HETATM    3  C7  UNL     1      22.753   0.019  53.019  1.00  0.00     0.039 A 
HETATM    4  C8  UNL     1      21.632  -0.111  53.810  1.00  0.00     0.073 A 
HETATM    5  N1  UNL     1      21.805  -0.776  54.971  1.00  0.00    -0.243 NA
HETATM    6  C9  UNL     1      23.012  -1.265  55.296  1.00  0.00     0.235 A 
HETATM    7  N2  UNL     1      24.059  -1.102  54.482  1.00  0.00    -0.224 NA
HETATM    8  C10 UNL     1      24.003  -0.465  53.316  1.00  0.00     0.141 A 
HETATM    9  C17 UNL     1      20.231   0.388  53.562  1.00  0.00     0.228 C 
HETATM   10  O2  UNL     1      20.419   1.712  53.108  1.00  0.00    -0.379 OA
HETATM   11  C18 UNL     1      20.511   1.815  51.745  1.00  0.00     0.232 C 
ENDROOT
BRANCH   8  12
HETATM   12  N3  UNL     1      25.152  -0.348  52.501  1.00  0.00    -0.340 N 
HETATM   13  H10 UNL     1      25.390  -0.575  51.521  1.00  0.00     0.167 HD
BRANCH  12  14
HETATM   14  C11 UNL     1      26.370   0.201  52.980  1.00  0.00     0.035 A 
HETATM   15  C12 UNL     1      26.410   1.537  53.338  1.00  0.00     0.032 A 
HETATM   16  C13 UNL     1      27.547   2.136  53.833  1.00  0.00     0.046 A 
HETATM   17  C14 UNL     1      28.714   1.419  53.997  1.00  0.00     0.138 A 
HETATM   18  F1  UNL     1      29.864   1.946  54.477  1.00  0.00    -0.204 F 
HETATM   19  C15 UNL     1      28.731   0.096  53.659  1.00  0.00     0.074 A 
HETATM   20 CL1  UNL     1      30.169  -0.890  53.835  1.00  0.00    -0.081 Cl
HETATM   21  C16 UNL     1      27.574  -0.455  53.171  1.00  0.00     0.056 A 
ENDBRANCH  12  14
ENDBRANCH   8  12
BRANCH   1  22
HETATM   22  O1  UNL     1      22.075   2.015  49.936  1.00  0.00    -0.350 OA
BRANCH  22  23
HETATM   23  C4  UNL     1      22.493   3.314  49.657  1.00  0.00     0.202 C 
BRANCH  23  24
HETATM   24  C3  UNL     1      23.965   3.236  49.385  1.00  0.00    -0.005 C 
HETATM   25  C2  UNL     1      24.944   3.348  50.278  1.00  0.00    -0.033 C 
HETATM   26  C1  UNL     1      26.317   3.229  49.723  1.00  0.00     0.036 C 
ENDBRANCH  23  24
ENDBRANCH  22  23
ENDBRANCH   1  22
TORSDOF 5
ENDMDL
MODEL 5
REMARK VINA RESULT:      -7.6      3.681      6.324
REMARK  5 active torsions:
REMARK  status: ('A' for Active; 'I' for Inactive)
REMARK    1  A    between atoms: C3_3  and  C4_4 
REMARK    2  A    between atoms: C4_4  and  O1_5 
REMARK    3  A    between atoms: O1_5  and  C5_6 
REMARK    4  A    between atoms: C10_13  and  N3_14 
REMARK    5  A    between atoms: N3_14  and  C11_15 
ROOT
HETATM    1  C5  UNL     1      24.309  -0.617  54.524  1.00  0.00     0.071 C 
HETATM    2  C6  UNL     1      23.974   0.160  53.491  1.00  0.00     0.052 C 
HETATM    3  C7  UNL     1      22.652   0.438  52.948  1.00  0.00     0.039 A 
HETATM    4  C8  UNL     1      21.471   0.085  53.563  1.00  0.00     0.073 A 
HETATM    5  N1  UNL     1      20.341   0.426  52.909  1.00  0.00    -0.243 NA
HETATM    6  C9  UNL     1      20.410   1.068  51.732  1.00  0.00     0.235 A 
HETATM    7  N2  UNL     1      21.590   1.379  51.190  1.00  0.00    -0.224 NA
HETATM    8  C10 UNL     1      22.764   1.093  51.747  1.00  0.00     0.141 A 
HETATM    9  C17 UNL     1      21.258  -0.633  54.872  1.00  0.00     0.228 C 
HETATM   10  O2  UNL     1      22.181  -1.701  54.825  1.00  0.00    -0.379 OA
HETATM   11  C18 UNL     1      23.394  -1.401  55.386  1.00  0.00     0.232 C 
ENDROOT
BRANCH   8  12
HETATM   12  N3  UNL     1      23.973   1.472  51.119  1.00  0.00    -0.340 N 
HETATM   13  H10 UNL     1      24.795   0.975  50.735  1.00  0.00     0.167 HD
BRANCH  12  14
HETATM   14  C11 UNL     1      24.304   2.829  50.866  1.00  0.00     0.035 A 
HETATM   15  C12 UNL     1      23.597   3.825  51.516  1.00  0.00     0.032 A 
HETATM   16  C13 UNL     1      23.875   5.162  51.341  1.00  0.00     0.046 A 
HETATM   17  C14 UNL     1      24.886   5.575  50.498  1.00  0.00     0.138 A 
HETATM   18  F1  UNL     1      25.209   6.870  50.282  1.00  0.00    -0.204 F 
HETATM   19  C15 UNL     1      25.616   4.633  49.831  1.00  0.00     0.074 A 
HETATM   20 CL1  UNL     1      26.918   5.066  48.741  1.00  0.00    -0.081 Cl
HETATM   21  C16 UNL     1      25.301   3.314  50.038  1.00  0.00     0.056 A 
ENDBRANCH  12  14
ENDBRANCH   8  12
BRANCH   1  22
HETATM   22  O1  UNL     1      25.638  -0.731  54.861  1.00  0.00    -0.350 OA
BRANCH  22  23
HETATM   23  C4  UNL     1      26.585   0.291  54.907  1.00  0.00     0.202 C 
BRANCH  23  24
HETATM   24  C3  UNL     1      27.740  -0.165  54.069  1.00  0.00    -0.005 C 
HETATM   25  C2  UNL     1      28.992  -0.357  54.479  1.00  0.00    -0.033 C 
HETATM   26  C1  UNL     1      29.935  -0.814  53.426  1.00  0.00     0.036 C 
ENDBRANCH  23  24
ENDBRANCH  22  23
ENDBRANCH   1  22
TORSDOF 5
ENDMDL
MODEL 6
REMARK VINA RESULT:      -7.6      4.476      7.589
REMARK  5 active torsions:
REMARK  status: ('A' for Active; 'I' for Inactive)
REMARK    1  A    between atoms: C3_3  and  C4_4 
REMARK    2  A    between atoms: C4_4  and  O1_5 
REMARK    3  A    between atoms: O1_5  and  C5_6 
REMARK    4  A    between atoms: C10_13  and  N3_14 
REMARK    5  A    between atoms: N3_14  and  C11_15 
ROOT
HETATM    1  C5  UNL     1      26.898   1.817  52.122  1.00  0.00     0.071 C 
HETATM    2  C6  UNL     1      25.646   1.373  52.254  1.00  0.00     0.052 C 
HETATM    3  C7  UNL     1      25.103   0.451  53.242  1.00  0.00     0.039 A 
HETATM    4  C8  UNL     1      25.781   0.028  54.364  1.00  0.00     0.073 A 
HETATM    5  N1  UNL     1      25.116  -0.829  55.166  1.00  0.00    -0.243 NA
HETATM    6  C9  UNL     1      23.871  -1.220  54.852  1.00  0.00     0.235 A 
HETATM    7  N2  UNL     1      23.271  -0.772  53.745  1.00  0.00    -0.224 NA
HETATM    8  C10 UNL     1      23.831   0.074  52.886  1.00  0.00     0.141 A 
HETATM    9  C17 UNL     1      27.170   0.389  54.827  1.00  0.00     0.228 C 
HETATM   10  O2  UNL     1      27.953   0.289  53.655  1.00  0.00    -0.379 OA
HETATM   11  C18 UNL     1      28.062   1.470  52.970  1.00  0.00     0.232 C 
ENDROOT
BRANCH   8  12
HETATM   12  N3  UNL     1      23.125   0.518  51.744  1.00  0.00    -0.340 N 
HETATM   13  H10 UNL     1      23.315   0.567  50.729  1.00  0.00     0.167 HD
BRANCH  12  14
HETATM   14  C11 UNL     1      21.812   1.051  51.824  1.00  0.00     0.035 A 
HETATM   15  C12 UNL     1      21.639   2.342  52.292  1.00  0.00     0.032 A 
HETATM   16  C13 UNL     1      20.400   2.937  52.376  1.00  0.00     0.046 A 
HETATM   17  C14 UNL     1      19.259   2.263  51.992  1.00  0.00     0.138 A 
HETATM   18  F1  UNL     1      18.015   2.789  52.050  1.00  0.00    -0.204 F 
HETATM   19  C15 UNL     1      19.372   0.985  51.523  1.00  0.00     0.074 A 
HETATM   20 CL1  UNL     1      17.978   0.055  51.013  1.00  0.00    -0.081 Cl
HETATM   21  C16 UNL     1      20.627   0.436  51.457  1.00  0.00     0.056 A 
ENDBRANCH  12  14
ENDBRANCH   8  12
BRANCH   1  22
HETATM   22  O1  UNL     1      27.184   2.695  51.102  1.00  0.00    -0.350 OA
BRANCH  22  23
HETATM   23  C4  UNL     1      26.435   2.916  49.948  1.00  0.00     0.202 C 
BRANCH  23  24
HETATM   24  C3  UNL     1      26.714   4.326  49.526  1.00  0.00    -0.005 C 
HETATM   25  C2  UNL     1      27.629   4.724  48.645  1.00  0.00    -0.033 C 
HETATM   26  C1  UNL     1      27.686   6.191  48.418  1.00  0.00     0.036 C 
ENDBRANCH  23  24
ENDBRANCH  22  23
ENDBRANCH   1  22
TORSDOF 5
ENDMDL
MODEL 7
REMARK VINA RESULT:      -7.4      2.776      5.501
REMARK  5 active torsions:
REMARK  status: ('A' for Active; 'I' for Inactive)
REMARK    1  A    between atoms: C3_3  and  C4_4 
REMARK    2  A    between atoms: C4_4  and  O1_5 
REMARK    3  A    between atoms: O1_5  and  C5_6 
REMARK    4  A    between atoms: C10_13  and  N3_14 
REMARK    5  A    between atoms: N3_14  and  C11_15 
ROOT
HETATM    1  C5  UNL     1      25.650   5.236  49.836  1.00  0.00     0.071 C 
HETATM    2  C6  UNL     1      25.409   3.989  50.246  1.00  0.00     0.052 C 
HETATM    3  C7  UNL     1      24.344   3.502  51.112  1.00  0.00     0.039 A 
HETATM    4  C8  UNL     1      23.257   4.252  51.502  1.00  0.00     0.073 A 
HETATM    5  N1  UNL     1      22.372   3.631  52.309  1.00  0.00    -0.243 NA
HETATM    6  C9  UNL     1      22.577   2.360  52.686  1.00  0.00     0.235 A 
HETATM    7  N2  UNL     1      23.656   1.689  52.272  1.00  0.00    -0.224 NA
HETATM    8  C10 UNL     1      24.591   2.201  51.476  1.00  0.00     0.141 A 
HETATM    9  C17 UNL     1      22.912   5.678  51.153  1.00  0.00     0.228 C 
HETATM   10  O2  UNL     1      24.131   6.371  51.319  1.00  0.00    -0.379 OA
HETATM   11  C18 UNL     1      24.874   6.452  50.171  1.00  0.00     0.232 C 
ENDROOT
BRANCH   8  12
HETATM   12  N3  UNL     1      25.697   1.421  51.066  1.00  0.00    -0.340 N 
HETATM   13  H10 UNL     1      26.057   1.064  50.165  1.00  0.00     0.167 HD
BRANCH  12  14
HETATM   14  C11 UNL     1      26.657   0.923  51.985  1.00  0.00     0.035 A 
HETATM   15  C12 UNL     1      26.760  -0.444  52.174  1.00  0.00     0.032 A 
HETATM   16  C13 UNL     1      27.682  -1.004  53.030  1.00  0.00     0.046 A 
HETATM   17  C14 UNL     1      28.557  -0.215  53.748  1.00  0.00     0.138 A 
HETATM   18  F1  UNL     1      29.484  -0.701  54.605  1.00  0.00    -0.204 F 
HETATM   19  C15 UNL     1      28.498   1.142  53.601  1.00  0.00     0.074 A 
HETATM   20 CL1  UNL     1      29.569   2.219  54.473  1.00  0.00    -0.081 Cl
HETATM   21  C16 UNL     1      27.563   1.651  52.736  1.00  0.00     0.056 A 
ENDBRANCH  12  14
ENDBRANCH   8  12
BRANCH   1  22
HETATM   22  O1  UNL     1      26.726   5.462  49.008  1.00  0.00    -0.350 OA
BRANCH  22  23
HETATM   23  C4  UNL     1      27.078   6.664  48.396  1.00  0.00     0.202 C 
BRANCH  23  24
HETATM   24  C3  UNL     1      28.525   6.542  48.025  1.00  0.00    -0.005 C 
HETATM   25  C2  UNL     1      29.309   5.485  48.223  1.00  0.00    -0.033 C 
HETATM   26  C1  UNL     1      30.709   5.645  47.753  1.00  0.00     0.036 C 
ENDBRANCH  23  24
ENDBRANCH  22  23
ENDBRANCH   1  22
TORSDOF 5
ENDMDL
MODEL 8
REMARK VINA RESULT:      -7.3      4.194      7.108
REMARK  5 active torsions:
REMARK  status: ('A' for Active; 'I' for Inactive)
REMARK    1  A    between atoms: C3_3  and  C4_4 
REMARK    2  A    between atoms: C4_4  and  O1_5 
REMARK    3  A    between atoms: O1_5  and  C5_6 
REMARK    4  A    between atoms: C10_13  and  N3_14 
REMARK    5  A    between atoms: N3_14  and  C11_15 
ROOT
HETATM    1  C5  UNL     1      28.583   5.435  48.292  1.00  0.00     0.071 C 
HETATM    2  C6  UNL     1      27.576   4.709  48.781  1.00  0.00     0.052 C 
HETATM    3  C7  UNL     1      26.268   5.154  49.243  1.00  0.00     0.039 A 
HETATM    4  C8  UNL     1      25.770   6.424  49.055  1.00  0.00     0.073 A 
HETATM    5  N1  UNL     1      24.538   6.653  49.554  1.00  0.00    -0.243 NA
HETATM    6  C9  UNL     1      23.873   5.675  50.189  1.00  0.00     0.235 A 
HETATM    7  N2  UNL     1      24.416   4.464  50.338  1.00  0.00    -0.224 NA
HETATM    8  C10 UNL     1      25.621   4.128  49.887  1.00  0.00     0.141 A 
HETATM    9  C17 UNL     1      26.410   7.603  48.367  1.00  0.00     0.228 C 
HETATM   10  O2  UNL     1      27.730   7.612  48.868  1.00  0.00    -0.379 OA
HETATM   11  C18 UNL     1      28.612   6.903  48.096  1.00  0.00     0.232 C 
ENDROOT
BRANCH   8  12
HETATM   12  N3  UNL     1      26.121   2.817  50.068  1.00  0.00    -0.340 N 
HETATM   13  H10 UNL     1      26.516   2.084  49.455  1.00  0.00     0.167 HD
BRANCH  12  14
HETATM   14  C11 UNL     1      26.176   2.196  51.343  1.00  0.00     0.035 A 
HETATM   15  C12 UNL     1      27.243   2.471  52.180  1.00  0.00     0.032 A 
HETATM   16  C13 UNL     1      27.354   1.926  53.439  1.00  0.00     0.046 A 
HETATM   17  C14 UNL     1      26.392   1.068  53.931  1.00  0.00     0.138 A 
HETATM   18  F1  UNL     1      26.441   0.500  55.157  1.00  0.00    -0.204 F 
HETATM   19  C15 UNL     1      25.317   0.762  53.146  1.00  0.00     0.074 A 
HETATM   20 CL1  UNL     1      24.048  -0.318  53.689  1.00  0.00    -0.081 Cl
HETATM   21  C16 UNL     1      25.251   1.330  51.900  1.00  0.00     0.056 A 
ENDBRANCH  12  14
ENDBRANCH   8  12
BRANCH   1  22
HETATM   22  O1  UNL     1      29.739   4.792  47.914  1.00  0.00    -0.350 OA
BRANCH  22  23
HETATM   23  C4  UNL     1      31.031   5.314  47.915  1.00  0.00     0.202 C 
BRANCH  23  24
HETATM   24  C3  UNL     1      31.895   4.306  47.220  1.00  0.00    -0.005 C 
HETATM   25  C2  UNL     1      33.079   3.858  47.631  1.00  0.00    -0.033 C 
HETATM   26  C1  UNL     1      33.715   2.855  46.739  1.00  0.00     0.036 C 
ENDBRANCH  23  24
ENDBRANCH  22  23
ENDBRANCH   1  22
TORSDOF 5
ENDMDL
MODEL 9
REMARK VINA RESULT:      -7.2      3.861      6.013
REMARK  5 active torsions:
REMARK  status: ('A' for Active; 'I' for Inactive)
REMARK    1  A    between atoms: C3_3  and  C4_4 
REMARK    2  A    between atoms: C4_4  and  O1_5 
REMARK    3  A    between atoms: O1_5  and  C5_6 
REMARK    4  A    between atoms: C10_13  and  N3_14 
REMARK    5  A    between atoms: N3_14  and  C11_15 
ROOT
HETATM    1  C5  UNL     1      26.090   2.055  53.042  1.00  0.00     0.071 C 
HETATM    2  C6  UNL     1      24.795   2.111  52.725  1.00  0.00     0.052 C 
HETATM    3  C7  UNL     1      24.177   2.512  51.468  1.00  0.00     0.039 A 
HETATM    4  C8  UNL     1      24.869   2.717  50.295  1.00  0.00     0.073 A 
HETATM    5  N1  UNL     1      24.127   3.088  49.231  1.00  0.00    -0.243 NA
HETATM    6  C9  UNL     1      22.799   3.236  49.352  1.00  0.00     0.235 A 
HETATM    7  N2  UNL     1      22.190   3.022  50.522  1.00  0.00    -0.224 NA
HETATM    8  C10 UNL     1      22.822   2.654  51.633  1.00  0.00     0.141 A 
HETATM    9  C17 UNL     1      26.348   2.586  50.028  1.00  0.00     0.228 C 
HETATM   10  O2  UNL     1      26.948   3.238  51.128  1.00  0.00    -0.379 OA
HETATM   11  C18 UNL     1      27.238   2.396  52.169  1.00  0.00     0.232 C 
ENDROOT
BRANCH   8  12
HETATM   12  N3  UNL     1      22.104   2.430  52.831  1.00  0.00    -0.340 N 
HETATM   13  H10 UNL     1      21.964   2.944  53.717  1.00  0.00     0.167 HD
BRANCH  12  14
HETATM   14  C11 UNL     1      21.323   1.264  53.041  1.00  0.00     0.035 A 
HETATM   15  C12 UNL     1      21.762   0.314  53.947  1.00  0.00     0.032 A 
HETATM   16  C13 UNL     1      21.048  -0.831  54.221  1.00  0.00     0.046 A 
HETATM   17  C14 UNL     1      19.846  -1.086  53.596  1.00  0.00     0.138 A 
HETATM   18  F1  UNL     1      19.096  -2.190  53.821  1.00  0.00    -0.204 F 
HETATM   19  C15 UNL     1      19.365  -0.183  52.692  1.00  0.00     0.074 A 
HETATM   20 CL1  UNL     1      17.846  -0.426  51.852  1.00  0.00    -0.081 Cl
HETATM   21  C16 UNL     1      20.112   0.943  52.453  1.00  0.00     0.056 A 
ENDBRANCH  12  14
ENDBRANCH   8  12
BRANCH   1  22
HETATM   22  O1  UNL     1      26.444   1.640  54.305  1.00  0.00    -0.350 OA
BRANCH  22  23
HETATM   23  C4  UNL     1      26.494   0.330  54.776  1.00  0.00     0.202 C 
BRANCH  23  24
HETATM   24  C3  UNL     1      27.674  -0.314  54.115  1.00  0.00    -0.005 C 
HETATM   25  C2  UNL     1      28.955  -0.133  54.427  1.00  0.00    -0.033 C 
HETATM   26  C1  UNL     1      29.918  -0.905  53.599  1.00  0.00     0.036 C 
ENDBRANCH  23  24
ENDBRANCH  22  23
ENDBRANCH   1  22
TORSDOF 5
ENDMDL
