MODEL 1
REMARK VINA RESULT:      -9.4      0.000      0.000
REMARK  3 active torsions:
REMARK  status: ('A' for Active; 'I' for Inactive)
REMARK    1  A    between atoms: C2_2  and  C3_3 
REMARK    2  A    between atoms: C3_3  and  O1_4 
REMARK    3  A    between atoms: O1_4  and  N1_5 
ROOT
HETATM    1  N1  UNL     1      26.562   0.143  53.310  1.00  0.00    -0.290 N 
HETATM    2  C4  UNL     1      25.861   0.512  54.438  1.00  0.00     0.177 C 
HETATM    3  C5  UNL     1      25.489  -0.766  55.192  1.00  0.00    -0.000 C 
HETATM    4  C6  UNL     1      24.250  -1.265  55.257  1.00  0.00     0.065 C 
HETATM    5  C7  UNL     1      22.920  -0.950  54.748  1.00  0.00     0.221 C 
HETATM    6  O2  UNL     1      21.902  -1.590  55.232  1.00  0.00    -0.275 OA
HETATM    7  N2  UNL     1      22.991   0.089  53.715  1.00  0.00    -0.250 NA
HETATM    8  C8  UNL     1      21.761   0.631  53.116  1.00  0.00     0.093 A 
HETATM    9  C9  UNL     1      22.128   1.504  52.203  1.00  0.00    -0.060 C 
HETATM   10  C10 UNL     1      23.499   1.886  51.778  1.00  0.00    -0.016 C 
HETATM   11  C11 UNL     1      24.820   1.867  51.723  1.00  0.00     0.024 A 
HETATM   12  C12 UNL     1      26.321   1.908  51.606  1.00  0.00    -0.016 A 
HETATM   13  C13 UNL     1      25.631   2.810  50.915  1.00  0.00     0.060 A 
HETATM   14  C14 UNL     1      26.237   3.858  50.039  1.00  0.00    -0.003 C 
HETATM   15  C15 UNL     1      25.240   4.583  49.506  1.00  0.00     0.084 C 
HETATM   16  N3  UNL     1      23.821   4.864  49.351  1.00  0.00    -0.375 N 
HETATM   17  C16 UNL     1      23.105   5.062  48.115  1.00  0.00     0.101 C 
HETATM   18  C17 UNL     1      22.339   4.180  47.498  1.00  0.00     0.010 C 
HETATM   19  C18 UNL     1      22.513   2.958  47.930  1.00  0.00     0.131 C 
HETATM   20  N4  UNL     1      22.139   3.116  49.294  1.00  0.00    -0.252 NA
HETATM   21  C19 UNL     1      21.626   2.096  49.888  1.00  0.00     0.107 C 
HETATM   22 CL1  UNL     1      21.308   0.494  49.263  1.00  0.00    -0.067 Cl
HETATM   23  C20 UNL     1      21.277   2.351  51.335  1.00  0.00     0.107 C 
HETATM   24  C21 UNL     1      27.150   0.980  52.383  1.00  0.00     0.156 C 
HETATM   25  H12 UNL     1      22.062  -0.200  53.963  1.00  0.00     0.157 HD
HETATM   26  H19 UNL     1      23.419   4.898  50.314  1.00  0.00     0.164 HD
ENDROOT
BRANCH   1  27
HETATM   27  O1  UNL     1      27.445  -0.863  53.587  1.00  0.00    -0.282 OA
BRANCH  27  28
HETATM   28  C3  UNL     1      28.741  -0.445  53.772  1.00  0.00     0.200 C 
BRANCH  28  29
HETATM   29  C2  UNL     1      29.658  -1.624  53.417  1.00  0.00     0.024 C 
HETATM   30  C1  UNL     1      28.754  -2.783  53.052  1.00  0.00     0.007 C 
ENDBRANCH  28  29
ENDBRANCH  27  28
ENDBRANCH   1  27
TORSDOF 3
ENDMDL
MODEL 2
REMARK VINA RESULT:      -8.5      1.281      1.532
REMARK  3 active torsions:
REMARK  status: ('A' for Active; 'I' for Inactive)
REMARK    1  A    between atoms: C2_2  and  C3_3 
REMARK    2  A    between atoms: C3_3  and  O1_4 
REMARK    3  A    between atoms: O1_4  and  N1_5 
ROOT
HETATM    1  N1  UNL     1      25.924   0.760  52.271  1.00  0.00    -0.290 N 
HETATM    2  C4  UNL     1      25.209   1.055  53.412  1.00  0.00     0.177 C 
HETATM    3  C5  UNL     1      24.708  -0.266  53.999  1.00  0.00    -0.000 C 
HETATM    4  C6  UNL     1      23.432  -0.666  53.967  1.00  0.00     0.065 C 
HETATM    5  C7  UNL     1      22.153  -0.188  53.456  1.00  0.00     0.221 C 
HETATM    6  O2  UNL     1      21.069  -0.793  53.830  1.00  0.00    -0.275 OA
HETATM    7  N2  UNL     1      22.347   0.953  52.554  1.00  0.00    -0.250 NA
HETATM    8  C8  UNL     1      21.188   1.658  51.983  1.00  0.00     0.093 A 
HETATM    9  C9  UNL     1      21.658   2.595  51.190  1.00  0.00    -0.060 C 
HETATM   10  C10 UNL     1      23.071   2.910  50.855  1.00  0.00    -0.016 C 
HETATM   11  C11 UNL     1      24.388   2.789  50.841  1.00  0.00     0.024 A 
HETATM   12  C12 UNL     1      25.891   2.721  50.778  1.00  0.00    -0.016 A 
HETATM   13  C13 UNL     1      25.301   3.748  50.175  1.00  0.00     0.060 A 
HETATM   14  C14 UNL     1      26.022   4.836  49.446  1.00  0.00    -0.003 C 
HETATM   15  C15 UNL     1      25.107   5.696  48.969  1.00  0.00     0.084 C 
HETATM   16  N3  UNL     1      23.722   6.108  48.803  1.00  0.00    -0.375 N 
HETATM   17  C16 UNL     1      23.074   6.503  47.576  1.00  0.00     0.101 C 
HETATM   18  C17 UNL     1      22.269   5.761  46.836  1.00  0.00     0.010 C 
HETATM   19  C18 UNL     1      22.329   4.488  47.129  1.00  0.00     0.131 C 
HETATM   20  N4  UNL     1      21.913   4.520  48.490  1.00  0.00    -0.252 NA
HETATM   21  C19 UNL     1      21.299   3.485  48.945  1.00  0.00     0.107 C 
HETATM   22 CL1  UNL     1      20.884   1.995  48.128  1.00  0.00    -0.067 Cl
HETATM   23  C20 UNL     1      20.912   3.602  50.400  1.00  0.00     0.107 C 
HETATM   24  C21 UNL     1      26.613   1.646  51.467  1.00  0.00     0.156 C 
HETATM   25  H12 UNL     1      21.389   0.714  52.737  1.00  0.00     0.157 HD
HETATM   26  H19 UNL     1      23.285   6.065  49.750  1.00  0.00     0.164 HD
ENDROOT
BRANCH   1  27
HETATM   27  O1  UNL     1      26.714  -0.339  52.458  1.00  0.00    -0.282 OA
BRANCH  27  28
HETATM   28  C3  UNL     1      27.989  -0.056  52.886  1.00  0.00     0.200 C 
BRANCH  28  29
HETATM   29  C2  UNL     1      28.653  -1.388  53.264  1.00  0.00     0.024 C 
HETATM   30  C1  UNL     1      30.054  -1.056  53.736  1.00  0.00     0.007 C 
ENDBRANCH  28  29
ENDBRANCH  27  28
ENDBRANCH   1  27
TORSDOF 3
ENDMDL
MODEL 3
REMARK VINA RESULT:      -7.7      2.521      5.430
REMARK  3 active torsions:
REMARK  status: ('A' for Active; 'I' for Inactive)
REMARK    1  A    between atoms: C2_2  and  C3_3 
REMARK    2  A    between atoms: C3_3  and  O1_4 
REMARK    3  A    between atoms: O1_4  and  N1_5 
ROOT
HETATM    1  N1  UNL     1      20.967   0.190  52.397  1.00  0.00    -0.290 N 
HETATM    2  C4  UNL     1      22.046  -0.641  52.187  1.00  0.00     0.177 C 
HETATM    3  C5  UNL     1      22.669  -0.945  53.551  1.00  0.00    -0.000 C 
HETATM    4  C6  UNL     1      23.837  -0.447  53.971  1.00  0.00     0.065 C 
HETATM    5  C7  UNL     1      24.875   0.454  53.484  1.00  0.00     0.221 C 
HETATM    6  O2  UNL     1      25.997   0.516  54.130  1.00  0.00    -0.275 OA
HETATM    7  N2  UNL     1      24.423   1.169  52.285  1.00  0.00    -0.250 NA
HETATM    8  C8  UNL     1      25.337   2.071  51.566  1.00  0.00     0.093 A 
HETATM    9  C9  UNL     1      24.656   2.599  50.572  1.00  0.00    -0.060 C 
HETATM   10  C10 UNL     1      23.228   2.400  50.212  1.00  0.00    -0.016 C 
HETATM   11  C11 UNL     1      21.986   1.959  50.309  1.00  0.00     0.024 A 
HETATM   12  C12 UNL     1      20.553   1.495  50.347  1.00  0.00    -0.016 A 
HETATM   13  C13 UNL     1      20.935   2.211  49.293  1.00  0.00     0.060 A 
HETATM   14  C14 UNL     1      20.048   2.582  48.150  1.00  0.00    -0.003 C 
HETATM   15  C15 UNL     1      20.771   3.303  47.277  1.00  0.00     0.084 C 
HETATM   16  N3  UNL     1      22.027   3.922  46.880  1.00  0.00    -0.375 N 
HETATM   17  C16 UNL     1      22.221   5.275  46.420  1.00  0.00     0.101 C 
HETATM   18  C17 UNL     1      22.689   6.288  47.127  1.00  0.00     0.010 C 
HETATM   19  C18 UNL     1      22.685   6.061  48.415  1.00  0.00     0.131 C 
HETATM   20  N4  UNL     1      23.551   4.932  48.476  1.00  0.00    -0.252 NA
HETATM   21  C19 UNL     1      24.244   4.777  49.549  1.00  0.00     0.107 C 
HETATM   22 CL1  UNL     1      24.291   5.765  50.991  1.00  0.00    -0.067 Cl
HETATM   23  C20 UNL     1      25.118   3.546  49.531  1.00  0.00     0.107 C 
HETATM   24  C21 UNL     1      20.076   0.655  51.449  1.00  0.00     0.156 C 
HETATM   25  H12 UNL     1      25.375   1.346  52.552  1.00  0.00     0.157 HD
HETATM   26  H19 UNL     1      22.765   3.191  46.990  1.00  0.00     0.164 HD
ENDROOT
BRANCH   1  27
HETATM   27  O1  UNL     1      20.249  -0.202  53.491  1.00  0.00    -0.282 OA
BRANCH  27  28
HETATM   28  C3  UNL     1      18.964  -0.602  53.214  1.00  0.00     0.200 C 
BRANCH  28  29
HETATM   29  C2  UNL     1      18.795  -2.022  53.773  1.00  0.00     0.024 C 
HETATM   30  C1  UNL     1      17.426  -2.501  53.334  1.00  0.00     0.007 C 
ENDBRANCH  28  29
ENDBRANCH  27  28
ENDBRANCH   1  27
TORSDOF 3
ENDMDL
MODEL 4
REMARK VINA RESULT:      -7.6      2.921      4.354
REMARK  3 active torsions:
REMARK  status: ('A' for Active; 'I' for Inactive)
REMARK    1  A    between atoms: C2_2  and  C3_3 
REMARK    2  A    between atoms: C3_3  and  O1_4 
REMARK    3  A    between atoms: O1_4  and  N1_5 
ROOT
HETATM    1  N1  UNL     1      25.161   2.396  51.276  1.00  0.00    -0.290 N 
HETATM    2  C4  UNL     1      24.599   2.990  52.385  1.00  0.00     0.177 C 
HETATM    3  C5  UNL     1      23.512   2.051  52.913  1.00  0.00    -0.000 C 
HETATM    4  C6  UNL     1      22.200   2.286  52.806  1.00  0.00     0.065 C 
HETATM    5  C7  UNL     1      21.317   3.300  52.242  1.00  0.00     0.221 C 
HETATM    6  O2  UNL     1      20.057   3.264  52.545  1.00  0.00    -0.275 OA
HETATM    7  N2  UNL     1      22.066   4.220  51.379  1.00  0.00    -0.250 NA
HETATM    8  C8  UNL     1      21.397   5.380  50.767  1.00  0.00     0.093 A 
HETATM    9  C9  UNL     1      22.291   5.993  50.023  1.00  0.00    -0.060 C 
HETATM   10  C10 UNL     1      23.707   5.619  49.769  1.00  0.00    -0.016 C 
HETATM   11  C11 UNL     1      24.818   4.903  49.819  1.00  0.00     0.024 A 
HETATM   12  C12 UNL     1      26.121   4.148  49.831  1.00  0.00    -0.016 A 
HETATM   13  C13 UNL     1      26.107   5.331  49.224  1.00  0.00     0.060 A 
HETATM   14  C14 UNL     1      27.289   5.961  48.561  1.00  0.00    -0.003 C 
HETATM   15  C15 UNL     1      26.903   7.146  48.059  1.00  0.00     0.084 C 
HETATM   16  N3  UNL     1      25.875   8.151  47.832  1.00  0.00    -0.375 N 
HETATM   17  C16 UNL     1      25.553   8.797  46.583  1.00  0.00     0.101 C 
HETATM   18  C17 UNL     1      24.540   8.511  45.786  1.00  0.00     0.010 C 
HETATM   19  C18 UNL     1      23.990   7.354  46.049  1.00  0.00     0.131 C 
HETATM   20  N4  UNL     1      23.559   7.578  47.388  1.00  0.00    -0.252 NA
HETATM   21  C19 UNL     1      22.511   6.943  47.785  1.00  0.00     0.107 C 
HETATM   22 CL1  UNL     1      21.503   5.813  46.911  1.00  0.00    -0.067 Cl
HETATM   23  C20 UNL     1      22.140   7.228  49.220  1.00  0.00     0.107 C 
HETATM   24  C21 UNL     1      26.225   2.863  50.530  1.00  0.00     0.156 C 
HETATM   25  H12 UNL     1      21.097   4.451  51.507  1.00  0.00     0.157 HD
HETATM   26  H19 UNL     1      25.414   8.316  48.755  1.00  0.00     0.164 HD
ENDROOT
BRANCH   1  27
HETATM   27  O1  UNL     1      25.343   1.057  51.475  1.00  0.00    -0.282 OA
BRANCH  27  28
HETATM   28  C3  UNL     1      26.639   0.695  51.753  1.00  0.00     0.200 C 
BRANCH  28  29
HETATM   29  C2  UNL     1      26.600  -0.703  52.385  1.00  0.00     0.024 C 
HETATM   30  C1  UNL     1      26.089  -0.526  53.800  1.00  0.00     0.007 C 
ENDBRANCH  28  29
ENDBRANCH  27  28
ENDBRANCH   1  27
TORSDOF 3
ENDMDL
MODEL 5
REMARK VINA RESULT:      -7.6      2.420      3.124
REMARK  3 active torsions:
REMARK  status: ('A' for Active; 'I' for Inactive)
REMARK    1  A    between atoms: C2_2  and  C3_3 
REMARK    2  A    between atoms: C3_3  and  O1_4 
REMARK    3  A    between atoms: O1_4  and  N1_5 
ROOT
HETATM    1  N1  UNL     1      23.436   0.239  53.363  1.00  0.00    -0.290 N 
HETATM    2  C4  UNL     1      22.489   0.208  54.363  1.00  0.00     0.177 C 
HETATM    3  C5  UNL     1      21.971  -1.227  54.467  1.00  0.00    -0.000 C 
HETATM    4  C6  UNL     1      20.757  -1.618  54.063  1.00  0.00     0.065 C 
HETATM    5  C7  UNL     1      19.577  -1.035  53.436  1.00  0.00     0.221 C 
HETATM    6  O2  UNL     1      18.484  -1.731  53.403  1.00  0.00    -0.275 OA
HETATM    7  N2  UNL     1      19.870   0.308  52.924  1.00  0.00    -0.250 NA
HETATM    8  C8  UNL     1      18.804   1.127  52.326  1.00  0.00     0.093 A 
HETATM    9  C9  UNL     1      19.359   2.248  51.922  1.00  0.00    -0.060 C 
HETATM   10  C10 UNL     1      20.786   2.658  51.986  1.00  0.00    -0.016 C 
HETATM   11  C11 UNL     1      22.084   2.560  52.219  1.00  0.00     0.024 A 
HETATM   12  C12 UNL     1      23.570   2.528  52.458  1.00  0.00    -0.016 A 
HETATM   13  C13 UNL     1      23.045   3.674  52.033  1.00  0.00     0.060 A 
HETATM   14  C14 UNL     1      23.823   4.925  51.782  1.00  0.00    -0.003 C 
HETATM   15  C15 UNL     1      22.966   5.871  51.364  1.00  0.00     0.084 C 
HETATM   16  N3  UNL     1      21.617   6.297  51.023  1.00  0.00    -0.375 N 
HETATM   17  C16 UNL     1      21.203   6.999  49.832  1.00  0.00     0.101 C 
HETATM   18  C17 UNL     1      20.614   6.475  48.773  1.00  0.00     0.010 C 
HETATM   19  C18 UNL     1      20.700   5.170  48.730  1.00  0.00     0.131 C 
HETATM   20  N4  UNL     1      20.019   4.831  49.933  1.00  0.00    -0.252 NA
HETATM   21  C19 UNL     1      19.397   3.704  49.962  1.00  0.00     0.107 C 
HETATM   22 CL1  UNL     1      19.255   2.485  48.717  1.00  0.00    -0.067 Cl
HETATM   23  C20 UNL     1      18.720   3.422  51.282  1.00  0.00     0.107 C 
HETATM   24  C21 UNL     1      24.210   1.317  52.980  1.00  0.00     0.156 C 
HETATM   25  H12 UNL     1      18.913   0.017  52.832  1.00  0.00     0.157 HD
HETATM   26  H19 UNL     1      21.003   5.996  51.812  1.00  0.00     0.164 HD
ENDROOT
BRANCH   1  27
HETATM   27  O1  UNL     1      24.245  -0.861  53.418  1.00  0.00    -0.282 OA
BRANCH  27  28
HETATM   28  C3  UNL     1      25.545  -0.592  53.776  1.00  0.00     0.200 C 
BRANCH  28  29
HETATM   29  C2  UNL     1      26.456  -1.324  52.780  1.00  0.00     0.024 C 
HETATM   30  C1  UNL     1      27.874  -0.891  53.090  1.00  0.00     0.007 C 
ENDBRANCH  28  29
ENDBRANCH  27  28
ENDBRANCH   1  27
TORSDOF 3
ENDMDL
MODEL 6
REMARK VINA RESULT:      -7.6      2.942      5.649
REMARK  3 active torsions:
REMARK  status: ('A' for Active; 'I' for Inactive)
REMARK    1  A    between atoms: C2_2  and  C3_3 
REMARK    2  A    between atoms: C3_3  and  O1_4 
REMARK    3  A    between atoms: O1_4  and  N1_5 
ROOT
HETATM    1  N1  UNL     1      22.681   2.120  51.943  1.00  0.00    -0.290 N 
HETATM    2  C4  UNL     1      23.623   1.266  51.412  1.00  0.00     0.177 C 
HETATM    3  C5  UNL     1      24.518   0.792  52.559  1.00  0.00    -0.000 C 
HETATM    4  C6  UNL     1      25.782   1.188  52.737  1.00  0.00     0.065 C 
HETATM    5  C7  UNL     1      26.743   2.086  52.107  1.00  0.00     0.221 C 
HETATM    6  O2  UNL     1      27.983   2.027  52.476  1.00  0.00    -0.275 OA
HETATM    7  N2  UNL     1      26.080   2.944  51.118  1.00  0.00    -0.250 NA
HETATM    8  C8  UNL     1      26.867   3.873  50.291  1.00  0.00     0.093 A 
HETATM    9  C9  UNL     1      26.016   4.533  49.536  1.00  0.00    -0.060 C 
HETATM   10  C10 UNL     1      24.533   4.440  49.503  1.00  0.00    -0.016 C 
HETATM   11  C11 UNL     1      23.318   4.049  49.846  1.00  0.00     0.024 A 
HETATM   12  C12 UNL     1      21.903   3.651  50.175  1.00  0.00    -0.016 A 
HETATM   13  C13 UNL     1      22.083   4.456  49.132  1.00  0.00     0.060 A 
HETATM   14  C14 UNL     1      20.987   4.986  48.266  1.00  0.00    -0.003 C 
HETATM   15  C15 UNL     1      21.541   5.761  47.318  1.00  0.00     0.084 C 
HETATM   16  N3  UNL     1      22.713   6.358  46.698  1.00  0.00    -0.375 N 
HETATM   17  C16 UNL     1      22.891   7.743  46.331  1.00  0.00     0.101 C 
HETATM   18  C17 UNL     1      23.577   8.653  47.000  1.00  0.00     0.010 C 
HETATM   19  C18 UNL     1      23.851   8.291  48.226  1.00  0.00     0.131 C 
HETATM   20  N4  UNL     1      24.627   7.124  47.980  1.00  0.00    -0.252 NA
HETATM   21  C19 UNL     1      25.534   6.824  48.842  1.00  0.00     0.107 C 
HETATM   22 CL1  UNL     1      25.976   7.652  50.318  1.00  0.00    -0.067 Cl
HETATM   23  C20 UNL     1      26.293   5.563  48.508  1.00  0.00     0.107 C 
HETATM   24  C21 UNL     1      21.632   2.722  51.277  1.00  0.00     0.156 C 
HETATM   25  H12 UNL     1      27.078   3.048  51.170  1.00  0.00     0.157 HD
HETATM   26  H19 UNL     1      23.404   5.587  46.565  1.00  0.00     0.164 HD
ENDROOT
BRANCH   1  27
HETATM   27  O1  UNL     1      22.206   1.648  53.134  1.00  0.00    -0.282 OA
BRANCH  27  28
HETATM   28  C3  UNL     1      20.930   1.142  53.076  1.00  0.00     0.200 C 
BRANCH  28  29
HETATM   29  C2  UNL     1      20.718   0.284  54.331  1.00  0.00     0.024 C 
HETATM   30  C1  UNL     1      21.638  -0.913  54.200  1.00  0.00     0.007 C 
ENDBRANCH  28  29
ENDBRANCH  27  28
ENDBRANCH   1  27
TORSDOF 3
ENDMDL
MODEL 7
REMARK VINA RESULT:      -7.5      3.456      7.722
REMARK  3 active torsions:
REMARK  status: ('A' for Active; 'I' for Inactive)
REMARK    1  A    between atoms: C2_2  and  C3_3 
REMARK    2  A    between atoms: C3_3  and  O1_4 
REMARK    3  A    between atoms: O1_4  and  N1_5 
ROOT
HETATM    1  N1  UNL     1      19.838   3.347  49.704  1.00  0.00    -0.290 N 
HETATM    2  C4  UNL     1      19.596   4.371  50.595  1.00  0.00     0.177 C 
HETATM    3  C5  UNL     1      19.664   5.687  49.817  1.00  0.00    -0.000 C 
HETATM    4  C6  UNL     1      20.662   6.570  49.924  1.00  0.00     0.065 C 
HETATM    5  C7  UNL     1      21.925   6.708  50.640  1.00  0.00     0.221 C 
HETATM    6  O2  UNL     1      22.523   7.858  50.630  1.00  0.00    -0.275 OA
HETATM    7  N2  UNL     1      22.306   5.439  51.269  1.00  0.00    -0.250 NA
HETATM    8  C8  UNL     1      23.504   5.358  52.121  1.00  0.00     0.093 A 
HETATM    9  C9  UNL     1      23.620   4.107  52.507  1.00  0.00    -0.060 C 
HETATM   10  C10 UNL     1      22.768   2.941  52.157  1.00  0.00    -0.016 C 
HETATM   11  C11 UNL     1      21.804   2.255  51.567  1.00  0.00     0.024 A 
HETATM   12  C12 UNL     1      20.730   1.408  50.938  1.00  0.00    -0.016 A 
HETATM   13  C13 UNL     1      21.504   0.832  51.852  1.00  0.00     0.060 A 
HETATM   14  C14 UNL     1      21.380  -0.589  52.299  1.00  0.00    -0.003 C 
HETATM   15  C15 UNL     1      22.324  -0.818  53.228  1.00  0.00     0.084 C 
HETATM   16  N3  UNL     1      23.441  -0.356  54.038  1.00  0.00    -0.375 N 
HETATM   17  C16 UNL     1      24.713  -1.013  54.218  1.00  0.00     0.101 C 
HETATM   18  C17 UNL     1      25.851  -0.702  53.624  1.00  0.00     0.010 C 
HETATM   19  C18 UNL     1      25.693   0.079  52.587  1.00  0.00     0.131 C 
HETATM   20  N4  UNL     1      25.099   1.212  53.211  1.00  0.00    -0.252 NA
HETATM   21  C19 UNL     1      25.321   2.364  52.681  1.00  0.00     0.107 C 
HETATM   22 CL1  UNL     1      26.267   2.768  51.267  1.00  0.00    -0.067 Cl
HETATM   23  C20 UNL     1      24.637   3.502  53.399  1.00  0.00     0.107 C 
HETATM   24  C21 UNL     1      19.802   1.991  49.963  1.00  0.00     0.156 C 
HETATM   25  H12 UNL     1      22.914   6.212  51.470  1.00  0.00     0.157 HD
HETATM   26  H19 UNL     1      23.141   0.546  54.470  1.00  0.00     0.164 HD
ENDROOT
BRANCH   1  27
HETATM   27  O1  UNL     1      19.195   3.565  48.518  1.00  0.00    -0.282 OA
BRANCH  27  28
HETATM   28  C3  UNL     1      19.742   2.902  47.446  1.00  0.00     0.200 C 
BRANCH  28  29
HETATM   29  C2  UNL     1      20.938   3.730  46.955  1.00  0.00     0.024 C 
HETATM   30  C1  UNL     1      22.175   2.889  47.191  1.00  0.00     0.007 C 
ENDBRANCH  28  29
ENDBRANCH  27  28
ENDBRANCH   1  27
TORSDOF 3
ENDMDL
MODEL 8
REMARK VINA RESULT:      -7.5      3.614      7.666
REMARK  3 active torsions:
REMARK  status: ('A' for Active; 'I' for Inactive)
REMARK    1  A    between atoms: C2_2  and  C3_3 
REMARK    2  A    between atoms: C3_3  and  O1_4 
REMARK    3  A    between atoms: O1_4  and  N1_5 
ROOT
HETATM    1  N1  UNL     1      19.114   1.451  50.882  1.00  0.00    -0.290 N 
HETATM    2  C4  UNL     1      18.828   2.583  51.614  1.00  0.00     0.177 C 
HETATM    3  C5  UNL     1      18.166   3.590  50.670  1.00  0.00    -0.000 C 
HETATM    4  C6  UNL     1      18.760   4.700  50.221  1.00  0.00     0.065 C 
HETATM    5  C7  UNL     1      20.050   5.369  50.337  1.00  0.00     0.221 C 
HETATM    6  O2  UNL     1      20.162   6.584  49.900  1.00  0.00    -0.275 OA
HETATM    7  N2  UNL     1      21.041   4.484  50.959  1.00  0.00    -0.250 NA
HETATM    8  C8  UNL     1      22.396   4.975  51.259  1.00  0.00     0.093 A 
HETATM    9  C9  UNL     1      23.069   3.965  51.766  1.00  0.00    -0.060 C 
HETATM   10  C10 UNL     1      22.624   2.564  51.983  1.00  0.00    -0.016 C 
HETATM   11  C11 UNL     1      21.831   1.506  51.950  1.00  0.00     0.024 A 
HETATM   12  C12 UNL     1      20.987   0.259  51.954  1.00  0.00    -0.016 A 
HETATM   13  C13 UNL     1      22.168   0.198  52.562  1.00  0.00     0.060 A 
HETATM   14  C14 UNL     1      22.711  -1.014  53.247  1.00  0.00    -0.003 C 
HETATM   15  C15 UNL     1      23.921  -0.706  53.742  1.00  0.00     0.084 C 
HETATM   16  N3  UNL     1      24.999   0.250  53.948  1.00  0.00    -0.375 N 
HETATM   17  C16 UNL     1      26.406   0.037  53.707  1.00  0.00     0.101 C 
HETATM   18  C17 UNL     1      27.099   0.457  52.664  1.00  0.00     0.010 C 
HETATM   19  C18 UNL     1      26.345   0.837  51.665  1.00  0.00     0.131 C 
HETATM   20  N4  UNL     1      25.624   1.899  52.281  1.00  0.00    -0.252 NA
HETATM   21  C19 UNL     1      25.236   2.866  51.525  1.00  0.00     0.107 C 
HETATM   22 CL1  UNL     1      25.460   3.086  49.805  1.00  0.00    -0.067 Cl
HETATM   23  C20 UNL     1      24.465   3.936  52.260  1.00  0.00     0.107 C 
HETATM   24  C21 UNL     1      19.650   0.268  51.352  1.00  0.00     0.156 C 
HETATM   25  H12 UNL     1      21.364   5.416  50.769  1.00  0.00     0.157 HD
HETATM   26  H19 UNL     1      24.556   1.123  54.310  1.00  0.00     0.164 HD
ENDROOT
BRANCH   1  27
HETATM   27  O1  UNL     1      18.088   1.141  50.036  1.00  0.00    -0.282 OA
BRANCH  27  28
HETATM   28  C3  UNL     1      17.456  -0.046  50.321  1.00  0.00     0.200 C 
BRANCH  28  29
HETATM   29  C2  UNL     1      16.039   0.293  50.805  1.00  0.00     0.024 C 
HETATM   30  C1  UNL     1      15.990  -0.049  52.280  1.00  0.00     0.007 C 
ENDBRANCH  28  29
ENDBRANCH  27  28
ENDBRANCH   1  27
TORSDOF 3
ENDMDL
MODEL 9
REMARK VINA RESULT:      -7.3      3.322      6.857
REMARK  3 active torsions:
REMARK  status: ('A' for Active; 'I' for Inactive)
REMARK    1  A    between atoms: C2_2  and  C3_3 
REMARK    2  A    between atoms: C3_3  and  O1_4 
REMARK    3  A    between atoms: O1_4  and  N1_5 
ROOT
HETATM    1  N1  UNL     1      18.215   1.450  51.405  1.00  0.00    -0.290 N 
HETATM    2  C4  UNL     1      18.688   0.165  51.246  1.00  0.00     0.177 C 
HETATM    3  C5  UNL     1      18.296  -0.631  52.492  1.00  0.00    -0.000 C 
HETATM    4  C6  UNL     1      19.159  -1.020  53.437  1.00  0.00     0.065 C 
HETATM    5  C7  UNL     1      20.582  -0.901  53.729  1.00  0.00     0.221 C 
HETATM    6  O2  UNL     1      21.086  -1.629  54.675  1.00  0.00    -0.275 OA
HETATM    7  N2  UNL     1      21.212   0.088  52.846  1.00  0.00    -0.250 NA
HETATM    8  C8  UNL     1      22.666   0.315  52.899  1.00  0.00     0.093 A 
HETATM    9  C9  UNL     1      22.938   1.273  52.040  1.00  0.00    -0.060 C 
HETATM   10  C10 UNL     1      22.005   2.048  51.181  1.00  0.00    -0.016 C 
HETATM   11  C11 UNL     1      20.855   2.461  50.675  1.00  0.00     0.024 A 
HETATM   12  C12 UNL     1      19.589   2.981  50.047  1.00  0.00    -0.016 A 
HETATM   13  C13 UNL     1      20.741   3.437  49.564  1.00  0.00     0.060 A 
HETATM   14  C14 UNL     1      20.866   4.420  48.446  1.00  0.00    -0.003 C 
HETATM   15  C15 UNL     1      22.173   4.644  48.232  1.00  0.00     0.084 C 
HETATM   16  N3  UNL     1      23.570   4.399  48.558  1.00  0.00    -0.375 N 
HETATM   17  C16 UNL     1      24.597   5.388  48.777  1.00  0.00     0.101 C 
HETATM   18  C17 UNL     1      25.064   5.794  49.944  1.00  0.00     0.010 C 
HETATM   19  C18 UNL     1      24.300   5.454  50.950  1.00  0.00     0.131 C 
HETATM   20  N4  UNL     1      24.340   4.036  50.831  1.00  0.00    -0.252 NA
HETATM   21  C19 UNL     1      24.217   3.349  51.912  1.00  0.00     0.107 C 
HETATM   22 CL1  UNL     1      24.000   3.901  53.557  1.00  0.00    -0.067 Cl
HETATM   23  C20 UNL     1      24.253   1.856  51.687  1.00  0.00     0.107 C 
HETATM   24  C21 UNL     1      18.283   2.482  50.491  1.00  0.00     0.156 C 
HETATM   25  H12 UNL     1      21.842  -0.397  53.459  1.00  0.00     0.157 HD
HETATM   26  H19 UNL     1      23.687   3.362  48.600  1.00  0.00     0.164 HD
ENDROOT
BRANCH   1  27
HETATM   27  O1  UNL     1      16.959   1.448  51.943  1.00  0.00    -0.282 OA
BRANCH  27  28
HETATM   28  C3  UNL     1      16.019   2.113  51.194  1.00  0.00     0.200 C 
BRANCH  28  29
HETATM   29  C2  UNL     1      14.966   2.666  52.163  1.00  0.00     0.024 C 
HETATM   30  C1  UNL     1      15.483   4.004  52.650  1.00  0.00     0.007 C 
ENDBRANCH  28  29
ENDBRANCH  27  28
ENDBRANCH   1  27
TORSDOF 3
ENDMDL
