MODEL 1
REMARK VINA RESULT:      -7.9      0.000      0.000
REMARK  5 active torsions:
REMARK  status: ('A' for Active; 'I' for Inactive)
REMARK    1  A    between atoms: C5_6  and  O1_7 
REMARK    2  A    between atoms: C7_9  and  O2_10 
REMARK    3  A    between atoms: C10_13  and  C11_14 
REMARK    4  A    between atoms: C11_14  and  N2_15 
REMARK    5  A    between atoms: N2_15  and  C13_17 
ROOT
HETATM    1  C1  UNL     1      24.758  -1.212  56.024  1.00  0.00     0.039 C 
HETATM    2  C2  UNL     1      23.634  -1.262  55.608  1.00  0.00     0.024 C 
HETATM    3  N1  UNL     1      22.346  -1.335  55.150  1.00  0.00    -0.198 NA
HETATM    4  C3  UNL     1      21.747  -0.801  54.186  1.00  0.00     0.081 A 
HETATM    5  C4  UNL     1      20.349  -1.304  54.250  1.00  0.00     0.073 A 
HETATM    6  C5  UNL     1      19.445  -0.911  53.339  1.00  0.00     0.103 A 
HETATM    7  C7  UNL     1      19.795   0.008  52.272  1.00  0.00     0.102 A 
HETATM    8  C9  UNL     1      21.002   0.515  52.122  1.00  0.00     0.054 A 
HETATM    9  C10 UNL     1      22.006   0.111  53.090  1.00  0.00     0.012 A 
ENDROOT
BRANCH   9  10
HETATM   10  C11 UNL     1      23.226   0.523  53.072  1.00  0.00     0.104 C 
BRANCH  10  11
HETATM   11  N2  UNL     1      24.338   1.349  53.082  1.00  0.00    -0.360 N 
HETATM   12  C12 UNL     1      24.292   2.822  53.040  1.00  0.00     0.155 C 
BRANCH  11  13
HETATM   13  C13 UNL     1      25.656   0.755  53.136  1.00  0.00     0.035 A 
HETATM   14  C14 UNL     1      25.950  -0.517  52.695  1.00  0.00     0.033 A 
HETATM   15  C15 UNL     1      27.215  -1.052  52.760  1.00  0.00     0.046 A 
HETATM   16  C16 UNL     1      28.239  -0.289  53.288  1.00  0.00     0.138 A 
HETATM   17  F1  UNL     1      29.458  -0.879  53.321  1.00  0.00    -0.204 F 
HETATM   18  C17 UNL     1      28.000   0.983  53.741  1.00  0.00     0.074 A 
HETATM   19 CL1  UNL     1      29.333   1.908  54.401  1.00  0.00    -0.081 Cl
HETATM   20  C18 UNL     1      26.721   1.495  53.664  1.00  0.00     0.056 A 
ENDBRANCH  11  13
ENDBRANCH  10  11
ENDBRANCH   9  10
BRANCH   6  21
HETATM   21  O1  UNL     1      18.114  -1.300  53.279  1.00  0.00    -0.353 OA
HETATM   22  C6  UNL     1      17.747  -2.653  53.573  1.00  0.00     0.210 C 
ENDBRANCH   6  21
BRANCH   7  23
HETATM   23  O2  UNL     1      18.909   0.465  51.285  1.00  0.00    -0.353 OA
HETATM   24  C8  UNL     1      19.287   1.179  50.149  1.00  0.00     0.210 C 
ENDBRANCH   7  23
TORSDOF 5
ENDMDL
MODEL 2
REMARK VINA RESULT:      -7.6      4.598      7.518
REMARK  5 active torsions:
REMARK  status: ('A' for Active; 'I' for Inactive)
REMARK    1  A    between atoms: C5_6  and  O1_7 
REMARK    2  A    between atoms: C7_9  and  O2_10 
REMARK    3  A    between atoms: C10_13  and  C11_14 
REMARK    4  A    between atoms: C11_14  and  N2_15 
REMARK    5  A    between atoms: N2_15  and  C13_17 
ROOT
HETATM    1  C1  UNL     1      26.000   4.037  49.394  1.00  0.00     0.039 C 
HETATM    2  C2  UNL     1      26.433   3.301  50.238  1.00  0.00     0.024 C 
HETATM    3  N1  UNL     1      26.950   2.469  51.194  1.00  0.00    -0.198 NA
HETATM    4  C3  UNL     1      26.427   1.662  52.001  1.00  0.00     0.081 A 
HETATM    5  C4  UNL     1      27.556   1.072  52.768  1.00  0.00     0.073 A 
HETATM    6  C5  UNL     1      27.321   0.158  53.723  1.00  0.00     0.103 A 
HETATM    7  C7  UNL     1      25.975  -0.281  54.037  1.00  0.00     0.102 A 
HETATM    8  C9  UNL     1      24.904   0.177  53.421  1.00  0.00     0.054 A 
HETATM    9  C10 UNL     1      25.120   1.167  52.381  1.00  0.00     0.012 A 
ENDROOT
BRANCH   9  10
HETATM   10  C11 UNL     1      24.172   1.705  51.694  1.00  0.00     0.104 C 
BRANCH  10  11
HETATM   11  N2  UNL     1      22.922   2.144  51.293  1.00  0.00    -0.360 N 
HETATM   12  C12 UNL     1      22.679   3.297  50.408  1.00  0.00     0.155 C 
BRANCH  11  13
HETATM   13  C13 UNL     1      21.746   1.442  51.761  1.00  0.00     0.035 A 
HETATM   14  C14 UNL     1      21.591   0.961  53.042  1.00  0.00     0.033 A 
HETATM   15  C15 UNL     1      20.459   0.298  53.454  1.00  0.00     0.046 A 
HETATM   16  C16 UNL     1      19.430   0.102  52.552  1.00  0.00     0.138 A 
HETATM   17  F1  UNL     1      18.346  -0.557  53.027  1.00  0.00    -0.204 F 
HETATM   18  C17 UNL     1      19.535   0.562  51.265  1.00  0.00     0.074 A 
HETATM   19 CL1  UNL     1      18.202   0.288  50.161  1.00  0.00    -0.081 Cl
HETATM   20  C18 UNL     1      20.681   1.224  50.878  1.00  0.00     0.056 A 
ENDBRANCH  11  13
ENDBRANCH  10  11
ENDBRANCH   9  10
BRANCH   6  21
HETATM   21  O1  UNL     1      28.275  -0.473  54.511  1.00  0.00    -0.353 OA
HETATM   22  C6  UNL     1      29.563  -0.784  53.969  1.00  0.00     0.210 C 
ENDBRANCH   6  21
BRANCH   7  23
HETATM   23  O2  UNL     1      25.649  -1.230  55.018  1.00  0.00    -0.353 OA
HETATM   24  C8  UNL     1      24.410  -1.323  55.651  1.00  0.00     0.210 C 
ENDBRANCH   7  23
TORSDOF 5
ENDMDL
MODEL 3
REMARK VINA RESULT:      -7.6      2.245      4.005
REMARK  5 active torsions:
REMARK  status: ('A' for Active; 'I' for Inactive)
REMARK    1  A    between atoms: C5_6  and  O1_7 
REMARK    2  A    between atoms: C7_9  and  O2_10 
REMARK    3  A    between atoms: C10_13  and  C11_14 
REMARK    4  A    between atoms: C11_14  and  N2_15 
REMARK    5  A    between atoms: N2_15  and  C13_17 
ROOT
HETATM    1  C1  UNL     1      23.654   5.220  50.227  1.00  0.00     0.039 C 
HETATM    2  C2  UNL     1      22.973   4.400  50.779  1.00  0.00     0.024 C 
HETATM    3  N1  UNL     1      22.177   3.479  51.404  1.00  0.00    -0.198 NA
HETATM    4  C3  UNL     1      22.422   2.417  52.026  1.00  0.00     0.081 A 
HETATM    5  C4  UNL     1      21.100   1.889  52.457  1.00  0.00     0.073 A 
HETATM    6  C5  UNL     1      21.023   0.745  53.156  1.00  0.00     0.103 A 
HETATM    7  C7  UNL     1      22.211  -0.007  53.512  1.00  0.00     0.102 A 
HETATM    8  C9  UNL     1      23.429   0.369  53.181  1.00  0.00     0.054 A 
HETATM    9  C10 UNL     1      23.552   1.602  52.424  1.00  0.00     0.012 A 
ENDROOT
BRANCH   9  10
HETATM   10  C11 UNL     1      24.675   2.093  52.029  1.00  0.00     0.104 C 
BRANCH  10  11
HETATM   11  N2  UNL     1      26.005   2.211  51.663  1.00  0.00    -0.360 N 
HETATM   12  C12 UNL     1      26.511   3.110  50.610  1.00  0.00     0.155 C 
BRANCH  11  13
HETATM   13  C13 UNL     1      26.997   1.407  52.344  1.00  0.00     0.035 A 
HETATM   14  C14 UNL     1      28.035   1.924  53.087  1.00  0.00     0.033 A 
HETATM   15  C15 UNL     1      28.961   1.129  53.722  1.00  0.00     0.046 A 
HETATM   16  C16 UNL     1      28.852  -0.244  53.615  1.00  0.00     0.138 A 
HETATM   17  F1  UNL     1      29.798  -0.963  54.266  1.00  0.00    -0.204 F 
HETATM   18  C17 UNL     1      27.837  -0.809  52.888  1.00  0.00     0.074 A 
HETATM   19 CL1  UNL     1      27.743  -2.555  52.785  1.00  0.00    -0.081 Cl
HETATM   20  C18 UNL     1      26.921   0.011  52.261  1.00  0.00     0.056 A 
ENDBRANCH  11  13
ENDBRANCH  10  11
ENDBRANCH   9  10
BRANCH   6  21
HETATM   21  O1  UNL     1      19.862   0.142  53.621  1.00  0.00    -0.353 OA
HETATM   22  C6  UNL     1      18.916  -0.403  52.695  1.00  0.00     0.210 C 
ENDBRANCH   6  21
BRANCH   7  23
HETATM   23  O2  UNL     1      22.212  -1.207  54.239  1.00  0.00    -0.353 OA
HETATM   24  C8  UNL     1      22.939  -1.425  55.409  1.00  0.00     0.210 C 
ENDBRANCH   7  23
TORSDOF 5
ENDMDL
MODEL 4
REMARK VINA RESULT:      -7.4      4.869      7.478
REMARK  5 active torsions:
REMARK  status: ('A' for Active; 'I' for Inactive)
REMARK    1  A    between atoms: C5_6  and  O1_7 
REMARK    2  A    between atoms: C7_9  and  O2_10 
REMARK    3  A    between atoms: C10_13  and  C11_14 
REMARK    4  A    between atoms: C11_14  and  N2_15 
REMARK    5  A    between atoms: N2_15  and  C13_17 
ROOT
HETATM    1  C1  UNL     1      26.164   4.179  49.360  1.00  0.00     0.039 C 
HETATM    2  C2  UNL     1      26.531   3.401  50.197  1.00  0.00     0.024 C 
HETATM    3  N1  UNL     1      26.972   2.518  51.144  1.00  0.00    -0.198 NA
HETATM    4  C3  UNL     1      26.380   1.745  51.937  1.00  0.00     0.081 A 
HETATM    5  C4  UNL     1      27.453   1.056  52.704  1.00  0.00     0.073 A 
HETATM    6  C5  UNL     1      27.138   0.152  53.645  1.00  0.00     0.103 A 
HETATM    7  C7  UNL     1      25.758  -0.181  53.944  1.00  0.00     0.102 A 
HETATM    8  C9  UNL     1      24.732   0.368  53.327  1.00  0.00     0.054 A 
HETATM    9  C10 UNL     1      25.034   1.351  52.302  1.00  0.00     0.012 A 
ENDROOT
BRANCH   9  10
HETATM   10  C11 UNL     1      24.138   1.972  51.616  1.00  0.00     0.104 C 
BRANCH  10  11
HETATM   11  N2  UNL     1      22.949   2.576  51.242  1.00  0.00    -0.360 N 
HETATM   12  C12 UNL     1      21.927   3.072  52.181  1.00  0.00     0.155 C 
BRANCH  11  13
HETATM   13  C13 UNL     1      22.657   2.745  49.836  1.00  0.00     0.035 A 
HETATM   14  C14 UNL     1      22.324   1.714  48.985  1.00  0.00     0.033 A 
HETATM   15  C15 UNL     1      22.052   1.911  47.652  1.00  0.00     0.046 A 
HETATM   16  C16 UNL     1      22.114   3.191  47.135  1.00  0.00     0.138 A 
HETATM   17  F1  UNL     1      21.834   3.310  45.815  1.00  0.00    -0.204 F 
HETATM   18  C17 UNL     1      22.441   4.252  47.940  1.00  0.00     0.074 A 
HETATM   19 CL1  UNL     1      22.506   5.855  47.237  1.00  0.00    -0.081 Cl
HETATM   20  C18 UNL     1      22.709   4.027  49.274  1.00  0.00     0.056 A 
ENDBRANCH  11  13
ENDBRANCH  10  11
ENDBRANCH   9  10
BRANCH   6  21
HETATM   21  O1  UNL     1      28.032  -0.563  54.431  1.00  0.00    -0.353 OA
HETATM   22  C6  UNL     1      29.376  -0.770  53.983  1.00  0.00     0.210 C 
ENDBRANCH   6  21
BRANCH   7  23
HETATM   23  O2  UNL     1      25.350  -1.113  54.911  1.00  0.00    -0.353 OA
HETATM   24  C8  UNL     1      24.053  -1.219  55.413  1.00  0.00     0.210 C 
ENDBRANCH   7  23
TORSDOF 5
ENDMDL
MODEL 5
REMARK VINA RESULT:      -7.3      4.941      7.677
REMARK  5 active torsions:
REMARK  status: ('A' for Active; 'I' for Inactive)
REMARK    1  A    between atoms: C5_6  and  O1_7 
REMARK    2  A    between atoms: C7_9  and  O2_10 
REMARK    3  A    between atoms: C10_13  and  C11_14 
REMARK    4  A    between atoms: C11_14  and  N2_15 
REMARK    5  A    between atoms: N2_15  and  C13_17 
ROOT
HETATM    1  C1  UNL     1      26.131   4.043  49.333  1.00  0.00     0.039 C 
HETATM    2  C2  UNL     1      26.512   3.266  50.164  1.00  0.00     0.024 C 
HETATM    3  N1  UNL     1      26.970   2.382  51.103  1.00  0.00    -0.198 NA
HETATM    4  C3  UNL     1      26.393   1.641  51.935  1.00  0.00     0.081 A 
HETATM    5  C4  UNL     1      27.479   0.929  52.661  1.00  0.00     0.073 A 
HETATM    6  C5  UNL     1      27.181   0.049  53.630  1.00  0.00     0.103 A 
HETATM    7  C7  UNL     1      25.807  -0.236  53.999  1.00  0.00     0.102 A 
HETATM    8  C9  UNL     1      24.771   0.337  53.422  1.00  0.00     0.054 A 
HETATM    9  C10 UNL     1      25.054   1.295  52.369  1.00  0.00     0.012 A 
ENDROOT
BRANCH   9  10
HETATM   10  C11 UNL     1      24.147   1.934  51.716  1.00  0.00     0.104 C 
BRANCH  10  11
HETATM   11  N2  UNL     1      22.944   2.266  51.114  1.00  0.00    -0.360 N 
HETATM   12  C12 UNL     1      22.019   1.299  50.496  1.00  0.00     0.155 C 
BRANCH  11  13
HETATM   13  C13 UNL     1      22.538   3.654  51.070  1.00  0.00     0.035 A 
HETATM   14  C14 UNL     1      23.303   4.698  51.539  1.00  0.00     0.033 A 
HETATM   15  C15 UNL     1      22.887   6.008  51.482  1.00  0.00     0.046 A 
HETATM   16  C16 UNL     1      21.652   6.296  50.932  1.00  0.00     0.138 A 
HETATM   17  F1  UNL     1      21.307   7.605  50.908  1.00  0.00    -0.204 F 
HETATM   18  C17 UNL     1      20.852   5.292  50.451  1.00  0.00     0.074 A 
HETATM   19 CL1  UNL     1      19.295   5.709  49.764  1.00  0.00    -0.081 Cl
HETATM   20  C18 UNL     1      21.294   3.987  50.521  1.00  0.00     0.056 A 
ENDBRANCH  11  13
ENDBRANCH  10  11
ENDBRANCH   9  10
BRANCH   6  21
HETATM   21  O1  UNL     1      28.089  -0.683  54.384  1.00  0.00    -0.353 OA
HETATM   22  C6  UNL     1      29.482  -0.656  54.055  1.00  0.00     0.210 C 
ENDBRANCH   6  21
BRANCH   7  23
HETATM   23  O2  UNL     1      25.417  -1.141  54.998  1.00  0.00    -0.353 OA
HETATM   24  C8  UNL     1      24.109  -1.302  55.456  1.00  0.00     0.210 C 
ENDBRANCH   7  23
TORSDOF 5
ENDMDL
MODEL 6
REMARK VINA RESULT:      -7.2      1.789      2.544
REMARK  5 active torsions:
REMARK  status: ('A' for Active; 'I' for Inactive)
REMARK    1  A    between atoms: C5_6  and  O1_7 
REMARK    2  A    between atoms: C7_9  and  O2_10 
REMARK    3  A    between atoms: C10_13  and  C11_14 
REMARK    4  A    between atoms: C11_14  and  N2_15 
REMARK    5  A    between atoms: N2_15  and  C13_17 
ROOT
HETATM    1  C1  UNL     1      23.024  -1.327  55.340  1.00  0.00     0.039 C 
HETATM    2  C2  UNL     1      22.326  -0.946  54.441  1.00  0.00     0.024 C 
HETATM    3  N1  UNL     1      21.512  -0.525  53.426  1.00  0.00    -0.198 NA
HETATM    4  C3  UNL     1      21.708   0.182  52.407  1.00  0.00     0.081 A 
HETATM    5  C4  UNL     1      20.395   0.259  51.712  1.00  0.00     0.073 A 
HETATM    6  C5  UNL     1      20.275   0.955  50.570  1.00  0.00     0.103 A 
HETATM    7  C7  UNL     1      21.405   1.647  49.981  1.00  0.00     0.102 A 
HETATM    8  C9  UNL     1      22.610   1.645  50.513  1.00  0.00     0.054 A 
HETATM    9  C10 UNL     1      22.779   0.902  51.749  1.00  0.00     0.012 A 
ENDROOT
BRANCH   9  10
HETATM   10  C11 UNL     1      23.896   0.810  52.384  1.00  0.00     0.104 C 
BRANCH  10  11
HETATM   11  N2  UNL     1      25.115   1.129  52.958  1.00  0.00    -0.360 N 
HETATM   12  C12 UNL     1      25.439   2.427  53.578  1.00  0.00     0.155 C 
BRANCH  11  13
HETATM   13  C13 UNL     1      26.171   0.140  52.964  1.00  0.00     0.035 A 
HETATM   14  C14 UNL     1      25.983  -1.193  52.673  1.00  0.00     0.033 A 
HETATM   15  C15 UNL     1      27.010  -2.108  52.688  1.00  0.00     0.046 A 
HETATM   16  C16 UNL     1      28.285  -1.681  53.006  1.00  0.00     0.138 A 
HETATM   17  F1  UNL     1      29.246  -2.634  53.000  1.00  0.00    -0.204 F 
HETATM   18  C17 UNL     1      28.525  -0.364  53.303  1.00  0.00     0.074 A 
HETATM   19 CL1  UNL     1      30.159   0.127  53.699  1.00  0.00    -0.081 Cl
HETATM   20  C18 UNL     1      27.477   0.533  53.281  1.00  0.00     0.056 A 
ENDBRANCH  11  13
ENDBRANCH  10  11
ENDBRANCH   9  10
BRANCH   6  21
HETATM   21  O1  UNL     1      19.116   1.110  49.820  1.00  0.00    -0.353 OA
HETATM   22  C6  UNL     1      18.085   1.998  50.265  1.00  0.00     0.210 C 
ENDBRANCH   6  21
BRANCH   7  23
HETATM   23  O2  UNL     1      21.358   2.393  48.793  1.00  0.00    -0.353 OA
HETATM   24  C8  UNL     1      21.288   3.784  48.732  1.00  0.00     0.210 C 
ENDBRANCH   7  23
TORSDOF 5
ENDMDL
MODEL 7
REMARK VINA RESULT:      -7.0      4.524      6.855
REMARK  5 active torsions:
REMARK  status: ('A' for Active; 'I' for Inactive)
REMARK    1  A    between atoms: C5_6  and  O1_7 
REMARK    2  A    between atoms: C7_9  and  O2_10 
REMARK    3  A    between atoms: C10_13  and  C11_14 
REMARK    4  A    between atoms: C11_14  and  N2_15 
REMARK    5  A    between atoms: N2_15  and  C13_17 
ROOT
HETATM    1  C1  UNL     1      21.005  -1.038  54.089  1.00  0.00     0.039 C 
HETATM    2  C2  UNL     1      22.204  -1.013  54.125  1.00  0.00     0.024 C 
HETATM    3  N1  UNL     1      23.571  -1.005  54.180  1.00  0.00    -0.198 NA
HETATM    4  C3  UNL     1      24.441  -0.204  53.761  1.00  0.00     0.081 A 
HETATM    5  C4  UNL     1      25.751  -0.790  54.151  1.00  0.00     0.073 A 
HETATM    6  C5  UNL     1      26.895  -0.159  53.841  1.00  0.00     0.103 A 
HETATM    7  C7  UNL     1      26.894   1.101  53.123  1.00  0.00     0.102 A 
HETATM    8  C9  UNL     1      25.793   1.707  52.729  1.00  0.00     0.054 A 
HETATM    9  C10 UNL     1      24.536   1.054  53.047  1.00  0.00     0.012 A 
ENDROOT
BRANCH   9  10
HETATM   10  C11 UNL     1      23.381   1.525  52.727  1.00  0.00     0.104 C 
BRANCH  10  11
HETATM   11  N2  UNL     1      22.383   2.370  52.271  1.00  0.00    -0.360 N 
HETATM   12  C12 UNL     1      20.943   2.185  52.524  1.00  0.00     0.155 C 
BRANCH  11  13
HETATM   13  C13 UNL     1      22.747   3.529  51.485  1.00  0.00     0.035 A 
HETATM   14  C14 UNL     1      23.282   4.684  52.011  1.00  0.00     0.033 A 
HETATM   15  C15 UNL     1      23.618   5.768  51.234  1.00  0.00     0.046 A 
HETATM   16  C16 UNL     1      23.413   5.704  49.869  1.00  0.00     0.138 A 
HETATM   17  F1  UNL     1      23.766   6.807  49.166  1.00  0.00    -0.204 F 
HETATM   18  C17 UNL     1      22.884   4.577  49.295  1.00  0.00     0.074 A 
HETATM   19 CL1  UNL     1      22.644   4.546  47.560  1.00  0.00    -0.081 Cl
HETATM   20  C18 UNL     1      22.556   3.504  50.098  1.00  0.00     0.056 A 
ENDBRANCH  11  13
ENDBRANCH  10  11
ENDBRANCH   9  10
BRANCH   6  21
HETATM   21  O1  UNL     1      28.180  -0.590  54.143  1.00  0.00    -0.353 OA
HETATM   22  C6  UNL     1      28.859  -1.494  53.265  1.00  0.00     0.210 C 
ENDBRANCH   6  21
BRANCH   7  23
HETATM   23  O2  UNL     1      28.045   1.820  52.764  1.00  0.00    -0.353 OA
HETATM   24  C8  UNL     1      28.826   2.559  53.650  1.00  0.00     0.210 C 
ENDBRANCH   7  23
TORSDOF 5
ENDMDL
MODEL 8
REMARK VINA RESULT:      -6.8      5.227      7.675
REMARK  5 active torsions:
REMARK  status: ('A' for Active; 'I' for Inactive)
REMARK    1  A    between atoms: C5_6  and  O1_7 
REMARK    2  A    between atoms: C7_9  and  O2_10 
REMARK    3  A    between atoms: C10_13  and  C11_14 
REMARK    4  A    between atoms: C11_14  and  N2_15 
REMARK    5  A    between atoms: N2_15  and  C13_17 
ROOT
HETATM    1  C1  UNL     1      26.579   4.555  49.049  1.00  0.00     0.039 C 
HETATM    2  C2  UNL     1      26.733   3.713  49.890  1.00  0.00     0.024 C 
HETATM    3  N1  UNL     1      26.934   2.755  50.847  1.00  0.00    -0.198 NA
HETATM    4  C3  UNL     1      26.152   2.055  51.535  1.00  0.00     0.081 A 
HETATM    5  C4  UNL     1      27.022   1.205  52.392  1.00  0.00     0.073 A 
HETATM    6  C5  UNL     1      26.477   0.332  53.254  1.00  0.00     0.103 A 
HETATM    7  C7  UNL     1      25.039   0.187  53.378  1.00  0.00     0.102 A 
HETATM    8  C9  UNL     1      24.178   0.889  52.670  1.00  0.00     0.054 A 
HETATM    9  C10 UNL     1      24.731   1.844  51.726  1.00  0.00     0.012 A 
ENDROOT
BRANCH   9  10
HETATM   10  C11 UNL     1      24.017   2.599  50.967  1.00  0.00     0.104 C 
BRANCH  10  11
HETATM   11  N2  UNL     1      23.160   3.029  49.967  1.00  0.00    -0.360 N 
HETATM   12  C12 UNL     1      22.390   2.139  49.079  1.00  0.00     0.155 C 
BRANCH  11  13
HETATM   13  C13 UNL     1      22.985   4.449  49.752  1.00  0.00     0.035 A 
HETATM   14  C14 UNL     1      22.787   5.366  50.761  1.00  0.00     0.033 A 
HETATM   15  C15 UNL     1      22.625   6.710  50.521  1.00  0.00     0.046 A 
HETATM   16  C16 UNL     1      22.661   7.169  49.218  1.00  0.00     0.138 A 
HETATM   17  F1  UNL     1      22.495   8.503  49.056  1.00  0.00    -0.204 F 
HETATM   18  C17 UNL     1      22.856   6.297  48.177  1.00  0.00     0.074 A 
HETATM   19 CL1  UNL     1      22.894   6.929  46.543  1.00  0.00    -0.081 Cl
HETATM   20  C18 UNL     1      23.016   4.953  48.446  1.00  0.00     0.056 A 
ENDBRANCH  11  13
ENDBRANCH  10  11
ENDBRANCH   9  10
BRANCH   6  21
HETATM   21  O1  UNL     1      27.165  -0.518  54.109  1.00  0.00    -0.353 OA
HETATM   22  C6  UNL     1      28.292  -0.036  54.849  1.00  0.00     0.210 C 
ENDBRANCH   6  21
BRANCH   7  23
HETATM   23  O2  UNL     1      24.395  -0.701  54.254  1.00  0.00    -0.353 OA
HETATM   24  C8  UNL     1      23.015  -0.883  54.326  1.00  0.00     0.210 C 
ENDBRANCH   7  23
TORSDOF 5
ENDMDL
MODEL 9
REMARK VINA RESULT:      -6.8      5.059      7.423
REMARK  5 active torsions:
REMARK  status: ('A' for Active; 'I' for Inactive)
REMARK    1  A    between atoms: C5_6  and  O1_7 
REMARK    2  A    between atoms: C7_9  and  O2_10 
REMARK    3  A    between atoms: C10_13  and  C11_14 
REMARK    4  A    between atoms: C11_14  and  N2_15 
REMARK    5  A    between atoms: N2_15  and  C13_17 
ROOT
HETATM    1  C1  UNL     1      26.736   4.463  48.950  1.00  0.00     0.039 C 
HETATM    2  C2  UNL     1      26.796   3.658  49.838  1.00  0.00     0.024 C 
HETATM    3  N1  UNL     1      26.889   2.740  50.848  1.00  0.00    -0.198 NA
HETATM    4  C3  UNL     1      26.036   2.075  51.484  1.00  0.00     0.081 A 
HETATM    5  C4  UNL     1      26.806   1.257  52.458  1.00  0.00     0.073 A 
HETATM    6  C5  UNL     1      26.168   0.425  53.297  1.00  0.00     0.103 A 
HETATM    7  C7  UNL     1      24.723   0.296  53.283  1.00  0.00     0.102 A 
HETATM    8  C9  UNL     1      23.945   0.973  52.463  1.00  0.00     0.054 A 
HETATM    9  C10 UNL     1      24.600   1.883  51.541  1.00  0.00     0.012 A 
ENDROOT
BRANCH   9  10
HETATM   10  C11 UNL     1      23.973   2.610  50.683  1.00  0.00     0.104 C 
BRANCH  10  11
HETATM   11  N2  UNL     1      23.163   3.003  49.630  1.00  0.00    -0.360 N 
HETATM   12  C12 UNL     1      22.266   2.105  48.880  1.00  0.00     0.155 C 
BRANCH  11  13
HETATM   13  C13 UNL     1      23.176   4.387  49.210  1.00  0.00     0.035 A 
HETATM   14  C14 UNL     1      22.888   4.809  47.931  1.00  0.00     0.033 A 
HETATM   15  C15 UNL     1      22.910   6.135  47.565  1.00  0.00     0.046 A 
HETATM   16  C16 UNL     1      23.233   7.088  48.512  1.00  0.00     0.138 A 
HETATM   17  F1  UNL     1      23.234   8.372  48.081  1.00  0.00    -0.204 F 
HETATM   18  C17 UNL     1      23.528   6.719  49.799  1.00  0.00     0.074 A 
HETATM   19 CL1  UNL     1      23.931   7.966  50.962  1.00  0.00    -0.081 Cl
HETATM   20  C18 UNL     1      23.499   5.383  50.140  1.00  0.00     0.056 A 
ENDBRANCH  11  13
ENDBRANCH  10  11
ENDBRANCH   9  10
BRANCH   6  21
HETATM   21  O1  UNL     1      26.758  -0.393  54.251  1.00  0.00    -0.353 OA
HETATM   22  C6  UNL     1      27.934   0.042  54.943  1.00  0.00     0.210 C 
ENDBRANCH   6  21
BRANCH   7  23
HETATM   23  O2  UNL     1      23.986  -0.549  54.126  1.00  0.00    -0.353 OA
HETATM   24  C8  UNL     1      22.740  -1.091  53.813  1.00  0.00     0.210 C 
ENDBRANCH   7  23
TORSDOF 5
ENDMDL
