MODEL 1
REMARK VINA RESULT:      -8.3      0.000      0.000
REMARK  2 active torsions:
REMARK  status: ('A' for Active; 'I' for Inactive)
REMARK    1  A    between atoms: C2_2  and  O1_3 
REMARK    2  A    between atoms: O1_3  and  C3_4 
ROOT
HETATM    1  C3  UNL     1      26.201   0.003  53.645  1.00  0.00     0.107 A 
HETATM    2  C4  UNL     1      26.454   0.923  52.656  1.00  0.00     0.072 A 
HETATM    3  C5  UNL     1      25.347   1.548  52.134  1.00  0.00     0.075 A 
HETATM    4  C6  UNL     1      24.110   1.215  52.627  1.00  0.00     0.051 A 
HETATM    5  C7  UNL     1      23.885   0.287  53.621  1.00  0.00     0.119 A 
HETATM    6  C8  UNL     1      24.979  -0.352  54.159  1.00  0.00     0.136 A 
HETATM    7  O2  UNL     1      24.870  -1.306  55.165  1.00  0.00    -0.344 OA
HETATM    8  C9  UNL     1      23.598  -1.616  55.738  1.00  0.00     0.202 C 
HETATM    9  C10 UNL     1      22.474  -1.304  54.809  1.00  0.00     0.202 C 
HETATM   10  O3  UNL     1      22.635  -0.054  54.122  1.00  0.00    -0.345 OA
HETATM   11  C11 UNL     1      22.986   1.747  52.204  1.00  0.00     0.152 C 
HETATM   12  O4  UNL     1      22.057   2.505  51.522  1.00  0.00    -0.349 OA
HETATM   13  C12 UNL     1      22.419   3.210  50.349  1.00  0.00     0.174 C 
HETATM   14  C13 UNL     1      21.271   3.470  49.449  1.00  0.00     0.009 C 
HETATM   15  C14 UNL     1      21.608   3.896  48.219  1.00  0.00    -0.000 C 
HETATM   16  C15 UNL     1      22.864   4.698  48.102  1.00  0.00     0.012 C 
HETATM   17  P1  UNL     1      23.801   5.056  49.418  1.00  0.00    -0.051 P 
HETATM   18  C16 UNL     1      22.939   4.545  50.758  1.00  0.00     0.021 C 
HETATM   19  C17 UNL     1      25.571   4.520  49.409  1.00  0.00     0.192 C 
HETATM   20  N1  UNL     1      25.682   3.422  50.325  1.00  0.00    -0.273 N 
HETATM   21  C18 UNL     1      26.725   2.826  50.645  1.00  0.00     0.227 A 
HETATM   22  N2  UNL     1      25.505   2.410  51.220  1.00  0.00    -0.246 N 
ENDROOT
BRANCH   1  23
HETATM   23  O1  UNL     1      27.294  -0.645  54.193  1.00  0.00    -0.348 OA
BRANCH  23  24
HETATM   24  C2  UNL     1      28.531  -0.093  54.497  1.00  0.00     0.171 C 
HETATM   25  C1  UNL     1      29.704  -0.698  53.781  1.00  0.00     0.034 C 
ENDBRANCH  23  24
ENDBRANCH   1  23
TORSDOF 2
ENDMDL
MODEL 2
REMARK VINA RESULT:      -8.1      1.569      3.931
REMARK  2 active torsions:
REMARK  status: ('A' for Active; 'I' for Inactive)
REMARK    1  A    between atoms: C2_2  and  O1_3 
REMARK    2  A    between atoms: O1_3  and  C3_4 
ROOT
HETATM    1  C3  UNL     1      25.429  -0.241  53.903  1.00  0.00     0.107 A 
HETATM    2  C4  UNL     1      24.376   0.358  53.253  1.00  0.00     0.072 A 
HETATM    3  C5  UNL     1      24.715   1.364  52.382  1.00  0.00     0.075 A 
HETATM    4  C6  UNL     1      26.042   1.685  52.233  1.00  0.00     0.051 A 
HETATM    5  C7  UNL     1      27.079   1.067  52.898  1.00  0.00     0.119 A 
HETATM    6  C8  UNL     1      26.763   0.055  53.776  1.00  0.00     0.136 A 
HETATM    7  O2  UNL     1      27.727  -0.637  54.501  1.00  0.00    -0.344 OA
HETATM    8  C9  UNL     1      29.116  -0.364  54.308  1.00  0.00     0.202 C 
HETATM    9  C10 UNL     1      29.349   1.011  53.779  1.00  0.00     0.202 C 
HETATM   10  O3  UNL     1      28.422   1.388  52.751  1.00  0.00    -0.345 OA
HETATM   11  C11 UNL     1      26.482   2.627  51.430  1.00  0.00     0.152 C 
HETATM   12  O4  UNL     1      26.552   3.655  50.513  1.00  0.00    -0.349 OA
HETATM   13  C12 UNL     1      25.387   4.359  50.124  1.00  0.00     0.174 C 
HETATM   14  C13 UNL     1      25.672   5.727  49.633  1.00  0.00     0.009 C 
HETATM   15  C14 UNL     1      24.590   6.515  49.506  1.00  0.00    -0.000 C 
HETATM   16  C15 UNL     1      23.299   5.839  49.171  1.00  0.00     0.012 C 
HETATM   17  P1  UNL     1      23.195   4.201  48.960  1.00  0.00    -0.051 P 
HETATM   18  C16 UNL     1      24.767   3.628  48.984  1.00  0.00     0.021 C 
HETATM   19  C17 UNL     1      22.027   3.248  50.031  1.00  0.00     0.192 C 
HETATM   20  N1  UNL     1      22.824   2.517  50.974  1.00  0.00    -0.273 N 
HETATM   21  C18 UNL     1      22.410   1.710  51.824  1.00  0.00     0.227 A 
HETATM   22  N2  UNL     1      23.796   1.960  51.747  1.00  0.00    -0.246 N 
ENDROOT
BRANCH   1  23
HETATM   23  O1  UNL     1      25.122  -1.260  54.788  1.00  0.00    -0.348 OA
BRANCH  23  24
HETATM   24  C2  UNL     1      24.177  -1.233  55.805  1.00  0.00     0.171 C 
HETATM   25  C1  UNL     1      22.777  -1.592  55.399  1.00  0.00     0.034 C 
ENDBRANCH  23  24
ENDBRANCH   1  23
TORSDOF 2
ENDMDL
MODEL 3
REMARK VINA RESULT:      -8.0      2.158      4.243
REMARK  2 active torsions:
REMARK  status: ('A' for Active; 'I' for Inactive)
REMARK    1  A    between atoms: C2_2  and  O1_3 
REMARK    2  A    between atoms: O1_3  and  C3_4 
ROOT
HETATM    1  C3  UNL     1      23.595   0.201  53.324  1.00  0.00     0.107 A 
HETATM    2  C4  UNL     1      22.737   1.231  53.018  1.00  0.00     0.072 A 
HETATM    3  C5  UNL     1      23.284   2.257  52.287  1.00  0.00     0.075 A 
HETATM    4  C6  UNL     1      24.607   2.177  51.929  1.00  0.00     0.051 A 
HETATM    5  C7  UNL     1      25.446   1.131  52.251  1.00  0.00     0.119 A 
HETATM    6  C8  UNL     1      24.920   0.091  52.983  1.00  0.00     0.136 A 
HETATM    7  O2  UNL     1      25.673  -1.014  53.363  1.00  0.00    -0.344 OA
HETATM    8  C9  UNL     1      27.032  -1.147  52.942  1.00  0.00     0.202 C 
HETATM    9  C10 UNL     1      27.653   0.171  52.627  1.00  0.00     0.202 C 
HETATM   10  O3  UNL     1      26.785   1.047  51.891  1.00  0.00    -0.345 OA
HETATM   11  C11 UNL     1      25.234   3.097  51.232  1.00  0.00     0.152 C 
HETATM   12  O4  UNL     1      25.533   4.237  50.515  1.00  0.00    -0.349 OA
HETATM   13  C12 UNL     1      24.642   5.338  50.502  1.00  0.00     0.174 C 
HETATM   14  C13 UNL     1      25.314   6.626  50.211  1.00  0.00     0.009 C 
HETATM   15  C14 UNL     1      24.564   7.716  50.448  1.00  0.00    -0.000 C 
HETATM   16  C15 UNL     1      23.087   7.571  50.270  1.00  0.00     0.012 C 
HETATM   17  P1  UNL     1      22.396   6.142  49.799  1.00  0.00    -0.051 P 
HETATM   18  C16 UNL     1      23.661   5.122  49.401  1.00  0.00     0.021 C 
HETATM   19  C17 UNL     1      21.125   5.375  50.901  1.00  0.00     0.192 C 
HETATM   20  N1  UNL     1      21.738   4.234  51.519  1.00  0.00    -0.273 N 
HETATM   21  C18 UNL     1      21.188   3.419  52.280  1.00  0.00     0.227 A 
HETATM   22  N2  UNL     1      22.552   3.239  51.967  1.00  0.00    -0.246 N 
ENDROOT
BRANCH   1  23
HETATM   23  O1  UNL     1      23.076  -0.850  54.059  1.00  0.00    -0.348 OA
BRANCH  23  24
HETATM   24  C2  UNL     1      21.909  -0.851  54.813  1.00  0.00     0.171 C 
HETATM   25  C1  UNL     1      20.746  -1.580  54.205  1.00  0.00     0.034 C 
ENDBRANCH  23  24
ENDBRANCH   1  23
TORSDOF 2
ENDMDL
MODEL 4
REMARK VINA RESULT:      -7.9      1.138      1.325
REMARK  2 active torsions:
REMARK  status: ('A' for Active; 'I' for Inactive)
REMARK    1  A    between atoms: C2_2  and  O1_3 
REMARK    2  A    between atoms: O1_3  and  C3_4 
ROOT
HETATM    1  C3  UNL     1      25.202   0.085  53.004  1.00  0.00     0.107 A 
HETATM    2  C4  UNL     1      25.706   1.005  52.115  1.00  0.00     0.072 A 
HETATM    3  C5  UNL     1      24.809   1.939  51.659  1.00  0.00     0.075 A 
HETATM    4  C6  UNL     1      23.515   1.884  52.114  1.00  0.00     0.051 A 
HETATM    5  C7  UNL     1      23.035   0.949  53.007  1.00  0.00     0.119 A 
HETATM    6  C8  UNL     1      23.917   0.002  53.477  1.00  0.00     0.136 A 
HETATM    7  O2  UNL     1      23.543  -0.987  54.379  1.00  0.00    -0.344 OA
HETATM    8  C9  UNL     1      22.219  -1.019  54.916  1.00  0.00     0.202 C 
HETATM    9  C10 UNL     1      21.236  -0.341  54.024  1.00  0.00     0.202 C 
HETATM   10  O3  UNL     1      21.727   0.889  53.469  1.00  0.00    -0.345 OA
HETATM   11  C11 UNL     1      22.573   2.723  51.748  1.00  0.00     0.152 C 
HETATM   12  O4  UNL     1      21.884   3.756  51.147  1.00  0.00    -0.349 OA
HETATM   13  C12 UNL     1      22.445   4.460  50.053  1.00  0.00     0.174 C 
HETATM   14  C13 UNL     1      21.425   5.091  49.184  1.00  0.00     0.009 C 
HETATM   15  C14 UNL     1      21.891   5.538  48.005  1.00  0.00    -0.000 C 
HETATM   16  C15 UNL     1      23.312   6.002  47.972  1.00  0.00     0.012 C 
HETATM   17  P1  UNL     1      24.273   5.977  49.319  1.00  0.00    -0.051 P 
HETATM   18  C16 UNL     1      23.274   5.571  50.598  1.00  0.00     0.021 C 
HETATM   19  C17 UNL     1      25.850   5.013  49.256  1.00  0.00     0.192 C 
HETATM   20  N1  UNL     1      25.654   3.836  50.054  1.00  0.00    -0.273 N 
HETATM   21  C18 UNL     1      26.504   2.966  50.312  1.00  0.00     0.227 A 
HETATM   22  N2  UNL     1      25.204   2.819  50.839  1.00  0.00    -0.246 N 
ENDROOT
BRANCH   1  23
HETATM   23  O1  UNL     1      26.081  -0.871  53.483  1.00  0.00    -0.348 OA
BRANCH  23  24
HETATM   24  C2  UNL     1      27.150  -1.444  52.806  1.00  0.00     0.171 C 
HETATM   25  C1  UNL     1      28.513  -1.057  53.302  1.00  0.00     0.034 C 
ENDBRANCH  23  24
ENDBRANCH   1  23
TORSDOF 2
ENDMDL
MODEL 5
REMARK VINA RESULT:      -7.3      3.368      5.132
REMARK  2 active torsions:
REMARK  status: ('A' for Active; 'I' for Inactive)
REMARK    1  A    between atoms: C2_2  and  O1_3 
REMARK    2  A    between atoms: O1_3  and  C3_4 
ROOT
HETATM    1  C3  UNL     1      24.592   0.273  52.955  1.00  0.00     0.107 A 
HETATM    2  C4  UNL     1      23.334  -0.186  53.266  1.00  0.00     0.072 A 
HETATM    3  C5  UNL     1      22.304   0.393  52.566  1.00  0.00     0.075 A 
HETATM    4  C6  UNL     1      22.601   1.359  51.637  1.00  0.00     0.051 A 
HETATM    5  C7  UNL     1      23.874   1.801  51.344  1.00  0.00     0.119 A 
HETATM    6  C8  UNL     1      24.922   1.235  52.033  1.00  0.00     0.136 A 
HETATM    7  O2  UNL     1      26.246   1.604  51.820  1.00  0.00    -0.344 OA
HETATM    8  C9  UNL     1      26.580   2.557  50.809  1.00  0.00     0.202 C 
HETATM    9  C10 UNL     1      25.438   3.462  50.491  1.00  0.00     0.202 C 
HETATM   10  O3  UNL     1      24.179   2.778  50.405  1.00  0.00    -0.345 OA
HETATM   11  C11 UNL     1      21.700   1.979  50.911  1.00  0.00     0.152 C 
HETATM   12  O4  UNL     1      20.506   2.394  50.357  1.00  0.00    -0.349 OA
HETATM   13  C12 UNL     1      19.271   2.041  50.952  1.00  0.00     0.174 C 
HETATM   14  C13 UNL     1      18.178   2.986  50.626  1.00  0.00     0.009 C 
HETATM   15  C14 UNL     1      17.069   2.841  51.372  1.00  0.00    -0.000 C 
HETATM   16  C15 UNL     1      16.762   1.463  51.864  1.00  0.00     0.012 C 
HETATM   17  P1  UNL     1      17.732   0.169  51.510  1.00  0.00    -0.051 P 
HETATM   18  C16 UNL     1      18.857   0.720  50.401  1.00  0.00     0.021 C 
HETATM   19  C17 UNL     1      18.460  -0.795  52.910  1.00  0.00     0.192 C 
HETATM   20  N1  UNL     1      19.856  -0.470  52.962  1.00  0.00    -0.273 N 
HETATM   21  C18 UNL     1      20.703  -0.962  53.727  1.00  0.00     0.227 A 
HETATM   22  N2  UNL     1      21.117   0.017  52.800  1.00  0.00    -0.246 N 
ENDROOT
BRANCH   1  23
HETATM   23  O1  UNL     1      25.653  -0.290  53.641  1.00  0.00    -0.348 OA
BRANCH  23  24
HETATM   24  C2  UNL     1      26.246   0.183  54.804  1.00  0.00     0.171 C 
HETATM   25  C1  UNL     1      27.747   0.222  54.795  1.00  0.00     0.034 C 
ENDBRANCH  23  24
ENDBRANCH   1  23
TORSDOF 2
ENDMDL
MODEL 6
REMARK VINA RESULT:      -7.3      2.879      5.172
REMARK  2 active torsions:
REMARK  status: ('A' for Active; 'I' for Inactive)
REMARK    1  A    between atoms: C2_2  and  O1_3 
REMARK    2  A    between atoms: O1_3  and  C3_4 
ROOT
HETATM    1  C3  UNL     1      26.274   2.304  51.445  1.00  0.00     0.107 A 
HETATM    2  C4  UNL     1      25.226   1.603  51.994  1.00  0.00     0.072 A 
HETATM    3  C5  UNL     1      23.986   1.899  51.483  1.00  0.00     0.075 A 
HETATM    4  C6  UNL     1      23.891   2.843  50.491  1.00  0.00     0.051 A 
HETATM    5  C7  UNL     1      24.960   3.532  49.958  1.00  0.00     0.119 A 
HETATM    6  C8  UNL     1      26.213   3.252  50.455  1.00  0.00     0.136 A 
HETATM    7  O2  UNL     1      27.361   3.886  49.992  1.00  0.00    -0.344 OA
HETATM    8  C9  UNL     1      27.290   4.821  48.914  1.00  0.00     0.202 C 
HETATM    9  C10 UNL     1      25.936   5.433  48.791  1.00  0.00     0.202 C 
HETATM   10  O3  UNL     1      24.869   4.488  48.955  1.00  0.00    -0.345 OA
HETATM   11  C11 UNL     1      22.760   3.204  49.930  1.00  0.00     0.152 C 
HETATM   12  O4  UNL     1      21.426   3.314  49.596  1.00  0.00    -0.349 OA
HETATM   13  C12 UNL     1      20.425   2.740  50.417  1.00  0.00     0.174 C 
HETATM   14  C13 UNL     1      19.108   3.402  50.276  1.00  0.00     0.009 C 
HETATM   15  C14 UNL     1      18.208   3.068  51.218  1.00  0.00    -0.000 C 
HETATM   16  C15 UNL     1      18.311   1.691  51.792  1.00  0.00     0.012 C 
HETATM   17  P1  UNL     1      19.470   0.619  51.295  1.00  0.00    -0.051 P 
HETATM   18  C16 UNL     1      20.230   1.328  49.985  1.00  0.00     0.021 C 
HETATM   19  C17 UNL     1      20.629  -0.071  52.560  1.00  0.00     0.192 C 
HETATM   20  N1  UNL     1      21.904   0.552  52.345  1.00  0.00    -0.273 N 
HETATM   21  C18 UNL     1      22.960   0.306  52.952  1.00  0.00     0.227 A 
HETATM   22  N2  UNL     1      22.974   1.290  51.941  1.00  0.00    -0.246 N 
ENDROOT
BRANCH   1  23
HETATM   23  O1  UNL     1      27.538   2.030  51.937  1.00  0.00    -0.348 OA
BRANCH  23  24
HETATM   24  C2  UNL     1      27.970   2.146  53.251  1.00  0.00     0.171 C 
HETATM   25  C1  UNL     1      28.526   0.892  53.863  1.00  0.00     0.034 C 
ENDBRANCH  23  24
ENDBRANCH   1  23
TORSDOF 2
ENDMDL
MODEL 7
REMARK VINA RESULT:      -7.3      2.997      6.337
REMARK  2 active torsions:
REMARK  status: ('A' for Active; 'I' for Inactive)
REMARK    1  A    between atoms: C2_2  and  O1_3 
REMARK    2  A    between atoms: O1_3  and  C3_4 
ROOT
HETATM    1  C3  UNL     1      25.528   4.511  49.882  1.00  0.00     0.107 A 
HETATM    2  C4  UNL     1      25.720   3.514  50.809  1.00  0.00     0.072 A 
HETATM    3  C5  UNL     1      24.584   2.853  51.208  1.00  0.00     0.075 A 
HETATM    4  C6  UNL     1      23.380   3.229  50.667  1.00  0.00     0.051 A 
HETATM    5  C7  UNL     1      23.216   4.235  49.738  1.00  0.00     0.119 A 
HETATM    6  C8  UNL     1      24.341   4.911  49.323  1.00  0.00     0.136 A 
HETATM    7  O2  UNL     1      24.294   5.942  48.391  1.00  0.00    -0.344 OA
HETATM    8  C9  UNL     1      23.061   6.301  47.766  1.00  0.00     0.202 C 
HETATM    9  C10 UNL     1      21.881   5.920  48.594  1.00  0.00     0.202 C 
HETATM   10  O3  UNL     1      22.000   4.619  49.188  1.00  0.00    -0.345 OA
HETATM   11  C11 UNL     1      22.232   2.669  50.974  1.00  0.00     0.152 C 
HETATM   12  O4  UNL     1      21.262   1.863  51.533  1.00  0.00    -0.349 OA
HETATM   13  C12 UNL     1      21.551   1.065  52.667  1.00  0.00     0.174 C 
HETATM   14  C13 UNL     1      20.349   0.738  53.468  1.00  0.00     0.009 C 
HETATM   15  C14 UNL     1      20.608   0.214  54.679  1.00  0.00    -0.000 C 
HETATM   16  C15 UNL     1      21.855  -0.600  54.811  1.00  0.00     0.012 C 
HETATM   17  P1  UNL     1      22.874  -0.855  53.532  1.00  0.00    -0.051 P 
HETATM   18  C16 UNL     1      22.097  -0.236  52.186  1.00  0.00     0.021 C 
HETATM   19  C17 UNL     1      24.639  -0.328  53.695  1.00  0.00     0.192 C 
HETATM   20  N1  UNL     1      24.806   0.840  52.879  1.00  0.00    -0.273 N 
HETATM   21  C18 UNL     1      25.866   1.455  52.674  1.00  0.00     0.227 A 
HETATM   22  N2  UNL     1      24.685   1.920  52.059  1.00  0.00    -0.246 N 
ENDROOT
BRANCH   1  23
HETATM   23  O1  UNL     1      26.653   5.196  49.458  1.00  0.00    -0.348 OA
BRANCH  23  24
HETATM   24  C2  UNL     1      27.653   4.729  48.615  1.00  0.00     0.171 C 
HETATM   25  C1  UNL     1      28.717   5.727  48.257  1.00  0.00     0.034 C 
ENDBRANCH  23  24
ENDBRANCH   1  23
TORSDOF 2
ENDMDL
MODEL 8
REMARK VINA RESULT:      -7.2      2.850      7.625
REMARK  2 active torsions:
REMARK  status: ('A' for Active; 'I' for Inactive)
REMARK    1  A    between atoms: C2_2  and  O1_3 
REMARK    2  A    between atoms: O1_3  and  C3_4 
ROOT
HETATM    1  C3  UNL     1      23.300   4.728  48.962  1.00  0.00     0.107 A 
HETATM    2  C4  UNL     1      22.960   3.624  49.706  1.00  0.00     0.072 A 
HETATM    3  C5  UNL     1      23.985   3.055  50.422  1.00  0.00     0.075 A 
HETATM    4  C6  UNL     1      25.235   3.618  50.341  1.00  0.00     0.051 A 
HETATM    5  C7  UNL     1      25.549   4.728  49.585  1.00  0.00     0.119 A 
HETATM    6  C8  UNL     1      24.537   5.314  48.859  1.00  0.00     0.136 A 
HETATM    7  O2  UNL     1      24.739   6.436  48.063  1.00  0.00    -0.344 OA
HETATM    8  C9  UNL     1      26.016   7.076  48.019  1.00  0.00     0.202 C 
HETATM    9  C10 UNL     1      27.122   6.144  48.381  1.00  0.00     0.202 C 
HETATM   10  O3  UNL     1      26.811   5.300  49.499  1.00  0.00    -0.345 OA
HETATM   11  C11 UNL     1      26.287   3.160  50.980  1.00  0.00     0.152 C 
HETATM   12  O4  UNL     1      27.125   2.411  51.779  1.00  0.00    -0.349 OA
HETATM   13  C12 UNL     1      26.716   1.149  52.274  1.00  0.00     0.174 C 
HETATM   14  C13 UNL     1      27.852   0.254  52.592  1.00  0.00     0.009 C 
HETATM   15  C14 UNL     1      27.512  -1.029  52.809  1.00  0.00    -0.000 C 
HETATM   16  C15 UNL     1      26.159  -1.279  53.393  1.00  0.00     0.012 C 
HETATM   17  P1  UNL     1      25.122  -0.044  53.764  1.00  0.00    -0.051 P 
HETATM   18  C16 UNL     1      25.990   1.371  53.556  1.00  0.00     0.021 C 
HETATM   19  C17 UNL     1      23.452  -0.030  52.972  1.00  0.00     0.192 C 
HETATM   20  N1  UNL     1      23.462   1.015  51.989  1.00  0.00    -0.273 N 
HETATM   21  C18 UNL     1      22.503   1.382  51.287  1.00  0.00     0.227 A 
HETATM   22  N2  UNL     1      23.744   2.035  51.132  1.00  0.00    -0.246 N 
ENDROOT
BRANCH   1  23
HETATM   23  O1  UNL     1      22.290   5.326  48.229  1.00  0.00    -0.348 OA
BRANCH  23  24
HETATM   24  C2  UNL     1      21.713   4.857  47.056  1.00  0.00     0.171 C 
HETATM   25  C1  UNL     1      22.113   5.583  45.803  1.00  0.00     0.034 C 
ENDBRANCH  23  24
ENDBRANCH   1  23
TORSDOF 2
ENDMDL
MODEL 9
REMARK VINA RESULT:      -7.1      6.121      9.455
REMARK  2 active torsions:
REMARK  status: ('A' for Active; 'I' for Inactive)
REMARK    1  A    between atoms: C2_2  and  O1_3 
REMARK    2  A    between atoms: O1_3  and  C3_4 
ROOT
HETATM    1  C3  UNL     1      26.143   7.202  48.271  1.00  0.00     0.107 A 
HETATM    2  C4  UNL     1      27.189   7.982  47.839  1.00  0.00     0.072 A 
HETATM    3  C5  UNL     1      28.416   7.363  47.814  1.00  0.00     0.075 A 
HETATM    4  C6  UNL     1      28.499   6.052  48.211  1.00  0.00     0.051 A 
HETATM    5  C7  UNL     1      27.432   5.292  48.641  1.00  0.00     0.119 A 
HETATM    6  C8  UNL     1      26.193   5.891  48.675  1.00  0.00     0.136 A 
HETATM    7  O2  UNL     1      25.048   5.222  49.091  1.00  0.00    -0.344 OA
HETATM    8  C9  UNL     1      25.103   3.838  49.443  1.00  0.00     0.202 C 
HETATM    9  C10 UNL     1      26.470   3.421  49.868  1.00  0.00     0.202 C 
HETATM   10  O3  UNL     1      27.511   3.966  49.044  1.00  0.00    -0.345 OA
HETATM   11  C11 UNL     1      29.616   5.361  48.228  1.00  0.00     0.152 C 
HETATM   12  O4  UNL     1      30.937   4.982  48.111  1.00  0.00    -0.349 OA
HETATM   13  C12 UNL     1      31.953   5.949  47.916  1.00  0.00     0.174 C 
HETATM   14  C13 UNL     1      33.284   5.496  48.380  1.00  0.00     0.009 C 
HETATM   15  C14 UNL     1      34.212   6.466  48.457  1.00  0.00    -0.000 C 
HETATM   16  C15 UNL     1      34.089   7.597  47.487  1.00  0.00     0.012 C 
HETATM   17  P1  UNL     1      32.874   7.661  46.364  1.00  0.00    -0.051 P 
HETATM   18  C16 UNL     1      32.082   6.190  46.451  1.00  0.00     0.021 C 
HETATM   19  C17 UNL     1      31.748   9.127  46.369  1.00  0.00     0.192 C 
HETATM   20  N1  UNL     1      30.487   8.687  46.892  1.00  0.00    -0.273 N 
HETATM   21  C18 UNL     1      29.450   9.365  46.995  1.00  0.00     0.227 A 
HETATM   22  N2  UNL     1      29.425   8.021  47.424  1.00  0.00    -0.246 N 
ENDROOT
BRANCH   1  23
HETATM   23  O1  UNL     1      24.893   7.795  48.308  1.00  0.00    -0.348 OA
BRANCH  23  24
HETATM   24  C2  UNL     1      24.425   8.710  49.242  1.00  0.00     0.171 C 
HETATM   25  C1  UNL     1      23.578   8.137  50.341  1.00  0.00     0.034 C 
ENDBRANCH  23  24
ENDBRANCH   1  23
TORSDOF 2
ENDMDL
