MODEL 1
REMARK VINA RESULT:      -7.6      0.000      0.000
REMARK  8 active torsions:
REMARK  status: ('A' for Active; 'I' for Inactive)
REMARK    1  A    between atoms: O1_2  and  C2_3 
REMARK    2  A    between atoms: C3_4  and  C4_5 
REMARK    3  A    between atoms: C3_4  and  C9_11 
REMARK    4  A    between atoms: C4_5  and  C5_6 
REMARK    5  A    between atoms: C6_7  and  C7_8 
REMARK    6  A    between atoms: C8_9  and  O2_10 
REMARK    7  A    between atoms: C9_11  and  N1_12 
REMARK    8  A    between atoms: N1_12  and  C10_13 
ROOT
HETATM    1  N1  UNL     1      23.118   2.892  52.142  1.00  0.00    -0.370 N 
HETATM    2  H12 UNL     1      23.552   3.338  52.965  1.00  0.00     0.161 HD
ENDROOT
BRANCH   1   3
HETATM    3  C9  UNL     1      23.956   2.893  50.949  1.00  0.00     0.157 C 
BRANCH   3   4
HETATM    4  C3  UNL     1      25.386   2.705  51.315  1.00  0.00    -0.037 C 
HETATM    5  C2  UNL     1      26.423   3.017  50.553  1.00  0.00     0.138 C 
BRANCH   5   6
HETATM    6  O1  UNL     1      26.732   3.549  49.320  1.00  0.00    -0.368 OA
HETATM    7  C1  UNL     1      26.596   4.929  49.017  1.00  0.00     0.208 C 
ENDBRANCH   5   6
BRANCH   4   8
HETATM    8  C4  UNL     1      25.483   2.104  52.686  1.00  0.00     0.065 C 
BRANCH   8   9
HETATM    9  C5  UNL     1      26.418   0.949  52.711  1.00  0.00    -0.013 C 
HETATM   10  C6  UNL     1      25.995  -0.291  52.773  1.00  0.00     0.063 C 
BRANCH  10  11
HETATM   11  C7  UNL     1      26.845  -1.449  52.800  1.00  0.00    -0.049 C 
HETATM   12  C8  UNL     1      27.569  -2.411  52.818  1.00  0.00     0.056 C 
BRANCH  12  13
HETATM   13  O2  UNL     1      28.392  -3.519  52.820  1.00  0.00    -0.314 OA
HETATM   14  H9  UNL     1      28.796  -3.824  51.932  1.00  0.00     0.230 HD
ENDBRANCH  12  13
ENDBRANCH  10  11
ENDBRANCH   8   9
ENDBRANCH   4   8
ENDBRANCH   3   4
ENDBRANCH   1   3
BRANCH   1  15
HETATM   15  C10 UNL     1      21.823   2.299  52.062  1.00  0.00     0.137 A 
HETATM   16  N2  UNL     1      20.879   2.836  51.301  1.00  0.00    -0.224 NA
HETATM   17  C11 UNL     1      19.651   2.305  51.202  1.00  0.00     0.236 A 
HETATM   18  N3  UNL     1      19.297   1.188  51.871  1.00  0.00    -0.241 NA
HETATM   19  C12 UNL     1      20.211   0.593  52.662  1.00  0.00     0.078 A 
HETATM   20  C13 UNL     1      19.891  -0.549  53.363  1.00  0.00    -0.032 A 
HETATM   21  C19 UNL     1      21.446   1.160  52.738  1.00  0.00     0.039 A 
HETATM   22  C14 UNL     1      18.503  -1.076  53.198  1.00  0.00     0.050 C 
HETATM   23  C15 UNL     1      20.819  -1.176  54.182  1.00  0.00     0.015 A 
HETATM   24  C16 UNL     1      22.065  -0.608  54.263  1.00  0.00    -0.060 A 
HETATM   25  C17 UNL     1      23.034  -1.302  55.147  1.00  0.00     0.048 C 
HETATM   26  C18 UNL     1      22.361   0.534  53.553  1.00  0.00     0.024 A 
ENDBRANCH   1  15
TORSDOF 8
ENDMDL
MODEL 2
REMARK VINA RESULT:      -7.2      3.255      5.811
REMARK  8 active torsions:
REMARK  status: ('A' for Active; 'I' for Inactive)
REMARK    1  A    between atoms: O1_2  and  C2_3 
REMARK    2  A    between atoms: C3_4  and  C4_5 
REMARK    3  A    between atoms: C3_4  and  C9_11 
REMARK    4  A    between atoms: C4_5  and  C5_6 
REMARK    5  A    between atoms: C6_7  and  C7_8 
REMARK    6  A    between atoms: C8_9  and  O2_10 
REMARK    7  A    between atoms: C9_11  and  N1_12 
REMARK    8  A    between atoms: N1_12  and  C10_13 
ROOT
HETATM    1  N1  UNL     1      26.554   3.935  50.502  1.00  0.00    -0.370 N 
HETATM    2  H12 UNL     1      27.386   4.227  51.038  1.00  0.00     0.161 HD
ENDROOT
BRANCH   1   3
HETATM    3  C9  UNL     1      26.523   4.428  49.130  1.00  0.00     0.157 C 
BRANCH   3   4
HETATM    4  C3  UNL     1      26.626   5.912  49.106  1.00  0.00    -0.037 C 
HETATM    5  C2  UNL     1      25.903   6.746  49.838  1.00  0.00     0.138 C 
BRANCH   5   6
HETATM    6  O1  UNL     1      24.908   6.757  50.791  1.00  0.00    -0.368 OA
HETATM    7  C1  UNL     1      23.727   7.534  50.667  1.00  0.00     0.208 C 
ENDBRANCH   5   6
BRANCH   4   8
HETATM    8  C4  UNL     1      27.677   6.331  48.121  1.00  0.00     0.065 C 
BRANCH   8   9
HETATM    9  C5  UNL     1      28.912   5.517  48.263  1.00  0.00    -0.013 C 
HETATM   10  C6  UNL     1      30.092   5.971  47.913  1.00  0.00     0.063 C 
BRANCH  10  11
HETATM   11  C7  UNL     1      31.322   5.237  48.025  1.00  0.00    -0.049 C 
HETATM   12  C8  UNL     1      32.361   4.634  48.114  1.00  0.00     0.056 C 
BRANCH  12  13
HETATM   13  O2  UNL     1      33.548   3.935  48.197  1.00  0.00    -0.314 OA
HETATM   14  H9  UNL     1      33.530   2.928  48.022  1.00  0.00     0.230 HD
ENDBRANCH  12  13
ENDBRANCH  10  11
ENDBRANCH   8   9
ENDBRANCH   4   8
ENDBRANCH   3   4
ENDBRANCH   1   3
BRANCH   1  15
HETATM   15  C10 UNL     1      25.472   3.126  50.957  1.00  0.00     0.137 A 
HETATM   16  N2  UNL     1      24.219   3.434  50.649  1.00  0.00    -0.224 NA
HETATM   17  C11 UNL     1      23.177   2.696  51.060  1.00  0.00     0.236 A 
HETATM   18  N3  UNL     1      23.337   1.590  51.816  1.00  0.00    -0.241 NA
HETATM   19  C12 UNL     1      24.585   1.220  52.165  1.00  0.00     0.078 A 
HETATM   20  C13 UNL     1      24.792   0.098  52.935  1.00  0.00    -0.032 A 
HETATM   21  C19 UNL     1      25.617   1.994  51.730  1.00  0.00     0.039 A 
HETATM   22  C14 UNL     1      23.580  -0.669  53.352  1.00  0.00     0.050 C 
HETATM   23  C15 UNL     1      26.070  -0.298  53.304  1.00  0.00     0.015 A 
HETATM   24  C16 UNL     1      27.114   0.478  52.869  1.00  0.00    -0.060 A 
HETATM   25  C17 UNL     1      28.468   0.029  53.280  1.00  0.00     0.048 C 
HETATM   26  C18 UNL     1      26.882   1.596  52.099  1.00  0.00     0.024 A 
ENDBRANCH   1  15
TORSDOF 8
ENDMDL
MODEL 3
REMARK VINA RESULT:      -7.2      2.059      2.727
REMARK  8 active torsions:
REMARK  status: ('A' for Active; 'I' for Inactive)
REMARK    1  A    between atoms: O1_2  and  C2_3 
REMARK    2  A    between atoms: C3_4  and  C4_5 
REMARK    3  A    between atoms: C3_4  and  C9_11 
REMARK    4  A    between atoms: C4_5  and  C5_6 
REMARK    5  A    between atoms: C6_7  and  C7_8 
REMARK    6  A    between atoms: C8_9  and  O2_10 
REMARK    7  A    between atoms: C9_11  and  N1_12 
REMARK    8  A    between atoms: N1_12  and  C10_13 
ROOT
HETATM    1  N1  UNL     1      23.302   3.565  51.584  1.00  0.00    -0.370 N 
HETATM    2  H12 UNL     1      24.000   4.068  52.154  1.00  0.00     0.161 HD
ENDROOT
BRANCH   1   3
HETATM    3  C9  UNL     1      23.439   3.777  50.147  1.00  0.00     0.157 C 
BRANCH   3   4
HETATM    4  C3  UNL     1      24.846   4.113  49.800  1.00  0.00    -0.037 C 
HETATM    5  C2  UNL     1      25.293   5.317  49.477  1.00  0.00     0.138 C 
BRANCH   5   6
HETATM    6  O1  UNL     1      24.864   6.616  49.310  1.00  0.00    -0.368 OA
HETATM    7  C1  UNL     1      25.240   7.672  50.181  1.00  0.00     0.208 C 
ENDBRANCH   5   6
BRANCH   4   8
HETATM    8  C4  UNL     1      25.693   2.878  49.870  1.00  0.00     0.065 C 
BRANCH   8   9
HETATM    9  C5  UNL     1      26.771   3.012  50.885  1.00  0.00    -0.013 C 
HETATM   10  C6  UNL     1      26.903   2.168  51.880  1.00  0.00     0.063 C 
BRANCH  10  11
HETATM   11  C7  UNL     1      27.920   2.241  52.891  1.00  0.00    -0.049 C 
HETATM   12  C8  UNL     1      28.766   2.314  53.747  1.00  0.00     0.056 C 
BRANCH  12  13
HETATM   13  O2  UNL     1      29.745   2.410  54.714  1.00  0.00    -0.314 OA
HETATM   14  H9  UNL     1      29.996   1.568  55.236  1.00  0.00     0.230 HD
ENDBRANCH  12  13
ENDBRANCH  10  11
ENDBRANCH   8   9
ENDBRANCH   4   8
ENDBRANCH   3   4
ENDBRANCH   1   3
BRANCH   1  15
HETATM   15  C10 UNL     1      22.256   2.714  52.047  1.00  0.00     0.137 A 
HETATM   16  N2  UNL     1      20.985   3.061  51.898  1.00  0.00    -0.224 NA
HETATM   17  C11 UNL     1      19.975   2.286  52.322  1.00  0.00     0.236 A 
HETATM   18  N3  UNL     1      20.189   1.101  52.930  1.00  0.00    -0.241 NA
HETATM   19  C12 UNL     1      21.459   0.689  53.113  1.00  0.00     0.078 A 
HETATM   20  C13 UNL     1      21.721  -0.515  53.729  1.00  0.00    -0.032 A 
HETATM   21  C19 UNL     1      22.457   1.502  52.670  1.00  0.00     0.039 A 
HETATM   22  C14 UNL     1      20.542  -1.318  54.172  1.00  0.00     0.050 C 
HETATM   23  C15 UNL     1      23.021  -0.956  53.926  1.00  0.00     0.015 A 
HETATM   24  C16 UNL     1      24.031  -0.140  53.482  1.00  0.00    -0.060 A 
HETATM   25  C17 UNL     1      25.411  -0.639  53.707  1.00  0.00     0.048 C 
HETATM   26  C18 UNL     1      23.745   1.059  52.869  1.00  0.00     0.024 A 
ENDBRANCH   1  15
TORSDOF 8
ENDMDL
MODEL 4
REMARK VINA RESULT:      -7.2      1.895      2.553
REMARK  8 active torsions:
REMARK  status: ('A' for Active; 'I' for Inactive)
REMARK    1  A    between atoms: O1_2  and  C2_3 
REMARK    2  A    between atoms: C3_4  and  C4_5 
REMARK    3  A    between atoms: C3_4  and  C9_11 
REMARK    4  A    between atoms: C4_5  and  C5_6 
REMARK    5  A    between atoms: C6_7  and  C7_8 
REMARK    6  A    between atoms: C8_9  and  O2_10 
REMARK    7  A    between atoms: C9_11  and  N1_12 
REMARK    8  A    between atoms: N1_12  and  C10_13 
ROOT
HETATM    1  N1  UNL     1      23.998   4.183  52.167  1.00  0.00    -0.370 N 
HETATM    2  H12 UNL     1      24.684   4.311  52.927  1.00  0.00     0.161 HD
ENDROOT
BRANCH   1   3
HETATM    3  C9  UNL     1      24.425   4.721  50.880  1.00  0.00     0.157 C 
BRANCH   3   4
HETATM    4  C3  UNL     1      24.833   3.622  49.963  1.00  0.00    -0.037 C 
HETATM    5  C2  UNL     1      24.025   2.953  49.156  1.00  0.00     0.138 C 
BRANCH   5   6
HETATM    6  O1  UNL     1      22.702   2.880  48.775  1.00  0.00    -0.368 OA
HETATM    7  C1  UNL     1      21.902   1.724  48.977  1.00  0.00     0.208 C 
ENDBRANCH   5   6
BRANCH   4   8
HETATM    8  C4  UNL     1      26.308   3.379  50.090  1.00  0.00     0.065 C 
BRANCH   8   9
HETATM    9  C5  UNL     1      26.598   2.258  51.021  1.00  0.00    -0.013 C 
HETATM   10  C6  UNL     1      27.327   2.416  52.100  1.00  0.00     0.063 C 
BRANCH  10  11
HETATM   11  C7  UNL     1      27.643   1.376  53.038  1.00  0.00    -0.049 C 
HETATM   12  C8  UNL     1      27.916   0.514  53.834  1.00  0.00     0.056 C 
BRANCH  12  13
HETATM   13  O2  UNL     1      28.245  -0.480  54.734  1.00  0.00    -0.314 OA
HETATM   14  H9  UNL     1      27.632  -0.628  55.538  1.00  0.00     0.230 HD
ENDBRANCH  12  13
ENDBRANCH  10  11
ENDBRANCH   8   9
ENDBRANCH   4   8
ENDBRANCH   3   4
ENDBRANCH   1   3
BRANCH   1  15
HETATM   15  C10 UNL     1      22.720   3.557  52.251  1.00  0.00     0.137 A 
HETATM   16  N2  UNL     1      21.613   4.240  51.991  1.00  0.00    -0.224 NA
HETATM   17  C11 UNL     1      20.395   3.683  52.061  1.00  0.00     0.236 A 
HETATM   18  N3  UNL     1      20.216   2.389  52.399  1.00  0.00    -0.241 NA
HETATM   19  C12 UNL     1      21.301   1.639  52.675  1.00  0.00     0.078 A 
HETATM   20  C13 UNL     1      21.164   0.314  53.025  1.00  0.00    -0.032 A 
HETATM   21  C19 UNL     1      22.521   2.238  52.595  1.00  0.00     0.039 A 
HETATM   22  C14 UNL     1      19.774  -0.230  53.079  1.00  0.00     0.050 C 
HETATM   23  C15 UNL     1      22.269  -0.474  53.312  1.00  0.00     0.015 A 
HETATM   24  C16 UNL     1      23.500   0.124  53.233  1.00  0.00    -0.060 A 
HETATM   25  C17 UNL     1      24.662  -0.745  53.547  1.00  0.00     0.048 C 
HETATM   26  C18 UNL     1      23.613   1.451  52.882  1.00  0.00     0.024 A 
ENDBRANCH   1  15
TORSDOF 8
ENDMDL
MODEL 5
REMARK VINA RESULT:      -7.1      1.866      3.144
REMARK  8 active torsions:
REMARK  status: ('A' for Active; 'I' for Inactive)
REMARK    1  A    between atoms: O1_2  and  C2_3 
REMARK    2  A    between atoms: C3_4  and  C4_5 
REMARK    3  A    between atoms: C3_4  and  C9_11 
REMARK    4  A    between atoms: C4_5  and  C5_6 
REMARK    5  A    between atoms: C6_7  and  C7_8 
REMARK    6  A    between atoms: C8_9  and  O2_10 
REMARK    7  A    between atoms: C9_11  and  N1_12 
REMARK    8  A    between atoms: N1_12  and  C10_13 
ROOT
HETATM    1  N1  UNL     1      23.016   1.400  52.965  1.00  0.00    -0.370 N 
HETATM    2  H12 UNL     1      22.882   2.409  53.135  1.00  0.00     0.161 HD
ENDROOT
BRANCH   1   3
HETATM    3  C9  UNL     1      24.154   1.083  52.109  1.00  0.00     0.157 C 
BRANCH   3   4
HETATM    4  C3  UNL     1      24.831   2.329  51.658  1.00  0.00    -0.037 C 
HETATM    5  C2  UNL     1      24.223   3.430  51.247  1.00  0.00     0.138 C 
BRANCH   5   6
HETATM    6  O1  UNL     1      22.964   3.953  51.043  1.00  0.00    -0.368 OA
HETATM    7  C1  UNL     1      22.443   5.034  51.801  1.00  0.00     0.208 C 
ENDBRANCH   5   6
BRANCH   4   8
HETATM    8  C4  UNL     1      26.319   2.153  51.737  1.00  0.00     0.065 C 
BRANCH   8   9
HETATM    9  C5  UNL     1      26.693   0.722  51.878  1.00  0.00    -0.013 C 
HETATM   10  C6  UNL     1      27.526   0.304  52.802  1.00  0.00     0.063 C 
BRANCH  10  11
HETATM   11  C7  UNL     1      27.926  -1.062  52.991  1.00  0.00    -0.049 C 
HETATM   12  C8  UNL     1      28.248  -2.213  53.146  1.00  0.00     0.056 C 
BRANCH  12  13
HETATM   13  O2  UNL     1      28.615  -3.528  53.345  1.00  0.00    -0.314 OA
HETATM   14  H9  UNL     1      27.878  -4.233  53.400  1.00  0.00     0.230 HD
ENDBRANCH  12  13
ENDBRANCH  10  11
ENDBRANCH   8   9
ENDBRANCH   4   8
ENDBRANCH   3   4
ENDBRANCH   1   3
BRANCH   1  15
HETATM   15  C10 UNL     1      22.224   0.325  53.466  1.00  0.00     0.137 A 
HETATM   16  N2  UNL     1      22.722  -0.527  54.352  1.00  0.00    -0.224 NA
HETATM   17  C11 UNL     1      22.005  -1.549  54.844  1.00  0.00     0.236 A 
HETATM   18  N3  UNL     1      20.729  -1.776  54.470  1.00  0.00    -0.241 NA
HETATM   19  C12 UNL     1      20.163  -0.945  53.572  1.00  0.00     0.078 A 
HETATM   20  C13 UNL     1      18.863  -1.141  53.162  1.00  0.00    -0.032 A 
HETATM   21  C19 UNL     1      20.920   0.080  53.094  1.00  0.00     0.039 A 
HETATM   22  C14 UNL     1      18.134  -2.300  53.758  1.00  0.00     0.050 C 
HETATM   23  C15 UNL     1      18.263  -0.296  52.240  1.00  0.00     0.015 A 
HETATM   24  C16 UNL     1      19.021   0.739  51.754  1.00  0.00    -0.060 A 
HETATM   25  C17 UNL     1      18.352   1.624  50.769  1.00  0.00     0.048 C 
HETATM   26  C18 UNL     1      20.319   0.914  52.179  1.00  0.00     0.024 A 
ENDBRANCH   1  15
TORSDOF 8
ENDMDL
MODEL 6
REMARK VINA RESULT:      -7.1      3.095      7.074
REMARK  8 active torsions:
REMARK  status: ('A' for Active; 'I' for Inactive)
REMARK    1  A    between atoms: O1_2  and  C2_3 
REMARK    2  A    between atoms: C3_4  and  C4_5 
REMARK    3  A    between atoms: C3_4  and  C9_11 
REMARK    4  A    between atoms: C4_5  and  C5_6 
REMARK    5  A    between atoms: C6_7  and  C7_8 
REMARK    6  A    between atoms: C8_9  and  O2_10 
REMARK    7  A    between atoms: C9_11  and  N1_12 
REMARK    8  A    between atoms: N1_12  and  C10_13 
ROOT
HETATM    1  N1  UNL     1      22.588  -0.131  52.657  1.00  0.00    -0.370 N 
HETATM    2  H12 UNL     1      22.476  -0.458  51.685  1.00  0.00     0.161 HD
ENDROOT
BRANCH   1   3
HETATM    3  C9  UNL     1      21.424   0.568  53.190  1.00  0.00     0.157 C 
BRANCH   3   4
HETATM    4  C3  UNL     1      20.376   0.712  52.143  1.00  0.00    -0.037 C 
HETATM    5  C2  UNL     1      19.170   0.168  52.182  1.00  0.00     0.138 C 
BRANCH   5   6
HETATM    6  O1  UNL     1      18.373  -0.629  52.975  1.00  0.00    -0.368 OA
HETATM    7  C1  UNL     1      17.137  -1.170  52.534  1.00  0.00     0.208 C 
ENDBRANCH   5   6
BRANCH   4   8
HETATM    8  C4  UNL     1      20.891   1.570  51.026  1.00  0.00     0.065 C 
BRANCH   8   9
HETATM    9  C5  UNL     1      21.510   2.820  51.539  1.00  0.00    -0.013 C 
HETATM   10  C6  UNL     1      22.547   3.376  50.960  1.00  0.00     0.063 C 
BRANCH  10  11
HETATM   11  C7  UNL     1      23.190   4.580  51.405  1.00  0.00    -0.049 C 
HETATM   12  C8  UNL     1      23.740   5.590  51.767  1.00  0.00     0.056 C 
BRANCH  12  13
HETATM   13  O2  UNL     1      24.380   6.734  52.197  1.00  0.00    -0.314 OA
HETATM   14  H9  UNL     1      24.940   7.259  51.523  1.00  0.00     0.230 HD
ENDBRANCH  12  13
ENDBRANCH  10  11
ENDBRANCH   8   9
ENDBRANCH   4   8
ENDBRANCH   3   4
ENDBRANCH   1   3
BRANCH   1  15
HETATM   15  C10 UNL     1      23.728  -0.289  53.498  1.00  0.00     0.137 A 
HETATM   16  N2  UNL     1      23.663  -1.031  54.596  1.00  0.00    -0.224 NA
HETATM   17  C11 UNL     1      24.716  -1.201  55.410  1.00  0.00     0.236 A 
HETATM   18  N3  UNL     1      25.912  -0.627  55.164  1.00  0.00    -0.241 NA
HETATM   19  C12 UNL     1      26.046   0.140  54.064  1.00  0.00     0.078 A 
HETATM   20  C13 UNL     1      27.249   0.744  53.775  1.00  0.00    -0.032 A 
HETATM   21  C19 UNL     1      24.956   0.290  53.261  1.00  0.00     0.039 A 
HETATM   22  C14 UNL     1      28.372   0.505  54.731  1.00  0.00     0.050 C 
HETATM   23  C15 UNL     1      27.406   1.537  52.647  1.00  0.00     0.015 A 
HETATM   24  C16 UNL     1      26.311   1.692  51.836  1.00  0.00    -0.060 A 
HETATM   25  C17 UNL     1      26.510   2.545  50.637  1.00  0.00     0.048 C 
HETATM   26  C18 UNL     1      25.118   1.078  52.145  1.00  0.00     0.024 A 
ENDBRANCH   1  15
TORSDOF 8
ENDMDL
MODEL 7
REMARK VINA RESULT:      -7.0      2.633      5.003
REMARK  8 active torsions:
REMARK  status: ('A' for Active; 'I' for Inactive)
REMARK    1  A    between atoms: O1_2  and  C2_3 
REMARK    2  A    between atoms: C3_4  and  C4_5 
REMARK    3  A    between atoms: C3_4  and  C9_11 
REMARK    4  A    between atoms: C4_5  and  C5_6 
REMARK    5  A    between atoms: C6_7  and  C7_8 
REMARK    6  A    between atoms: C8_9  and  O2_10 
REMARK    7  A    between atoms: C9_11  and  N1_12 
REMARK    8  A    between atoms: N1_12  and  C10_13 
ROOT
HETATM    1  N1  UNL     1      24.170   4.216  51.964  1.00  0.00    -0.370 N 
HETATM    2  H12 UNL     1      24.944   4.457  52.602  1.00  0.00     0.161 HD
ENDROOT
BRANCH   1   3
HETATM    3  C9  UNL     1      24.297   4.787  50.628  1.00  0.00     0.157 C 
BRANCH   3   4
HETATM    4  C3  UNL     1      24.597   3.722  49.632  1.00  0.00    -0.037 C 
HETATM    5  C2  UNL     1      23.697   3.004  48.979  1.00  0.00     0.138 C 
BRANCH   5   6
HETATM    6  O1  UNL     1      22.335   2.842  48.851  1.00  0.00    -0.368 OA
HETATM    7  C1  UNL     1      21.683   1.596  49.043  1.00  0.00     0.208 C 
ENDBRANCH   5   6
BRANCH   4   8
HETATM    8  C4  UNL     1      26.082   3.580  49.475  1.00  0.00     0.065 C 
BRANCH   8   9
HETATM    9  C5  UNL     1      26.712   4.860  49.060  1.00  0.00    -0.013 C 
HETATM   10  C6  UNL     1      27.918   4.912  48.546  1.00  0.00     0.063 C 
BRANCH  10  11
HETATM   11  C7  UNL     1      28.582   6.114  48.126  1.00  0.00    -0.049 C 
HETATM   12  C8  UNL     1      29.150   7.114  47.768  1.00  0.00     0.056 C 
BRANCH  12  13
HETATM   13  O2  UNL     1      29.809   8.263  47.378  1.00  0.00    -0.314 OA
HETATM   14  H9  UNL     1      30.540   8.633  47.988  1.00  0.00     0.230 HD
ENDBRANCH  12  13
ENDBRANCH  10  11
ENDBRANCH   8   9
ENDBRANCH   4   8
ENDBRANCH   3   4
ENDBRANCH   1   3
BRANCH   1  15
HETATM   15  C10 UNL     1      23.029   3.412  52.253  1.00  0.00     0.137 A 
HETATM   16  N2  UNL     1      21.806   3.918  52.173  1.00  0.00    -0.224 NA
HETATM   17  C11 UNL     1      20.710   3.190  52.437  1.00  0.00     0.236 A 
HETATM   18  N3  UNL     1      20.782   1.894  52.803  1.00  0.00    -0.241 NA
HETATM   19  C12 UNL     1      21.996   1.318  52.903  1.00  0.00     0.078 A 
HETATM   20  C13 UNL     1      22.115  -0.003  53.274  1.00  0.00    -0.032 A 
HETATM   21  C19 UNL     1      23.085   2.087  52.628  1.00  0.00     0.039 A 
HETATM   22  C14 UNL     1      20.847  -0.743  53.551  1.00  0.00     0.050 C 
HETATM   23  C15 UNL     1      23.356  -0.613  53.383  1.00  0.00     0.015 A 
HETATM   24  C16 UNL     1      24.457   0.158  53.106  1.00  0.00    -0.060 A 
HETATM   25  C17 UNL     1      25.770  -0.523  53.232  1.00  0.00     0.048 C 
HETATM   26  C18 UNL     1      24.313   1.477  52.738  1.00  0.00     0.024 A 
ENDBRANCH   1  15
TORSDOF 8
ENDMDL
MODEL 8
REMARK VINA RESULT:      -7.0      2.086      4.729
REMARK  8 active torsions:
REMARK  status: ('A' for Active; 'I' for Inactive)
REMARK    1  A    between atoms: O1_2  and  C2_3 
REMARK    2  A    between atoms: C3_4  and  C4_5 
REMARK    3  A    between atoms: C3_4  and  C9_11 
REMARK    4  A    between atoms: C4_5  and  C5_6 
REMARK    5  A    between atoms: C6_7  and  C7_8 
REMARK    6  A    between atoms: C8_9  and  O2_10 
REMARK    7  A    between atoms: C9_11  and  N1_12 
REMARK    8  A    between atoms: N1_12  and  C10_13 
ROOT
HETATM    1  N1  UNL     1      24.464  -0.658  53.194  1.00  0.00    -0.370 N 
HETATM    2  H12 UNL     1      25.003  -0.653  52.314  1.00  0.00     0.161 HD
ENDROOT
BRANCH   1   3
HETATM    3  C9  UNL     1      25.285  -0.622  54.399  1.00  0.00     0.157 C 
BRANCH   3   4
HETATM    4  C3  UNL     1      26.405   0.345  54.239  1.00  0.00    -0.037 C 
HETATM    5  C2  UNL     1      27.686   0.028  54.133  1.00  0.00     0.138 C 
BRANCH   5   6
HETATM    6  O1  UNL     1      28.527  -1.063  54.111  1.00  0.00    -0.368 OA
HETATM    7  C1  UNL     1      29.878  -0.990  53.682  1.00  0.00     0.208 C 
ENDBRANCH   5   6
BRANCH   4   8
HETATM    8  C4  UNL     1      25.866   1.744  54.216  1.00  0.00     0.065 C 
BRANCH   8   9
HETATM    9  C5  UNL     1      26.395   2.514  53.060  1.00  0.00    -0.013 C 
HETATM   10  C6  UNL     1      25.889   2.402  51.855  1.00  0.00     0.063 C 
BRANCH  10  11
HETATM   11  C7  UNL     1      26.354   3.115  50.699  1.00  0.00    -0.049 C 
HETATM   12  C8  UNL     1      26.758   3.712  49.733  1.00  0.00     0.056 C 
BRANCH  12  13
HETATM   13  O2  UNL     1      27.216   4.415  48.637  1.00  0.00    -0.314 OA
HETATM   14  H9  UNL     1      27.847   3.942  47.988  1.00  0.00     0.230 HD
ENDBRANCH  12  13
ENDBRANCH  10  11
ENDBRANCH   8   9
ENDBRANCH   4   8
ENDBRANCH   3   4
ENDBRANCH   1   3
BRANCH   1  15
HETATM   15  C10 UNL     1      23.046  -0.697  53.339  1.00  0.00     0.137 A 
HETATM   16  N2  UNL     1      22.487  -1.343  54.354  1.00  0.00    -0.224 NA
HETATM   17  C11 UNL     1      21.157  -1.400  54.522  1.00  0.00     0.236 A 
HETATM   18  N3  UNL     1      20.301  -0.803  53.667  1.00  0.00    -0.241 NA
HETATM   19  C12 UNL     1      20.804  -0.129  52.614  1.00  0.00     0.078 A 
HETATM   20  C13 UNL     1      19.965   0.495  51.718  1.00  0.00    -0.032 A 
HETATM   21  C19 UNL     1      22.158  -0.093  52.476  1.00  0.00     0.039 A 
HETATM   22  C14 UNL     1      18.498   0.384  51.976  1.00  0.00     0.050 C 
HETATM   23  C15 UNL     1      20.465   1.194  50.628  1.00  0.00     0.015 A 
HETATM   24  C16 UNL     1      21.829   1.233  50.484  1.00  0.00    -0.060 A 
HETATM   25  C17 UNL     1      22.332   1.987  49.309  1.00  0.00     0.048 C 
HETATM   26  C18 UNL     1      22.648   0.601  51.393  1.00  0.00     0.024 A 
ENDBRANCH   1  15
TORSDOF 8
ENDMDL
MODEL 9
REMARK VINA RESULT:      -6.9      3.263      6.090
REMARK  8 active torsions:
REMARK  status: ('A' for Active; 'I' for Inactive)
REMARK    1  A    between atoms: O1_2  and  C2_3 
REMARK    2  A    between atoms: C3_4  and  C4_5 
REMARK    3  A    between atoms: C3_4  and  C9_11 
REMARK    4  A    between atoms: C4_5  and  C5_6 
REMARK    5  A    between atoms: C6_7  and  C7_8 
REMARK    6  A    between atoms: C8_9  and  O2_10 
REMARK    7  A    between atoms: C9_11  and  N1_12 
REMARK    8  A    between atoms: N1_12  and  C10_13 
ROOT
HETATM    1  N1  UNL     1      22.864   3.229  50.917  1.00  0.00    -0.370 N 
HETATM    2  H12 UNL     1      22.235   3.615  51.638  1.00  0.00     0.161 HD
ENDROOT
BRANCH   1   3
HETATM    3  C9  UNL     1      22.309   3.246  49.569  1.00  0.00     0.157 C 
BRANCH   3   4
HETATM    4  C3  UNL     1      20.858   2.915  49.596  1.00  0.00    -0.037 C 
HETATM    5  C2  UNL     1      19.879   3.770  49.845  1.00  0.00     0.138 C 
BRANCH   5   6
HETATM    6  O1  UNL     1      19.658   5.097  50.145  1.00  0.00    -0.368 OA
HETATM    7  C1  UNL     1      19.170   6.033  49.196  1.00  0.00     0.208 C 
ENDBRANCH   5   6
BRANCH   4   8
HETATM    8  C4  UNL     1      20.666   1.458  49.297  1.00  0.00     0.065 C 
BRANCH   8   9
HETATM    9  C5  UNL     1      19.691   0.834  50.229  1.00  0.00    -0.013 C 
HETATM   10  C6  UNL     1      20.047   0.366  51.402  1.00  0.00     0.063 C 
BRANCH  10  11
HETATM   11  C7  UNL     1      19.156  -0.247  52.347  1.00  0.00    -0.049 C 
HETATM   12  C8  UNL     1      18.406  -0.772  53.130  1.00  0.00     0.056 C 
BRANCH  12  13
HETATM   13  O2  UNL     1      17.531  -1.359  54.021  1.00  0.00    -0.314 OA
HETATM   14  H9  UNL     1      16.529  -1.215  53.883  1.00  0.00     0.230 HD
ENDBRANCH  12  13
ENDBRANCH  10  11
ENDBRANCH   8   9
ENDBRANCH   4   8
ENDBRANCH   3   4
ENDBRANCH   1   3
BRANCH   1  15
HETATM   15  C10 UNL     1      24.174   2.698  51.106  1.00  0.00     0.137 A 
HETATM   16  N2  UNL     1      25.225   3.274  50.540  1.00  0.00    -0.224 NA
HETATM   17  C11 UNL     1      26.472   2.801  50.696  1.00  0.00     0.236 A 
HETATM   18  N3  UNL     1      26.735   1.707  51.440  1.00  0.00    -0.241 NA
HETATM   19  C12 UNL     1      25.710   1.075  52.043  1.00  0.00     0.078 A 
HETATM   20  C13 UNL     1      25.935  -0.046  52.812  1.00  0.00    -0.032 A 
HETATM   21  C19 UNL     1      24.460   1.582  51.862  1.00  0.00     0.039 A 
HETATM   22  C14 UNL     1      27.350  -0.507  52.935  1.00  0.00     0.050 C 
HETATM   23  C15 UNL     1      24.892  -0.711  53.440  1.00  0.00     0.015 A 
HETATM   24  C16 UNL     1      23.630  -0.203  53.261  1.00  0.00    -0.060 A 
HETATM   25  C17 UNL     1      22.536  -0.937  53.946  1.00  0.00     0.048 C 
HETATM   26  C18 UNL     1      23.429   0.918  52.488  1.00  0.00     0.024 A 
ENDBRANCH   1  15
TORSDOF 8
ENDMDL
