MODEL 1
REMARK VINA RESULT:      -7.0      0.000      0.000
REMARK  9 active torsions:
REMARK  status: ('A' for Active; 'I' for Inactive)
REMARK    1  A    between atoms: C5_5  and  N1_6 
REMARK    2  A    between atoms: N1_6  and  C6_7 
REMARK    3  A    between atoms: C6_7  and  N2_9 
REMARK    4  A    between atoms: N2_9  and  C7_10 
REMARK    5  A    between atoms: N2_9  and  C11_14 
REMARK    6  A    between atoms: C7_10  and  C8_11 
REMARK    7  A    between atoms: C8_11  and  C9_12 
REMARK    8  A    between atoms: C11_14  and  C12_15 
REMARK    9  A    between atoms: C17_21  and  O1_22 
ROOT
HETATM    1  N2  UNL     1      24.011   3.187  52.083  1.00  0.00    -0.354 N 
ENDROOT
BRANCH   1   2
HETATM    2  C6  UNL     1      22.624   2.944  51.886  1.00  0.00     0.174 C 
HETATM    3  S1  UNL     1      21.420   4.041  51.977  1.00  0.00    -0.041 SA
BRANCH   2   4
HETATM    4  N1  UNL     1      22.102   1.662  51.571  1.00  0.00    -0.333 N 
HETATM    5  H5  UNL     1      22.310   1.160  50.664  1.00  0.00     0.168 HD
BRANCH   4   6
HETATM    6  C5  UNL     1      21.255   0.829  52.332  1.00  0.00     0.035 A 
HETATM    7  C4  UNL     1      21.579   0.336  53.673  1.00  0.00     0.030 A 
HETATM    8  C3  UNL     1      20.633  -0.438  54.209  1.00  0.00     0.013 A 
HETATM    9  C2  UNL     1      19.628  -0.452  53.154  1.00  0.00    -0.043 A 
HETATM   10  C1  UNL     1      18.492  -1.095  53.224  1.00  0.00     0.023 C 
HETATM   11  C18 UNL     1      20.056   0.346  52.015  1.00  0.00     0.040 A 
ENDBRANCH   4   6
ENDBRANCH   2   4
ENDBRANCH   1   2
BRANCH   1  12
HETATM   12  C7  UNL     1      24.952   3.897  51.255  1.00  0.00     0.125 C 
BRANCH  12  13
HETATM   13  C8  UNL     1      25.097   3.269  49.886  1.00  0.00     0.020 C 
BRANCH  13  14
HETATM   14  C9  UNL     1      26.561   3.109  49.511  1.00  0.00    -0.003 C 
HETATM   15  C10 UNL     1      27.054   4.445  49.019  1.00  0.00     0.005 C 
ENDBRANCH  13  14
ENDBRANCH  12  13
ENDBRANCH   1  12
BRANCH   1  16
HETATM   16  C11 UNL     1      24.538   2.644  53.318  1.00  0.00     0.166 C 
BRANCH  16  17
HETATM   17  C12 UNL     1      25.489   1.544  53.151  1.00  0.00    -0.006 A 
HETATM   18  C13 UNL     1      25.069   0.334  52.623  1.00  0.00     0.012 A 
HETATM   19  C14 UNL     1      25.898  -0.779  52.439  1.00  0.00     0.002 A 
HETATM   20  C15 UNL     1      27.227  -0.630  52.821  1.00  0.00     0.022 A 
HETATM   21  C16 UNL     1      27.683   0.568  53.354  1.00  0.00     0.044 A 
HETATM   22 BR1  UNL     1      29.531   0.684  53.854  1.00  0.00    -0.048 Br
HETATM   23  C17 UNL     1      26.833   1.641  53.518  1.00  0.00     0.090 A 
BRANCH  23  24
HETATM   24  O1  UNL     1      27.346   2.817  54.055  1.00  0.00    -0.359 OA
HETATM   25  H20 UNL     1      26.708   3.560  54.329  1.00  0.00     0.217 HD
ENDBRANCH  23  24
ENDBRANCH  16  17
ENDBRANCH   1  16
TORSDOF 9
ENDMDL
MODEL 2
REMARK VINA RESULT:      -6.9      1.276      5.480
REMARK  9 active torsions:
REMARK  status: ('A' for Active; 'I' for Inactive)
REMARK    1  A    between atoms: C5_5  and  N1_6 
REMARK    2  A    between atoms: N1_6  and  C6_7 
REMARK    3  A    between atoms: C6_7  and  N2_9 
REMARK    4  A    between atoms: N2_9  and  C7_10 
REMARK    5  A    between atoms: N2_9  and  C11_14 
REMARK    6  A    between atoms: C7_10  and  C8_11 
REMARK    7  A    between atoms: C8_11  and  C9_12 
REMARK    8  A    between atoms: C11_14  and  C12_15 
REMARK    9  A    between atoms: C17_21  and  O1_22 
ROOT
HETATM    1  N2  UNL     1      23.120   1.430  52.236  1.00  0.00    -0.354 N 
ENDROOT
BRANCH   1   2
HETATM    2  C6  UNL     1      23.263   2.361  51.171  1.00  0.00     0.174 C 
HETATM    3  S1  UNL     1      22.618   2.240  49.677  1.00  0.00    -0.041 SA
BRANCH   2   4
HETATM    4  N1  UNL     1      24.016   3.559  51.289  1.00  0.00    -0.333 N 
HETATM    5  H5  UNL     1      23.880   4.251  52.077  1.00  0.00     0.168 HD
BRANCH   4   6
HETATM    6  C5  UNL     1      25.033   4.062  50.452  1.00  0.00     0.035 A 
HETATM    7  C4  UNL     1      26.211   3.294  50.041  1.00  0.00     0.030 A 
HETATM    8  C3  UNL     1      27.047   3.967  49.247  1.00  0.00     0.013 A 
HETATM    9  C2  UNL     1      26.374   5.254  49.131  1.00  0.00    -0.043 A 
HETATM   10  C1  UNL     1      26.826   6.264  48.433  1.00  0.00     0.023 C 
HETATM   11  C18 UNL     1      25.134   5.265  49.891  1.00  0.00     0.040 A 
ENDBRANCH   4   6
ENDBRANCH   2   4
ENDBRANCH   1   2
BRANCH   1  12
HETATM   12  C7  UNL     1      22.228   0.308  52.369  1.00  0.00     0.125 C 
BRANCH  12  13
HETATM   13  C8  UNL     1      21.012   0.639  53.207  1.00  0.00     0.020 C 
BRANCH  13  14
HETATM   14  C9  UNL     1      21.117   0.019  54.590  1.00  0.00    -0.003 C 
HETATM   15  C10 UNL     1      21.787  -1.323  54.440  1.00  0.00     0.005 C 
ENDBRANCH  13  14
ENDBRANCH  12  13
ENDBRANCH   1  12
BRANCH   1  16
HETATM   16  C11 UNL     1      24.029   1.650  53.342  1.00  0.00     0.166 C 
BRANCH  16  17
HETATM   17  C12 UNL     1      25.297   0.924  53.251  1.00  0.00    -0.006 A 
HETATM   18  C13 UNL     1      25.322  -0.378  52.777  1.00  0.00     0.012 A 
HETATM   19  C14 UNL     1      26.479  -1.157  52.668  1.00  0.00     0.002 A 
HETATM   20  C15 UNL     1      27.668  -0.558  53.069  1.00  0.00     0.022 A 
HETATM   21  C16 UNL     1      27.681   0.745  53.549  1.00  0.00     0.044 A 
HETATM   22 BR1  UNL     1      29.366   1.491  54.079  1.00  0.00    -0.048 Br
HETATM   23  C17 UNL     1      26.518   1.479  53.640  1.00  0.00     0.090 A 
BRANCH  23  24
HETATM   24  O1  UNL     1      26.592   2.780  54.126  1.00  0.00    -0.359 OA
HETATM   25  H20 UNL     1      25.818   3.154  54.670  1.00  0.00     0.217 HD
ENDBRANCH  23  24
ENDBRANCH  16  17
ENDBRANCH   1  16
TORSDOF 9
ENDMDL
MODEL 3
REMARK VINA RESULT:      -6.8      3.318      6.129
REMARK  9 active torsions:
REMARK  status: ('A' for Active; 'I' for Inactive)
REMARK    1  A    between atoms: C5_5  and  N1_6 
REMARK    2  A    between atoms: N1_6  and  C6_7 
REMARK    3  A    between atoms: C6_7  and  N2_9 
REMARK    4  A    between atoms: N2_9  and  C7_10 
REMARK    5  A    between atoms: N2_9  and  C11_14 
REMARK    6  A    between atoms: C7_10  and  C8_11 
REMARK    7  A    between atoms: C8_11  and  C9_12 
REMARK    8  A    between atoms: C11_14  and  C12_15 
REMARK    9  A    between atoms: C17_21  and  O1_22 
ROOT
HETATM    1  N2  UNL     1      24.025   2.639  51.812  1.00  0.00    -0.354 N 
ENDROOT
BRANCH   1   2
HETATM    2  C6  UNL     1      25.419   2.744  51.555  1.00  0.00     0.174 C 
HETATM    3  S1  UNL     1      26.120   3.176  50.147  1.00  0.00    -0.041 SA
BRANCH   2   4
HETATM    4  N1  UNL     1      26.408   2.475  52.538  1.00  0.00    -0.333 N 
HETATM    5  H5  UNL     1      26.727   3.192  53.247  1.00  0.00     0.168 HD
BRANCH   4   6
HETATM    6  C5  UNL     1      27.134   1.289  52.776  1.00  0.00     0.035 A 
HETATM    7  C4  UNL     1      26.670  -0.047  52.394  1.00  0.00     0.030 A 
HETATM    8  C3  UNL     1      27.516  -1.027  52.717  1.00  0.00     0.013 A 
HETATM    9  C2  UNL     1      28.600  -0.287  53.348  1.00  0.00    -0.043 A 
HETATM   10  C1  UNL     1      29.683  -0.835  53.837  1.00  0.00     0.023 C 
HETATM   11  C18 UNL     1      28.320   1.140  53.361  1.00  0.00     0.040 A 
ENDBRANCH   4   6
ENDBRANCH   2   4
ENDBRANCH   1   2
BRANCH   1  12
HETATM   12  C7  UNL     1      23.137   3.553  52.481  1.00  0.00     0.125 C 
BRANCH  12  13
HETATM   13  C8  UNL     1      23.271   4.967  51.959  1.00  0.00     0.020 C 
BRANCH  13  14
HETATM   14  C9  UNL     1      21.926   5.517  51.516  1.00  0.00    -0.003 C 
HETATM   15  C10 UNL     1      20.937   4.379  51.544  1.00  0.00     0.005 C 
ENDBRANCH  13  14
ENDBRANCH  12  13
ENDBRANCH   1  12
BRANCH   1  16
HETATM   16  C11 UNL     1      23.418   1.426  51.302  1.00  0.00     0.166 C 
BRANCH  16  17
HETATM   17  C12 UNL     1      22.689   0.637  52.296  1.00  0.00    -0.006 A 
HETATM   18  C13 UNL     1      23.358   0.090  53.379  1.00  0.00     0.012 A 
HETATM   19  C14 UNL     1      22.752  -0.690  54.371  1.00  0.00     0.002 A 
HETATM   20  C15 UNL     1      21.386  -0.914  54.233  1.00  0.00     0.022 A 
HETATM   21  C16 UNL     1      20.683  -0.381  53.161  1.00  0.00     0.044 A 
HETATM   22 BR1  UNL     1      18.802  -0.740  53.051  1.00  0.00    -0.048 Br
HETATM   23  C17 UNL     1      21.318   0.383  52.205  1.00  0.00     0.090 A 
BRANCH  23  24
HETATM   24  O1  UNL     1      20.563   0.893  51.154  1.00  0.00    -0.359 OA
HETATM   25  H20 UNL     1      19.585   1.122  51.308  1.00  0.00     0.217 HD
ENDBRANCH  23  24
ENDBRANCH  16  17
ENDBRANCH   1  16
TORSDOF 9
ENDMDL
MODEL 4
REMARK VINA RESULT:      -6.8      2.929      6.437
REMARK  9 active torsions:
REMARK  status: ('A' for Active; 'I' for Inactive)
REMARK    1  A    between atoms: C5_5  and  N1_6 
REMARK    2  A    between atoms: N1_6  and  C6_7 
REMARK    3  A    between atoms: C6_7  and  N2_9 
REMARK    4  A    between atoms: N2_9  and  C7_10 
REMARK    5  A    between atoms: N2_9  and  C11_14 
REMARK    6  A    between atoms: C7_10  and  C8_11 
REMARK    7  A    between atoms: C8_11  and  C9_12 
REMARK    8  A    between atoms: C11_14  and  C12_15 
REMARK    9  A    between atoms: C17_21  and  O1_22 
ROOT
HETATM    1  N2  UNL     1      25.045   2.217  52.417  1.00  0.00    -0.354 N 
ENDROOT
BRANCH   1   2
HETATM    2  C6  UNL     1      24.414   3.301  51.749  1.00  0.00     0.174 C 
HETATM    3  S1  UNL     1      23.423   4.413  52.415  1.00  0.00    -0.041 SA
BRANCH   2   4
HETATM    4  N1  UNL     1      24.581   3.556  50.361  1.00  0.00    -0.333 N 
HETATM    5  H5  UNL     1      23.939   3.161  49.620  1.00  0.00     0.168 HD
BRANCH   4   6
HETATM    6  C5  UNL     1      25.561   4.331  49.706  1.00  0.00     0.035 A 
HETATM    7  C4  UNL     1      25.342   5.701  49.235  1.00  0.00     0.030 A 
HETATM    8  C3  UNL     1      26.406   6.246  48.641  1.00  0.00     0.013 A 
HETATM    9  C2  UNL     1      27.380   5.166  48.729  1.00  0.00    -0.043 A 
HETATM   10  C1  UNL     1      28.603   5.235  48.271  1.00  0.00     0.023 C 
HETATM   11  C18 UNL     1      26.813   4.004  49.396  1.00  0.00     0.040 A 
ENDBRANCH   4   6
ENDBRANCH   2   4
ENDBRANCH   1   2
BRANCH   1  12
HETATM   12  C7  UNL     1      26.025   2.226  53.472  1.00  0.00     0.125 C 
BRANCH  12  13
HETATM   13  C8  UNL     1      27.401   1.838  52.978  1.00  0.00     0.020 C 
BRANCH  13  14
HETATM   14  C9  UNL     1      28.038   0.803  53.890  1.00  0.00    -0.003 C 
HETATM   15  C10 UNL     1      27.819  -0.552  53.266  1.00  0.00     0.005 C 
ENDBRANCH  13  14
ENDBRANCH  12  13
ENDBRANCH   1  12
BRANCH   1  16
HETATM   16  C11 UNL     1      24.612   0.910  51.966  1.00  0.00     0.166 C 
BRANCH  16  17
HETATM   17  C12 UNL     1      23.481   0.346  52.703  1.00  0.00    -0.006 A 
HETATM   18  C13 UNL     1      23.695  -0.347  53.883  1.00  0.00     0.012 A 
HETATM   19  C14 UNL     1      22.681  -0.934  54.650  1.00  0.00     0.002 A 
HETATM   20  C15 UNL     1      21.384  -0.795  54.170  1.00  0.00     0.022 A 
HETATM   21  C16 UNL     1      21.132  -0.107  52.991  1.00  0.00     0.044 A 
HETATM   22 BR1  UNL     1      19.312   0.036  52.404  1.00  0.00    -0.048 Br
HETATM   23  C17 UNL     1      22.159   0.458  52.265  1.00  0.00     0.090 A 
BRANCH  23  24
HETATM   24  O1  UNL     1      21.848   1.138  51.094  1.00  0.00    -0.359 OA
HETATM   25  H20 UNL     1      20.886   1.420  50.921  1.00  0.00     0.217 HD
ENDBRANCH  23  24
ENDBRANCH  16  17
ENDBRANCH   1  16
TORSDOF 9
ENDMDL
MODEL 5
REMARK VINA RESULT:      -6.8      3.070      5.741
REMARK  9 active torsions:
REMARK  status: ('A' for Active; 'I' for Inactive)
REMARK    1  A    between atoms: C5_5  and  N1_6 
REMARK    2  A    between atoms: N1_6  and  C6_7 
REMARK    3  A    between atoms: C6_7  and  N2_9 
REMARK    4  A    between atoms: N2_9  and  C7_10 
REMARK    5  A    between atoms: N2_9  and  C11_14 
REMARK    6  A    between atoms: C7_10  and  C8_11 
REMARK    7  A    between atoms: C8_11  and  C9_12 
REMARK    8  A    between atoms: C11_14  and  C12_15 
REMARK    9  A    between atoms: C17_21  and  O1_22 
ROOT
HETATM    1  N2  UNL     1      23.143   1.391  52.796  1.00  0.00    -0.354 N 
ENDROOT
BRANCH   1   2
HETATM    2  C6  UNL     1      23.622   0.135  53.259  1.00  0.00     0.174 C 
HETATM    3  S1  UNL     1      22.928  -0.817  54.387  1.00  0.00    -0.041 SA
BRANCH   2   4
HETATM    4  N1  UNL     1      24.812  -0.465  52.769  1.00  0.00    -0.333 N 
HETATM    5  H5  UNL     1      24.836  -1.086  51.913  1.00  0.00     0.168 HD
BRANCH   4   6
HETATM    6  C5  UNL     1      26.128  -0.380  53.269  1.00  0.00     0.035 A 
HETATM    7  C4  UNL     1      26.480   0.238  54.550  1.00  0.00     0.030 A 
HETATM    8  C3  UNL     1      27.786   0.207  54.825  1.00  0.00     0.013 A 
HETATM    9  C2  UNL     1      28.321  -0.472  53.653  1.00  0.00    -0.043 A 
HETATM   10  C1  UNL     1      29.588  -0.738  53.466  1.00  0.00     0.023 C 
HETATM   11  C18 UNL     1      27.259  -0.817  52.720  1.00  0.00     0.040 A 
ENDBRANCH   4   6
ENDBRANCH   2   4
ENDBRANCH   1   2
BRANCH   1  12
HETATM   12  C7  UNL     1      21.913   1.721  52.124  1.00  0.00     0.125 C 
BRANCH  12  13
HETATM   13  C8  UNL     1      21.633   0.797  50.958  1.00  0.00     0.020 C 
BRANCH  13  14
HETATM   14  C9  UNL     1      22.050   1.435  49.643  1.00  0.00    -0.003 C 
HETATM   15  C10 UNL     1      21.504   2.841  49.625  1.00  0.00     0.005 C 
ENDBRANCH  13  14
ENDBRANCH  12  13
ENDBRANCH   1  12
BRANCH   1  16
HETATM   16  C11 UNL     1      24.034   2.501  53.066  1.00  0.00     0.166 C 
BRANCH  16  17
HETATM   17  C12 UNL     1      24.438   3.267  51.886  1.00  0.00    -0.006 A 
HETATM   18  C13 UNL     1      25.253   2.690  50.926  1.00  0.00     0.012 A 
HETATM   19  C14 UNL     1      25.704   3.346  49.774  1.00  0.00     0.002 A 
HETATM   20  C15 UNL     1      25.290   4.663  49.610  1.00  0.00     0.022 A 
HETATM   21  C16 UNL     1      24.472   5.273  50.551  1.00  0.00     0.044 A 
HETATM   22 BR1  UNL     1      23.948   7.092  50.244  1.00  0.00    -0.048 Br
HETATM   23  C17 UNL     1      24.049   4.592  51.673  1.00  0.00     0.090 A 
BRANCH  23  24
HETATM   24  O1  UNL     1      23.230   5.253  52.581  1.00  0.00    -0.359 OA
HETATM   25  H20 UNL     1      23.479   5.258  53.567  1.00  0.00     0.217 HD
ENDBRANCH  23  24
ENDBRANCH  16  17
ENDBRANCH   1  16
TORSDOF 9
ENDMDL
MODEL 6
REMARK VINA RESULT:      -6.6      2.616      4.780
REMARK  9 active torsions:
REMARK  status: ('A' for Active; 'I' for Inactive)
REMARK    1  A    between atoms: C5_5  and  N1_6 
REMARK    2  A    between atoms: N1_6  and  C6_7 
REMARK    3  A    between atoms: C6_7  and  N2_9 
REMARK    4  A    between atoms: N2_9  and  C7_10 
REMARK    5  A    between atoms: N2_9  and  C11_14 
REMARK    6  A    between atoms: C7_10  and  C8_11 
REMARK    7  A    between atoms: C8_11  and  C9_12 
REMARK    8  A    between atoms: C11_14  and  C12_15 
REMARK    9  A    between atoms: C17_21  and  O1_22 
ROOT
HETATM    1  N2  UNL     1      23.560   3.452  51.711  1.00  0.00    -0.354 N 
ENDROOT
BRANCH   1   2
HETATM    2  C6  UNL     1      22.302   4.098  51.853  1.00  0.00     0.174 C 
HETATM    3  S1  UNL     1      20.834   3.387  51.834  1.00  0.00    -0.041 SA
BRANCH   2   4
HETATM    4  N1  UNL     1      22.170   5.500  52.039  1.00  0.00    -0.333 N 
HETATM    5  H5  UNL     1      21.699   5.928  52.883  1.00  0.00     0.168 HD
BRANCH   4   6
HETATM    6  C5  UNL     1      22.601   6.556  51.210  1.00  0.00     0.035 A 
HETATM    7  C4  UNL     1      23.964   7.093  51.208  1.00  0.00     0.030 A 
HETATM    8  C3  UNL     1      24.151   8.093  50.344  1.00  0.00     0.013 A 
HETATM    9  C2  UNL     1      22.830   8.217  49.743  1.00  0.00    -0.043 A 
HETATM   10  C1  UNL     1      22.518   9.086  48.817  1.00  0.00     0.023 C 
HETATM   11  C18 UNL     1      21.906   7.247  50.309  1.00  0.00     0.040 A 
ENDBRANCH   4   6
ENDBRANCH   2   4
ENDBRANCH   1   2
BRANCH   1  12
HETATM   12  C7  UNL     1      24.188   2.899  50.539  1.00  0.00     0.125 C 
BRANCH  12  13
HETATM   13  C8  UNL     1      24.224   3.884  49.390  1.00  0.00     0.020 C 
BRANCH  13  14
HETATM   14  C9  UNL     1      25.598   4.518  49.257  1.00  0.00    -0.003 C 
HETATM   15  C10 UNL     1      26.612   3.521  49.758  1.00  0.00     0.005 C 
ENDBRANCH  13  14
ENDBRANCH  12  13
ENDBRANCH   1  12
BRANCH   1  16
HETATM   16  C11 UNL     1      24.321   3.357  52.940  1.00  0.00     0.166 C 
BRANCH  16  17
HETATM   17  C12 UNL     1      24.796   2.013  53.269  1.00  0.00    -0.006 A 
HETATM   18  C13 UNL     1      23.950   0.923  53.136  1.00  0.00     0.012 A 
HETATM   19  C14 UNL     1      24.307  -0.396  53.439  1.00  0.00     0.002 A 
HETATM   20  C15 UNL     1      25.603  -0.595  53.903  1.00  0.00     0.022 A 
HETATM   21  C16 UNL     1      26.477   0.473  54.049  1.00  0.00     0.044 A 
HETATM   22 BR1  UNL     1      28.246   0.106  54.694  1.00  0.00    -0.048 Br
HETATM   23  C17 UNL     1      26.087   1.758  53.738  1.00  0.00     0.090 A 
BRANCH  23  24
HETATM   24  O1  UNL     1      27.006   2.789  53.901  1.00  0.00    -0.359 OA
HETATM   25  H20 UNL     1      27.089   3.502  53.180  1.00  0.00     0.217 HD
ENDBRANCH  23  24
ENDBRANCH  16  17
ENDBRANCH   1  16
TORSDOF 9
ENDMDL
MODEL 7
REMARK VINA RESULT:      -6.5      7.865      9.965
REMARK  9 active torsions:
REMARK  status: ('A' for Active; 'I' for Inactive)
REMARK    1  A    between atoms: C5_5  and  N1_6 
REMARK    2  A    between atoms: N1_6  and  C6_7 
REMARK    3  A    between atoms: C6_7  and  N2_9 
REMARK    4  A    between atoms: N2_9  and  C7_10 
REMARK    5  A    between atoms: N2_9  and  C11_14 
REMARK    6  A    between atoms: C7_10  and  C8_11 
REMARK    7  A    between atoms: C8_11  and  C9_12 
REMARK    8  A    between atoms: C11_14  and  C12_15 
REMARK    9  A    between atoms: C17_21  and  O1_22 
ROOT
HETATM    1  N2  UNL     1      30.513   8.083  48.643  1.00  0.00    -0.354 N 
ENDROOT
BRANCH   1   2
HETATM    2  C6  UNL     1      30.145   9.390  49.065  1.00  0.00     0.174 C 
HETATM    3  S1  UNL     1      30.865  10.791  48.639  1.00  0.00    -0.041 SA
BRANCH   2   4
HETATM    4  N1  UNL     1      29.058   9.639  49.944  1.00  0.00    -0.333 N 
HETATM    5  H5  UNL     1      29.183  10.020  50.923  1.00  0.00     0.168 HD
BRANCH   4   6
HETATM    6  C5  UNL     1      27.676   9.453  49.734  1.00  0.00     0.035 A 
HETATM    7  C4  UNL     1      26.916  10.096  48.659  1.00  0.00     0.030 A 
HETATM    8  C3  UNL     1      25.620   9.778  48.647  1.00  0.00     0.013 A 
HETATM    9  C2  UNL     1      25.526   8.871  49.784  1.00  0.00    -0.043 A 
HETATM   10  C1  UNL     1      24.423   8.288  50.174  1.00  0.00     0.023 C 
HETATM   11  C18 UNL     1      26.821   8.700  50.423  1.00  0.00     0.040 A 
ENDBRANCH   4   6
ENDBRANCH   2   4
ENDBRANCH   1   2
BRANCH   1  12
HETATM   12  C7  UNL     1      30.157   7.363  47.448  1.00  0.00     0.125 C 
BRANCH  12  13
HETATM   13  C8  UNL     1      28.718   6.894  47.470  1.00  0.00     0.020 C 
BRANCH  13  14
HETATM   14  C9  UNL     1      28.567   5.636  48.309  1.00  0.00    -0.003 C 
HETATM   15  C10 UNL     1      27.106   5.489  48.652  1.00  0.00     0.005 C 
ENDBRANCH  13  14
ENDBRANCH  12  13
ENDBRANCH   1  12
BRANCH   1  16
HETATM   16  C11 UNL     1      31.395   7.390  49.560  1.00  0.00     0.166 C 
BRANCH  16  17
HETATM   17  C12 UNL     1      32.677   6.976  48.987  1.00  0.00    -0.006 A 
HETATM   18  C13 UNL     1      33.637   7.923  48.670  1.00  0.00     0.012 A 
HETATM   19  C14 UNL     1      34.883   7.627  48.105  1.00  0.00     0.002 A 
HETATM   20  C15 UNL     1      35.147   6.284  47.859  1.00  0.00     0.022 A 
HETATM   21  C16 UNL     1      34.208   5.308  48.164  1.00  0.00     0.044 A 
HETATM   22 BR1  UNL     1      34.657   3.481  47.791  1.00  0.00    -0.048 Br
HETATM   23  C17 UNL     1      32.992   5.641  48.720  1.00  0.00     0.090 A 
BRANCH  23  24
HETATM   24  O1  UNL     1      32.092   4.621  49.008  1.00  0.00    -0.359 OA
HETATM   25  H20 UNL     1      31.221   4.562  48.485  1.00  0.00     0.217 HD
ENDBRANCH  23  24
ENDBRANCH  16  17
ENDBRANCH   1  16
TORSDOF 9
ENDMDL
MODEL 8
REMARK VINA RESULT:      -6.5      3.345      6.649
REMARK  9 active torsions:
REMARK  status: ('A' for Active; 'I' for Inactive)
REMARK    1  A    between atoms: C5_5  and  N1_6 
REMARK    2  A    between atoms: N1_6  and  C6_7 
REMARK    3  A    between atoms: C6_7  and  N2_9 
REMARK    4  A    between atoms: N2_9  and  C7_10 
REMARK    5  A    between atoms: N2_9  and  C11_14 
REMARK    6  A    between atoms: C7_10  and  C8_11 
REMARK    7  A    between atoms: C8_11  and  C9_12 
REMARK    8  A    between atoms: C11_14  and  C12_15 
REMARK    9  A    between atoms: C17_21  and  O1_22 
ROOT
HETATM    1  N2  UNL     1      24.083   3.018  52.427  1.00  0.00    -0.354 N 
ENDROOT
BRANCH   1   2
HETATM    2  C6  UNL     1      25.288   2.982  51.674  1.00  0.00     0.174 C 
HETATM    3  S1  UNL     1      25.451   3.291  50.080  1.00  0.00    -0.041 SA
BRANCH   2   4
HETATM    4  N1  UNL     1      26.547   2.660  52.247  1.00  0.00    -0.333 N 
HETATM    5  H5  UNL     1      27.259   3.391  52.522  1.00  0.00     0.168 HD
BRANCH   4   6
HETATM    6  C5  UNL     1      27.093   1.397  52.556  1.00  0.00     0.035 A 
HETATM    7  C4  UNL     1      26.429   0.124  52.266  1.00  0.00     0.030 A 
HETATM    8  C3  UNL     1      27.127  -0.949  52.644  1.00  0.00     0.013 A 
HETATM    9  C2  UNL     1      28.321  -0.341  53.216  1.00  0.00    -0.043 A 
HETATM   10  C1  UNL     1      29.319  -1.012  53.728  1.00  0.00     0.023 C 
HETATM   11  C18 UNL     1      28.255   1.110  53.138  1.00  0.00     0.040 A 
ENDBRANCH   4   6
ENDBRANCH   2   4
ENDBRANCH   1   2
BRANCH   1  12
HETATM   12  C7  UNL     1      23.205   1.946  52.819  1.00  0.00     0.125 C 
BRANCH  12  13
HETATM   13  C8  UNL     1      22.714   1.145  51.633  1.00  0.00     0.020 C 
BRANCH  13  14
HETATM   14  C9  UNL     1      21.837  -0.012  52.080  1.00  0.00    -0.003 C 
HETATM   15  C10 UNL     1      22.579  -0.754  53.163  1.00  0.00     0.005 C 
ENDBRANCH  13  14
ENDBRANCH  12  13
ENDBRANCH   1  12
BRANCH   1  16
HETATM   16  C11 UNL     1      23.702   4.343  52.872  1.00  0.00     0.166 C 
BRANCH  16  17
HETATM   17  C12 UNL     1      22.944   5.127  51.896  1.00  0.00    -0.006 A 
HETATM   18  C13 UNL     1      21.657   4.751  51.548  1.00  0.00     0.012 A 
HETATM   19  C14 UNL     1      20.861   5.427  50.615  1.00  0.00     0.002 A 
HETATM   20  C15 UNL     1      21.427   6.546  50.014  1.00  0.00     0.022 A 
HETATM   21  C16 UNL     1      22.714   6.952  50.339  1.00  0.00     0.044 A 
HETATM   22 BR1  UNL     1      23.415   8.507  49.462  1.00  0.00    -0.048 Br
HETATM   23  C17 UNL     1      23.466   6.259  51.264  1.00  0.00     0.090 A 
BRANCH  23  24
HETATM   24  O1  UNL     1      24.748   6.713  51.552  1.00  0.00    -0.359 OA
HETATM   25  H20 UNL     1      24.910   7.711  51.662  1.00  0.00     0.217 HD
ENDBRANCH  23  24
ENDBRANCH  16  17
ENDBRANCH   1  16
TORSDOF 9
ENDMDL
MODEL 9
REMARK VINA RESULT:      -6.3      6.428      9.491
REMARK  9 active torsions:
REMARK  status: ('A' for Active; 'I' for Inactive)
REMARK    1  A    between atoms: C5_5  and  N1_6 
REMARK    2  A    between atoms: N1_6  and  C6_7 
REMARK    3  A    between atoms: C6_7  and  N2_9 
REMARK    4  A    between atoms: N2_9  and  C7_10 
REMARK    5  A    between atoms: N2_9  and  C11_14 
REMARK    6  A    between atoms: C7_10  and  C8_11 
REMARK    7  A    between atoms: C8_11  and  C9_12 
REMARK    8  A    between atoms: C11_14  and  C12_15 
REMARK    9  A    between atoms: C17_21  and  O1_22 
ROOT
HETATM    1  N2  UNL     1      31.466   7.610  47.901  1.00  0.00    -0.354 N 
ENDROOT
BRANCH   1   2
HETATM    2  C6  UNL     1      30.076   7.841  48.086  1.00  0.00     0.174 C 
HETATM    3  S1  UNL     1      29.395   9.013  48.994  1.00  0.00    -0.041 SA
BRANCH   2   4
HETATM    4  N1  UNL     1      29.072   7.044  47.475  1.00  0.00    -0.333 N 
HETATM    5  H5  UNL     1      28.982   6.933  46.427  1.00  0.00     0.168 HD
BRANCH   4   6
HETATM    6  C5  UNL     1      28.048   6.280  48.073  1.00  0.00     0.035 A 
HETATM    7  C4  UNL     1      26.678   6.758  48.272  1.00  0.00     0.030 A 
HETATM    8  C3  UNL     1      25.874   5.869  48.857  1.00  0.00     0.013 A 
HETATM    9  C2  UNL     1      26.772   4.739  49.053  1.00  0.00    -0.043 A 
HETATM   10  C1  UNL     1      26.425   3.606  49.605  1.00  0.00     0.023 C 
HETATM   11  C18 UNL     1      28.104   5.039  48.552  1.00  0.00     0.040 A 
ENDBRANCH   4   6
ENDBRANCH   2   4
ENDBRANCH   1   2
BRANCH   1  12
HETATM   12  C7  UNL     1      32.322   7.965  46.799  1.00  0.00     0.125 C 
BRANCH  12  13
HETATM   13  C8  UNL     1      31.734   7.562  45.464  1.00  0.00     0.020 C 
BRANCH  13  14
HETATM   14  C9  UNL     1      32.469   6.367  44.881  1.00  0.00    -0.003 C 
HETATM   15  C10 UNL     1      33.942   6.572  45.128  1.00  0.00     0.005 C 
ENDBRANCH  13  14
ENDBRANCH  12  13
ENDBRANCH   1  12
BRANCH   1  16
HETATM   16  C11 UNL     1      32.106   6.927  49.006  1.00  0.00     0.166 C 
BRANCH  16  17
HETATM   17  C12 UNL     1      32.943   5.788  48.625  1.00  0.00    -0.006 A 
HETATM   18  C13 UNL     1      34.309   5.820  48.852  1.00  0.00     0.012 A 
HETATM   19  C14 UNL     1      35.192   4.789  48.509  1.00  0.00     0.002 A 
HETATM   20  C15 UNL     1      34.631   3.671  47.902  1.00  0.00     0.022 A 
HETATM   21  C16 UNL     1      33.266   3.604  47.658  1.00  0.00     0.044 A 
HETATM   22 BR1  UNL     1      32.578   2.024  46.817  1.00  0.00    -0.048 Br
HETATM   23  C17 UNL     1      32.430   4.642  48.012  1.00  0.00     0.090 A 
BRANCH  23  24
HETATM   24  O1  UNL     1      31.070   4.519  47.747  1.00  0.00    -0.359 OA
HETATM   25  H20 UNL     1      30.549   5.331  47.425  1.00  0.00     0.217 HD
ENDBRANCH  23  24
ENDBRANCH  16  17
ENDBRANCH   1  16
TORSDOF 9
ENDMDL
