MODEL 1
REMARK VINA RESULT:      -9.1      0.000      0.000
REMARK  5 active torsions:
REMARK  status: ('A' for Active; 'I' for Inactive)
REMARK    1  A    between atoms: C2_2  and  C3_3 
REMARK    2  A    between atoms: C3_3  and  N1_4 
REMARK    3  A    between atoms: C10_14  and  N4_15 
REMARK    4  A    between atoms: N4_15  and  C11_16 
REMARK    5  A    between atoms: C11_16  and  C12_17 
ROOT
HETATM    1  N1  UNL     1      27.654   1.089  54.070  1.00  0.00     0.111 N 
HETATM    2  C4  UNL     1      27.159   1.083  52.753  1.00  0.00     0.280 C 
HETATM    3  C5  UNL     1      25.995   2.078  52.672  1.00  0.00     0.071 C 
HETATM    4  C6  UNL     1      24.666   1.450  52.916  1.00  0.00    -0.024 A 
HETATM    5  C7  UNL     1      24.489   0.212  53.458  1.00  0.00     0.016 A 
HETATM    6  S1  UNL     1      22.745  -0.004  53.443  1.00  0.00    -0.071 SA
HETATM    7  C8  UNL     1      22.386   1.539  52.731  1.00  0.00     0.114 A 
HETATM    8  N2  UNL     1      21.160   2.083  52.408  1.00  0.00    -0.234 NA
HETATM    9  C9  UNL     1      21.070   3.282  51.866  1.00  0.00     0.236 A 
HETATM   10  N3  UNL     1      22.230   3.874  51.679  1.00  0.00    -0.224 NA
HETATM   11  C10 UNL     1      23.440   3.395  51.974  1.00  0.00     0.138 A 
HETATM   12  C18 UNL     1      23.583   2.145  52.539  1.00  0.00     0.053 A 
HETATM   13  C19 UNL     1      25.174  -0.964  54.028  1.00  0.00     0.216 C 
HETATM   14  O1  UNL     1      26.417  -0.763  54.534  1.00  0.00    -0.357 OA
HETATM   15  C20 UNL     1      26.630   0.516  54.972  1.00  0.00     0.440 C 
ENDROOT
BRANCH  11  16
HETATM   16  N4  UNL     1      24.490   4.332  51.710  1.00  0.00    -0.370 N 
HETATM   17  H13 UNL     1      25.412   4.645  52.069  1.00  0.00     0.161 HD
BRANCH  16  18
HETATM   18  C11 UNL     1      24.448   5.272  50.605  1.00  0.00     0.160 C 
BRANCH  18  19
HETATM   19  C12 UNL     1      25.713   5.273  49.804  1.00  0.00    -0.041 A 
HETATM   20  C13 UNL     1      26.591   4.310  49.368  1.00  0.00     0.009 A 
HETATM   21  C14 UNL     1      27.694   4.686  48.643  1.00  0.00     0.001 A 
HETATM   22  C15 UNL     1      28.011   5.983  48.301  1.00  0.00     0.000 A 
HETATM   23  C16 UNL     1      27.123   6.944  48.743  1.00  0.00     0.001 A 
HETATM   24  C17 UNL     1      25.981   6.616  49.487  1.00  0.00     0.009 A 
ENDBRANCH  18  19
ENDBRANCH  16  18
ENDBRANCH  11  16
BRANCH   1  25
HETATM   25  C3  UNL     1      28.864   0.499  54.425  1.00  0.00     0.275 C 
BRANCH  25  26
HETATM   26  C2  UNL     1      29.776  -0.111  53.455  1.00  0.00     0.026 C 
HETATM   27  C1  UNL     1      29.628  -1.601  53.415  1.00  0.00     0.007 C 
ENDBRANCH  25  26
ENDBRANCH   1  25
TORSDOF 5
ENDMDL
MODEL 2
REMARK VINA RESULT:      -8.6      1.521      2.062
REMARK  5 active torsions:
REMARK  status: ('A' for Active; 'I' for Inactive)
REMARK    1  A    between atoms: C2_2  and  C3_3 
REMARK    2  A    between atoms: C3_3  and  N1_4 
REMARK    3  A    between atoms: C10_14  and  N4_15 
REMARK    4  A    between atoms: N4_15  and  C11_16 
REMARK    5  A    between atoms: C11_16  and  C12_17 
ROOT
HETATM    1  N1  UNL     1      26.895   0.421  53.735  1.00  0.00     0.111 N 
HETATM    2  C4  UNL     1      26.217  -0.223  52.684  1.00  0.00     0.280 C 
HETATM    3  C5  UNL     1      25.009   0.636  52.291  1.00  0.00     0.071 C 
HETATM    4  C6  UNL     1      23.759   0.255  53.007  1.00  0.00    -0.024 A 
HETATM    5  C7  UNL     1      23.718  -0.543  54.111  1.00  0.00     0.016 A 
HETATM    6  S1  UNL     1      22.002  -0.683  54.461  1.00  0.00    -0.071 SA
HETATM    7  C8  UNL     1      21.474   0.313  53.139  1.00  0.00     0.114 A 
HETATM    8  N2  UNL     1      20.191   0.662  52.771  1.00  0.00    -0.234 NA
HETATM    9  C9  UNL     1      19.969   1.435  51.726  1.00  0.00     0.236 A 
HETATM   10  N3  UNL     1      21.063   1.819  51.102  1.00  0.00    -0.224 NA
HETATM   11  C10 UNL     1      22.323   1.512  51.415  1.00  0.00     0.138 A 
HETATM   12  C18 UNL     1      22.602   0.704  52.498  1.00  0.00     0.053 A 
HETATM   13  C19 UNL     1      24.530  -1.300  55.082  1.00  0.00     0.216 C 
HETATM   14  O1  UNL     1      25.822  -0.914  55.233  1.00  0.00    -0.357 OA
HETATM   15  C20 UNL     1      26.037   0.406  54.941  1.00  0.00     0.440 C 
ENDROOT
BRANCH  11  16
HETATM   16  N4  UNL     1      23.281   2.159  50.569  1.00  0.00    -0.370 N 
HETATM   17  H13 UNL     1      24.207   2.012  50.126  1.00  0.00     0.161 HD
BRANCH  16  18
HETATM   18  C11 UNL     1      23.088   3.498  50.041  1.00  0.00     0.160 C 
BRANCH  18  19
HETATM   19  C12 UNL     1      24.372   4.134  49.610  1.00  0.00    -0.041 A 
HETATM   20  C13 UNL     1      24.730   5.357  49.097  1.00  0.00     0.009 A 
HETATM   21  C14 UNL     1      26.046   5.599  48.791  1.00  0.00     0.001 A 
HETATM   22  C15 UNL     1      27.074   4.697  48.958  1.00  0.00     0.000 A 
HETATM   23  C16 UNL     1      26.706   3.470  49.475  1.00  0.00     0.001 A 
HETATM   24  C17 UNL     1      25.377   3.170  49.804  1.00  0.00     0.009 A 
ENDBRANCH  18  19
ENDBRANCH  16  18
ENDBRANCH  11  16
BRANCH   1  25
HETATM   25  C3  UNL     1      28.169   0.048  54.154  1.00  0.00     0.275 C 
BRANCH  25  26
HETATM   26  C2  UNL     1      29.346   0.905  54.007  1.00  0.00     0.026 C 
HETATM   27  C1  UNL     1      28.965   2.336  53.781  1.00  0.00     0.007 C 
ENDBRANCH  25  26
ENDBRANCH   1  25
TORSDOF 5
ENDMDL
MODEL 3
REMARK VINA RESULT:      -8.5      2.355      5.942
REMARK  5 active torsions:
REMARK  status: ('A' for Active; 'I' for Inactive)
REMARK    1  A    between atoms: C2_2  and  C3_3 
REMARK    2  A    between atoms: C3_3  and  N1_4 
REMARK    3  A    between atoms: C10_14  and  N4_15 
REMARK    4  A    between atoms: N4_15  and  C11_16 
REMARK    5  A    between atoms: C11_16  and  C12_17 
ROOT
HETATM    1  N1  UNL     1      24.332   3.984  50.582  1.00  0.00     0.111 N 
HETATM    2  C4  UNL     1      24.274   3.906  51.985  1.00  0.00     0.280 C 
HETATM    3  C5  UNL     1      24.173   2.429  52.382  1.00  0.00     0.071 C 
HETATM    4  C6  UNL     1      22.767   1.958  52.541  1.00  0.00    -0.024 A 
HETATM    5  C7  UNL     1      21.674   2.637  52.093  1.00  0.00     0.016 A 
HETATM    6  S1  UNL     1      20.323   1.641  52.613  1.00  0.00    -0.071 SA
HETATM    7  C8  UNL     1      21.293   0.416  53.373  1.00  0.00     0.114 A 
HETATM    8  N2  UNL     1      20.891  -0.730  54.027  1.00  0.00    -0.234 NA
HETATM    9  C9  UNL     1      21.773  -1.558  54.552  1.00  0.00     0.236 A 
HETATM   10  N3  UNL     1      23.024  -1.183  54.387  1.00  0.00    -0.224 NA
HETATM   11  C10 UNL     1      23.466  -0.089  53.765  1.00  0.00     0.138 A 
HETATM   12  C18 UNL     1      22.580   0.807  53.203  1.00  0.00     0.053 A 
HETATM   13  C19 UNL     1      21.213   3.836  51.369  1.00  0.00     0.216 C 
HETATM   14  O1  UNL     1      22.099   4.420  50.523  1.00  0.00    -0.357 OA
HETATM   15  C20 UNL     1      23.031   3.552  50.022  1.00  0.00     0.440 C 
ENDROOT
BRANCH  11  16
HETATM   16  N4  UNL     1      24.895  -0.023  53.700  1.00  0.00    -0.370 N 
HETATM   17  H13 UNL     1      25.703   0.514  54.069  1.00  0.00     0.161 HD
BRANCH  16  18
HETATM   18  C11 UNL     1      25.690  -0.928  52.890  1.00  0.00     0.160 C 
BRANCH  18  19
HETATM   19  C12 UNL     1      27.160  -0.757  53.113  1.00  0.00    -0.041 A 
HETATM   20  C13 UNL     1      28.243  -1.600  53.164  1.00  0.00     0.009 A 
HETATM   21  C14 UNL     1      29.488  -1.081  53.414  1.00  0.00     0.001 A 
HETATM   22  C15 UNL     1      29.760   0.254  53.626  1.00  0.00     0.000 A 
HETATM   23  C16 UNL     1      28.665   1.095  53.572  1.00  0.00     0.001 A 
HETATM   24  C17 UNL     1      27.372   0.618  53.321  1.00  0.00     0.009 A 
ENDBRANCH  18  19
ENDBRANCH  16  18
ENDBRANCH  11  16
BRANCH   1  25
HETATM   25  C3  UNL     1      24.684   5.147  49.902  1.00  0.00     0.275 C 
BRANCH  25  26
HETATM   26  C2  UNL     1      25.870   5.252  49.051  1.00  0.00     0.026 C 
HETATM   27  C1  UNL     1      26.826   4.124  49.291  1.00  0.00     0.007 C 
ENDBRANCH  25  26
ENDBRANCH   1  25
TORSDOF 5
ENDMDL
MODEL 4
REMARK VINA RESULT:      -8.4      1.939      5.238
REMARK  5 active torsions:
REMARK  status: ('A' for Active; 'I' for Inactive)
REMARK    1  A    between atoms: C2_2  and  C3_3 
REMARK    2  A    between atoms: C3_3  and  N1_4 
REMARK    3  A    between atoms: C10_14  and  N4_15 
REMARK    4  A    between atoms: N4_15  and  C11_16 
REMARK    5  A    between atoms: C11_16  and  C12_17 
ROOT
HETATM    1  N1  UNL     1      21.486   1.618  51.360  1.00  0.00     0.111 N 
HETATM    2  C4  UNL     1      22.176   2.461  52.249  1.00  0.00     0.280 C 
HETATM    3  C5  UNL     1      23.676   2.358  51.945  1.00  0.00     0.071 C 
HETATM    4  C6  UNL     1      24.372   1.326  52.765  1.00  0.00    -0.024 A 
HETATM    5  C7  UNL     1      23.737   0.356  53.481  1.00  0.00     0.016 A 
HETATM    6  S1  UNL     1      25.050  -0.505  54.273  1.00  0.00    -0.071 SA
HETATM    7  C8  UNL     1      26.323   0.470  53.604  1.00  0.00     0.114 A 
HETATM    8  N2  UNL     1      27.685   0.372  53.797  1.00  0.00    -0.234 NA
HETATM    9  C9  UNL     1      28.518   1.206  53.205  1.00  0.00     0.236 A 
HETATM   10  N3  UNL     1      27.927   2.100  52.442  1.00  0.00    -0.224 NA
HETATM   11  C10 UNL     1      26.619   2.239  52.221  1.00  0.00     0.138 A 
HETATM   12  C18 UNL     1      25.711   1.391  52.821  1.00  0.00     0.053 A 
HETATM   13  C19 UNL     1      22.425  -0.222  53.830  1.00  0.00     0.216 C 
HETATM   14  O1  UNL     1      21.406   0.005  52.963  1.00  0.00    -0.357 OA
HETATM   15  C20 UNL     1      21.818   0.210  51.674  1.00  0.00     0.440 C 
ENDROOT
BRANCH  11  16
HETATM   16  N4  UNL     1      26.319   3.271  51.275  1.00  0.00    -0.370 N 
HETATM   17  H13 UNL     1      25.934   4.233  51.214  1.00  0.00     0.161 HD
BRANCH  16  18
HETATM   18  C11 UNL     1      26.552   3.126  49.849  1.00  0.00     0.160 C 
BRANCH  18  19
HETATM   19  C12 UNL     1      26.879   4.427  49.187  1.00  0.00    -0.041 A 
HETATM   20  C13 UNL     1      27.996   4.968  48.596  1.00  0.00     0.009 A 
HETATM   21  C14 UNL     1      27.938   6.241  48.088  1.00  0.00     0.001 A 
HETATM   22  C15 UNL     1      26.825   7.054  48.116  1.00  0.00     0.000 A 
HETATM   23  C16 UNL     1      25.706   6.502  48.710  1.00  0.00     0.001 A 
HETATM   24  C17 UNL     1      25.710   5.208  49.246  1.00  0.00     0.009 A 
ENDBRANCH  18  19
ENDBRANCH  16  18
ENDBRANCH  11  16
BRANCH   1  25
HETATM   25  C3  UNL     1      20.104   1.666  51.191  1.00  0.00     0.275 C 
BRANCH  25  26
HETATM   26  C2  UNL     1      19.379   0.801  50.258  1.00  0.00     0.026 C 
HETATM   27  C1  UNL     1      18.171   0.187  50.896  1.00  0.00     0.007 C 
ENDBRANCH  25  26
ENDBRANCH   1  25
TORSDOF 5
ENDMDL
MODEL 5
REMARK VINA RESULT:      -8.0      6.141      9.208
REMARK  5 active torsions:
REMARK  status: ('A' for Active; 'I' for Inactive)
REMARK    1  A    between atoms: C2_2  and  C3_3 
REMARK    2  A    between atoms: C3_3  and  N1_4 
REMARK    3  A    between atoms: C10_14  and  N4_15 
REMARK    4  A    between atoms: N4_15  and  C11_16 
REMARK    5  A    between atoms: C11_16  and  C12_17 
ROOT
HETATM    1  N1  UNL     1      32.194   4.242  46.804  1.00  0.00     0.111 N 
HETATM    2  C4  UNL     1      32.064   4.709  48.124  1.00  0.00     0.280 C 
HETATM    3  C5  UNL     1      30.994   5.808  48.143  1.00  0.00     0.071 C 
HETATM    4  C6  UNL     1      31.555   7.178  47.971  1.00  0.00    -0.024 A 
HETATM    5  C7  UNL     1      32.818   7.442  47.533  1.00  0.00     0.016 A 
HETATM    6  S1  UNL     1      32.922   9.195  47.593  1.00  0.00    -0.071 SA
HETATM    7  C8  UNL     1      31.308   9.444  48.183  1.00  0.00     0.114 A 
HETATM    8  N2  UNL     1      30.663  10.627  48.481  1.00  0.00    -0.234 NA
HETATM    9  C9  UNL     1      29.422  10.632  48.926  1.00  0.00     0.236 A 
HETATM   10  N3  UNL     1      28.892   9.434  49.047  1.00  0.00    -0.224 NA
HETATM   11  C10 UNL     1      29.467   8.262  48.773  1.00  0.00     0.138 A 
HETATM   12  C18 UNL     1      30.765   8.208  48.308  1.00  0.00     0.053 A 
HETATM   13  C19 UNL     1      34.076   6.843  47.048  1.00  0.00     0.216 C 
HETATM   14  O1  UNL     1      33.995   5.600  46.509  1.00  0.00    -0.357 OA
HETATM   15  C20 UNL     1      32.770   5.318  45.966  1.00  0.00     0.440 C 
ENDROOT
BRANCH  11  16
HETATM   16  N4  UNL     1      28.580   7.151  48.944  1.00  0.00    -0.370 N 
HETATM   17  H13 UNL     1      28.436   6.307  49.531  1.00  0.00     0.161 HD
BRANCH  16  18
HETATM   18  C11 UNL     1      27.415   6.936  48.106  1.00  0.00     0.160 C 
BRANCH  18  19
HETATM   19  C12 UNL     1      26.520   5.860  48.634  1.00  0.00    -0.041 A 
HETATM   20  C13 UNL     1      25.179   5.758  48.918  1.00  0.00     0.009 A 
HETATM   21  C14 UNL     1      24.686   4.580  49.423  1.00  0.00     0.001 A 
HETATM   22  C15 UNL     1      25.438   3.454  49.678  1.00  0.00     0.000 A 
HETATM   23  C16 UNL     1      26.785   3.565  49.389  1.00  0.00     0.001 A 
HETATM   24  C17 UNL     1      27.340   4.743  48.873  1.00  0.00     0.009 A 
ENDBRANCH  18  19
ENDBRANCH  16  18
ENDBRANCH  11  16
BRANCH   1  25
HETATM   25  C3  UNL     1      32.885   3.078  46.478  1.00  0.00     0.275 C 
BRANCH  25  26
HETATM   26  C2  UNL     1      32.850   1.867  47.299  1.00  0.00     0.026 C 
HETATM   27  C1  UNL     1      32.026   0.789  46.663  1.00  0.00     0.007 C 
ENDBRANCH  25  26
ENDBRANCH   1  25
TORSDOF 5
ENDMDL
MODEL 6
REMARK VINA RESULT:      -7.9      3.379      6.818
REMARK  5 active torsions:
REMARK  status: ('A' for Active; 'I' for Inactive)
REMARK    1  A    between atoms: C2_2  and  C3_3 
REMARK    2  A    between atoms: C3_3  and  N1_4 
REMARK    3  A    between atoms: C10_14  and  N4_15 
REMARK    4  A    between atoms: N4_15  and  C11_16 
REMARK    5  A    between atoms: C11_16  and  C12_17 
ROOT
HETATM    1  N1  UNL     1      21.706   2.260  49.499  1.00  0.00     0.111 N 
HETATM    2  C4  UNL     1      22.013   2.772  50.772  1.00  0.00     0.280 C 
HETATM    3  C5  UNL     1      22.776   1.696  51.554  1.00  0.00     0.071 C 
HETATM    4  C6  UNL     1      21.889   0.831  52.383  1.00  0.00    -0.024 A 
HETATM    5  C7  UNL     1      20.534   0.768  52.249  1.00  0.00     0.016 A 
HETATM    6  S1  UNL     1      20.043  -0.350  53.512  1.00  0.00    -0.071 SA
HETATM    7  C8  UNL     1      21.645  -0.647  54.114  1.00  0.00     0.114 A 
HETATM    8  N2  UNL     1      22.047  -1.460  55.153  1.00  0.00    -0.234 NA
HETATM    9  C9  UNL     1      23.320  -1.568  55.479  1.00  0.00     0.236 A 
HETATM   10  N3  UNL     1      24.127  -0.845  54.732  1.00  0.00    -0.224 NA
HETATM   11  C10 UNL     1      23.793  -0.045  53.719  1.00  0.00     0.138 A 
HETATM   12  C18 UNL     1      22.473   0.101  53.344  1.00  0.00     0.053 A 
HETATM   13  C19 UNL     1      19.374   1.258  51.481  1.00  0.00     0.216 C 
HETATM   14  O1  UNL     1      19.619   1.720  50.228  1.00  0.00    -0.357 OA
HETATM   15  C20 UNL     1      20.725   1.161  49.645  1.00  0.00     0.440 C 
ENDROOT
BRANCH  11  16
HETATM   16  N4  UNL     1      24.928   0.539  53.070  1.00  0.00    -0.370 N 
HETATM   17  H13 UNL     1      25.402   1.450  52.921  1.00  0.00     0.161 HD
BRANCH  16  18
HETATM   18  C11 UNL     1      25.875  -0.237  52.290  1.00  0.00     0.160 C 
BRANCH  18  19
HETATM   19  C12 UNL     1      27.268  -0.155  52.832  1.00  0.00    -0.041 A 
HETATM   20  C13 UNL     1      28.092   0.861  53.253  1.00  0.00     0.009 A 
HETATM   21  C14 UNL     1      29.359   0.562  53.689  1.00  0.00     0.001 A 
HETATM   22  C15 UNL     1      29.896  -0.706  53.745  1.00  0.00     0.000 A 
HETATM   23  C16 UNL     1      29.060  -1.721  53.321  1.00  0.00     0.001 A 
HETATM   24  C17 UNL     1      27.759  -1.472  52.866  1.00  0.00     0.009 A 
ENDBRANCH  18  19
ENDBRANCH  16  18
ENDBRANCH  11  16
BRANCH   1  25
HETATM   25  C3  UNL     1      21.248   3.057  48.453  1.00  0.00     0.275 C 
BRANCH  25  26
HETATM   26  C2  UNL     1      21.422   4.510  48.416  1.00  0.00     0.026 C 
HETATM   27  C1  UNL     1      22.610   4.906  47.593  1.00  0.00     0.007 C 
ENDBRANCH  25  26
ENDBRANCH   1  25
TORSDOF 5
ENDMDL
MODEL 7
REMARK VINA RESULT:      -7.6      2.369      5.783
REMARK  5 active torsions:
REMARK  status: ('A' for Active; 'I' for Inactive)
REMARK    1  A    between atoms: C2_2  and  C3_3 
REMARK    2  A    between atoms: C3_3  and  N1_4 
REMARK    3  A    between atoms: C10_14  and  N4_15 
REMARK    4  A    between atoms: N4_15  and  C11_16 
REMARK    5  A    between atoms: C11_16  and  C12_17 
ROOT
HETATM    1  N1  UNL     1      20.284   1.767  51.296  1.00  0.00     0.111 N 
HETATM    2  C4  UNL     1      21.101   2.451  52.214  1.00  0.00     0.280 C 
HETATM    3  C5  UNL     1      22.543   1.962  52.035  1.00  0.00     0.071 C 
HETATM    4  C6  UNL     1      22.896   0.828  52.936  1.00  0.00    -0.024 A 
HETATM    5  C7  UNL     1      21.986   0.083  53.626  1.00  0.00     0.016 A 
HETATM    6  S1  UNL     1      22.978  -1.040  54.544  1.00  0.00    -0.071 SA
HETATM    7  C8  UNL     1      24.501  -0.448  53.953  1.00  0.00     0.114 A 
HETATM    8  N2  UNL     1      25.777  -0.875  54.258  1.00  0.00    -0.234 NA
HETATM    9  C9  UNL     1      26.834  -0.305  53.712  1.00  0.00     0.236 A 
HETATM   10  N3  UNL     1      26.544   0.672  52.880  1.00  0.00    -0.224 NA
HETATM   11  C10 UNL     1      25.333   1.123  52.550  1.00  0.00     0.138 A 
HETATM   12  C18 UNL     1      24.199   0.559  53.098  1.00  0.00     0.053 A 
HETATM   13  C19 UNL     1      20.550  -0.131  53.883  1.00  0.00     0.216 C 
HETATM   14  O1  UNL     1      19.685   0.303  52.931  1.00  0.00    -0.357 OA
HETATM   15  C20 UNL     1      20.226   0.337  51.674  1.00  0.00     0.440 C 
ENDROOT
BRANCH  11  16
HETATM   16  N4  UNL     1      25.372   2.152  51.554  1.00  0.00    -0.370 N 
HETATM   17  H13 UNL     1      24.798   2.916  51.150  1.00  0.00     0.161 HD
BRANCH  16  18
HETATM   18  C11 UNL     1      26.521   2.374  50.695  1.00  0.00     0.160 C 
BRANCH  18  19
HETATM   19  C12 UNL     1      26.422   3.653  49.925  1.00  0.00    -0.041 A 
HETATM   20  C13 UNL     1      27.277   4.384  49.135  1.00  0.00     0.009 A 
HETATM   21  C14 UNL     1      26.839   5.561  48.581  1.00  0.00     0.001 A 
HETATM   22  C15 UNL     1      25.579   6.093  48.751  1.00  0.00     0.000 A 
HETATM   23  C16 UNL     1      24.727   5.352  49.547  1.00  0.00     0.001 A 
HETATM   24  C17 UNL     1      25.122   4.144  50.137  1.00  0.00     0.009 A 
ENDBRANCH  18  19
ENDBRANCH  16  18
ENDBRANCH  11  16
BRANCH   1  25
HETATM   25  C3  UNL     1      18.976   2.152  51.014  1.00  0.00     0.275 C 
BRANCH  25  26
HETATM   26  C2  UNL     1      18.158   1.518  49.978  1.00  0.00     0.026 C 
HETATM   27  C1  UNL     1      17.775   2.488  48.904  1.00  0.00     0.007 C 
ENDBRANCH  25  26
ENDBRANCH   1  25
TORSDOF 5
ENDMDL
MODEL 8
REMARK VINA RESULT:      -7.6      2.574      5.483
REMARK  5 active torsions:
REMARK  status: ('A' for Active; 'I' for Inactive)
REMARK    1  A    between atoms: C2_2  and  C3_3 
REMARK    2  A    between atoms: C3_3  and  N1_4 
REMARK    3  A    between atoms: C10_14  and  N4_15 
REMARK    4  A    between atoms: N4_15  and  C11_16 
REMARK    5  A    between atoms: C11_16  and  C12_17 
ROOT
HETATM    1  N1  UNL     1      25.672   0.904  53.022  1.00  0.00     0.111 N 
HETATM    2  C4  UNL     1      25.302   2.183  53.477  1.00  0.00     0.280 C 
HETATM    3  C5  UNL     1      23.965   2.558  52.826  1.00  0.00     0.071 C 
HETATM    4  C6  UNL     1      24.124   3.322  51.555  1.00  0.00    -0.024 A 
HETATM    5  C7  UNL     1      25.291   3.422  50.860  1.00  0.00     0.016 A 
HETATM    6  S1  UNL     1      24.883   4.475  49.513  1.00  0.00    -0.071 SA
HETATM    7  C8  UNL     1      23.221   4.699  49.965  1.00  0.00     0.114 A 
HETATM    8  N2  UNL     1      22.243   5.444  49.340  1.00  0.00    -0.234 NA
HETATM    9  C9  UNL     1      21.019   5.504  49.826  1.00  0.00     0.236 A 
HETATM   10  N3  UNL     1      20.845   4.803  50.927  1.00  0.00    -0.224 NA
HETATM   11  C10 UNL     1      21.753   4.067  51.570  1.00  0.00     0.138 A 
HETATM   12  C18 UNL     1      23.047   3.977  51.099  1.00  0.00     0.053 A 
HETATM   13  C19 UNL     1      26.704   3.002  50.808  1.00  0.00     0.216 C 
HETATM   14  O1  UNL     1      27.028   1.859  51.464  1.00  0.00    -0.357 OA
HETATM   15  C20 UNL     1      25.986   0.979  51.578  1.00  0.00     0.440 C 
ENDROOT
BRANCH  11  16
HETATM   16  N4  UNL     1      21.210   3.371  52.697  1.00  0.00    -0.370 N 
HETATM   17  H13 UNL     1      21.214   3.372  53.735  1.00  0.00     0.161 HD
BRANCH  16  18
HETATM   18  C11 UNL     1      20.324   2.228  52.565  1.00  0.00     0.160 C 
BRANCH  18  19
HETATM   19  C12 UNL     1      20.854   1.010  53.254  1.00  0.00    -0.041 A 
HETATM   20  C13 UNL     1      20.761   0.487  54.521  1.00  0.00     0.009 A 
HETATM   21  C14 UNL     1      21.412  -0.684  54.815  1.00  0.00     0.001 A 
HETATM   22  C15 UNL     1      22.176  -1.408  53.925  1.00  0.00     0.000 A 
HETATM   23  C16 UNL     1      22.264  -0.876  52.653  1.00  0.00     0.001 A 
HETATM   24  C17 UNL     1      21.620   0.317  52.299  1.00  0.00     0.009 A 
ENDBRANCH  18  19
ENDBRANCH  16  18
ENDBRANCH  11  16
BRANCH   1  25
HETATM   25  C3  UNL     1      26.693   0.159  53.607  1.00  0.00     0.275 C 
BRANCH  25  26
HETATM   26  C2  UNL     1      27.511   0.652  54.717  1.00  0.00     0.026 C 
HETATM   27  C1  UNL     1      28.960   0.733  54.344  1.00  0.00     0.007 C 
ENDBRANCH  25  26
ENDBRANCH   1  25
TORSDOF 5
ENDMDL
MODEL 9
REMARK VINA RESULT:      -7.4      2.600      6.500
REMARK  5 active torsions:
REMARK  status: ('A' for Active; 'I' for Inactive)
REMARK    1  A    between atoms: C2_2  and  C3_3 
REMARK    2  A    between atoms: C3_3  and  N1_4 
REMARK    3  A    between atoms: C10_14  and  N4_15 
REMARK    4  A    between atoms: N4_15  and  C11_16 
REMARK    5  A    between atoms: C11_16  and  C12_17 
ROOT
HETATM    1  N1  UNL     1      25.051   5.746  48.965  1.00  0.00     0.111 N 
HETATM    2  C4  UNL     1      25.197   5.594  50.356  1.00  0.00     0.280 C 
HETATM    3  C5  UNL     1      24.990   4.115  50.704  1.00  0.00     0.071 C 
HETATM    4  C6  UNL     1      23.580   3.787  51.061  1.00  0.00    -0.024 A 
HETATM    5  C7  UNL     1      22.516   4.602  50.817  1.00  0.00     0.016 A 
HETATM    6  S1  UNL     1      21.155   3.726  51.500  1.00  0.00    -0.071 SA
HETATM    7  C8  UNL     1      22.083   2.365  52.049  1.00  0.00     0.114 A 
HETATM    8  N2  UNL     1      21.657   1.232  52.711  1.00  0.00    -0.234 NA
HETATM    9  C9  UNL     1      22.508   0.286  53.058  1.00  0.00     0.236 A 
HETATM   10  N3  UNL     1      23.754   0.536  52.715  1.00  0.00    -0.224 NA
HETATM   11  C10 UNL     1      24.219   1.611  52.077  1.00  0.00     0.138 A 
HETATM   12  C18 UNL     1      23.365   2.626  51.697  1.00  0.00     0.053 A 
HETATM   13  C19 UNL     1      22.090   5.883  50.222  1.00  0.00     0.216 C 
HETATM   14  O1  UNL     1      22.899   6.418  49.273  1.00  0.00    -0.357 OA
HETATM   15  C20 UNL     1      23.641   5.486  48.598  1.00  0.00     0.440 C 
ENDROOT
BRANCH  11  16
HETATM   16  N4  UNL     1      25.620   1.528  51.792  1.00  0.00    -0.370 N 
HETATM   17  H13 UNL     1      26.286   1.423  51.004  1.00  0.00     0.161 HD
BRANCH  16  18
HETATM   18  C11 UNL     1      26.638   1.585  52.825  1.00  0.00     0.160 C 
BRANCH  18  19
HETATM   19  C12 UNL     1      27.409   0.308  52.941  1.00  0.00    -0.041 A 
HETATM   20  C13 UNL     1      27.142  -1.018  52.698  1.00  0.00     0.009 A 
HETATM   21  C14 UNL     1      28.115  -1.955  52.940  1.00  0.00     0.001 A 
HETATM   22  C15 UNL     1      29.377  -1.678  53.420  1.00  0.00     0.000 A 
HETATM   23  C16 UNL     1      29.637  -0.343  53.662  1.00  0.00     0.001 A 
HETATM   24  C17 UNL     1      28.680   0.655  53.433  1.00  0.00     0.009 A 
ENDBRANCH  18  19
ENDBRANCH  16  18
ENDBRANCH  11  16
BRANCH   1  25
HETATM   25  C3  UNL     1      25.426   6.902  48.287  1.00  0.00     0.275 C 
BRANCH  25  26
HETATM   26  C2  UNL     1      26.802   7.176  47.866  1.00  0.00     0.026 C 
HETATM   27  C1  UNL     1      27.736   6.080  48.278  1.00  0.00     0.007 C 
ENDBRANCH  25  26
ENDBRANCH   1  25
TORSDOF 5
ENDMDL
